MODEL 1
REMARK VINA RESULT:     -10.2      0.000      0.000
REMARK  7 active torsions:
REMARK  status: ('A' for Active; 'I' for Inactive)
REMARK    1  A    between atoms: C_2  and  N_3 
REMARK    2  A    between atoms: N_3  and  N_4 
REMARK       I    between atoms: N_4  and  C_5 
REMARK    3  A    between atoms: C_5  and  C_6 
REMARK       I    between atoms: C_6  and  N_7 
REMARK    4  A    between atoms: N_7  and  C_8 
REMARK    5  A    between atoms: C_9  and  O_10 
REMARK    6  A    between atoms: C_18  and  C_19 
REMARK       I    between atoms: C_19  and  N_20 
REMARK    7  A    between atoms: N_20  and  C_21 
ROOT
HETATM    1  N   UNL     1      44.356 -14.212   8.398  1.00  0.00    -0.302 N 
HETATM    2  H   UNL     1      43.775 -14.505   9.193  1.00  0.00     0.186 HD
ENDROOT
BRANCH   1   3
HETATM    3  C   UNL     1      44.068 -14.825   7.189  1.00  0.00     0.027 C 
HETATM    4  C   UNL     1      44.368 -13.977   5.971  1.00  0.00     0.070 C 
HETATM    5  C   UNL     1      43.541 -16.064   7.098  1.00  0.00     0.100 C 
BRANCH   5   6
HETATM    6  C   UNL     1      43.082 -16.692   5.824  1.00  0.00     0.247 C 
HETATM    7  N   UNL     1      44.047 -17.529   5.296  1.00  0.00    -0.323 N 
HETATM    8  H   UNL     1      44.920 -17.576   5.799  1.00  0.00     0.169 HD
HETATM    9  O   UNL     1      41.968 -16.465   5.375  1.00  0.00    -0.268 OA
BRANCH   7  10
HETATM   10  C   UNL     1      43.974 -18.294   4.102  1.00  0.00     0.041 A 
HETATM   11  C   UNL     1      44.188 -19.696   4.165  1.00  0.00    -0.025 A 
HETATM   12  C   UNL     1      44.195 -20.453   2.968  1.00  0.00    -0.050 A 
HETATM   13  C   UNL     1      44.462 -20.389   5.487  1.00  0.00     0.041 C 
HETATM   14  C   UNL     1      44.436 -21.945   2.957  1.00  0.00     0.039 C 
HETATM   15  C   UNL     1      43.925 -19.827   1.743  1.00  0.00     0.008 A 
HETATM   16  C   UNL     1      45.105 -22.455   4.226  1.00  0.00     0.005 C 
HETATM   17  C   UNL     1      44.371 -21.913   5.442  1.00  0.00     0.005 C 
HETATM   18  C   UNL     1      43.682 -18.462   1.691  1.00  0.00     0.003 A 
HETATM   19  C   UNL     1      43.712 -17.703   2.860  1.00  0.00     0.030 A 
ENDBRANCH   7  10
ENDBRANCH   5   6
ENDBRANCH   1   3
BRANCH   1  20
HETATM   20  N   UNL     1      44.835 -12.901   8.518  1.00  0.00    -0.262 N 
HETATM   21  C   UNL     1      44.894 -12.400   9.815  1.00  0.00     0.328 C 
HETATM   22  O   UNL     1      44.758 -13.064  10.834  1.00  0.00    -0.261 OA
HETATM   23  H   UNL     1      44.562 -12.241   7.792  1.00  0.00     0.190 HD
BRANCH  21  24
HETATM   24  C   UNL     1      45.027 -10.877   9.859  1.00  0.00     0.315 C 
HETATM   25  N   UNL     1      44.055 -10.119  10.461  1.00  0.00    -0.316 N 
HETATM   26  H   UNL     1      44.017  -9.157  10.138  1.00  0.00     0.169 HD
HETATM   27  O   UNL     1      45.984 -10.373   9.272  1.00  0.00    -0.262 OA
BRANCH  25  28
HETATM   28  C   UNL     1      43.078 -10.454  11.419  1.00  0.00     0.068 A 
HETATM   29  C   UNL     1      41.797 -10.795  10.938  1.00  0.00     0.095 A 
HETATM   30  C   UNL     1      40.757 -11.063  11.832  1.00  0.00     0.039 A 
HETATM   31  C   UNL     1      40.990 -11.011  13.206  1.00  0.00     0.003 A 
HETATM   32  C   UNL     1      42.254 -10.679  13.686  1.00  0.00     0.002 A 
HETATM   33  C   UNL     1      43.295 -10.395  12.797  1.00  0.00     0.032 A 
BRANCH  29  34
HETATM   34  O   UNL     1      41.641 -10.815   9.571  1.00  0.00    -0.354 OA
HETATM   35  C   UNL     1      40.298 -10.623   9.130  1.00  0.00     0.210 C 
ENDBRANCH  29  34
ENDBRANCH  25  28
ENDBRANCH  21  24
ENDBRANCH   1  20
TORSDOF 7
ENDMDL
MODEL 2
REMARK VINA RESULT:      -9.7      6.832     10.351
REMARK  7 active torsions:
REMARK  status: ('A' for Active; 'I' for Inactive)
REMARK    1  A    between atoms: C_2  and  N_3 
REMARK    2  A    between atoms: N_3  and  N_4 
REMARK       I    between atoms: N_4  and  C_5 
REMARK    3  A    between atoms: C_5  and  C_6 
REMARK       I    between atoms: C_6  and  N_7 
REMARK    4  A    between atoms: N_7  and  C_8 
REMARK    5  A    between atoms: C_9  and  O_10 
REMARK    6  A    between atoms: C_18  and  C_19 
REMARK       I    between atoms: C_19  and  N_20 
REMARK    7  A    between atoms: N_20  and  C_21 
ROOT
HETATM    1  N   UNL     1      41.560 -15.222  -1.012  1.00  0.00    -0.302 N 
HETATM    2  H   UNL     1      41.960 -14.304  -1.239  1.00  0.00     0.186 HD
ENDROOT
BRANCH   1   3
HETATM    3  C   UNL     1      41.675 -15.614   0.313  1.00  0.00     0.027 C 
HETATM    4  C   UNL     1      42.072 -14.503   1.261  1.00  0.00     0.070 C 
HETATM    5  C   UNL     1      41.476 -16.883   0.725  1.00  0.00     0.100 C 
BRANCH   5   6
HETATM    6  C   UNL     1      41.736 -17.368   2.114  1.00  0.00     0.247 C 
HETATM    7  N   UNL     1      43.028 -17.838   2.253  1.00  0.00    -0.323 N 
HETATM    8  H   UNL     1      43.596 -17.831   1.420  1.00  0.00     0.169 HD
HETATM    9  O   UNL     1      40.870 -17.304   2.975  1.00  0.00    -0.268 OA
BRANCH   7  10
HETATM   10  C   UNL     1      43.635 -18.376   3.417  1.00  0.00     0.041 A 
HETATM   11  C   UNL     1      44.050 -19.734   3.417  1.00  0.00    -0.025 A 
HETATM   12  C   UNL     1      44.584 -20.299   4.601  1.00  0.00    -0.050 A 
HETATM   13  C   UNL     1      43.882 -20.605   2.186  1.00  0.00     0.041 C 
HETATM   14  C   UNL     1      45.027 -21.741   4.680  1.00  0.00     0.039 C 
HETATM   15  C   UNL     1      44.761 -19.499   5.739  1.00  0.00     0.008 A 
HETATM   16  C   UNL     1      44.439 -22.611   3.577  1.00  0.00     0.005 C 
HETATM   17  C   UNL     1      44.637 -21.932   2.232  1.00  0.00     0.005 C 
HETATM   18  C   UNL     1      44.386 -18.163   5.723  1.00  0.00     0.003 A 
HETATM   19  C   UNL     1      43.824 -17.610   4.574  1.00  0.00     0.030 A 
ENDBRANCH   7  10
ENDBRANCH   5   6
ENDBRANCH   1   3
BRANCH   1  20
HETATM   20  N   UNL     1      40.492 -15.581  -1.846  1.00  0.00    -0.262 N 
HETATM   21  C   UNL     1      40.621 -15.208  -3.179  1.00  0.00     0.328 C 
HETATM   22  O   UNL     1      41.647 -14.787  -3.698  1.00  0.00    -0.261 OA
HETATM   23  H   UNL     1      39.557 -15.521  -1.449  1.00  0.00     0.190 HD
BRANCH  21  24
HETATM   24  C   UNL     1      39.295 -15.252  -3.941  1.00  0.00     0.315 C 
HETATM   25  N   UNL     1      38.340 -14.293  -3.715  1.00  0.00    -0.316 N 
HETATM   26  H   UNL     1      37.396 -14.582  -3.953  1.00  0.00     0.169 HD
HETATM   27  O   UNL     1      39.101 -16.212  -4.686  1.00  0.00    -0.262 OA
BRANCH  25  28
HETATM   28  C   UNL     1      38.438 -12.996  -3.175  1.00  0.00     0.068 A 
HETATM   29  C   UNL     1      38.135 -12.845  -1.806  1.00  0.00     0.095 A 
HETATM   30  C   UNL     1      38.135 -11.576  -1.220  1.00  0.00     0.039 A 
HETATM   31  C   UNL     1      38.452 -10.456  -1.988  1.00  0.00     0.003 A 
HETATM   32  C   UNL     1      38.756 -10.599  -3.339  1.00  0.00     0.002 A 
HETATM   33  C   UNL     1      38.743 -11.865  -3.935  1.00  0.00     0.032 A 
BRANCH  29  34
HETATM   34  O   UNL     1      37.822 -13.994  -1.117  1.00  0.00    -0.354 OA
HETATM   35  C   UNL     1      38.176 -13.966   0.264  1.00  0.00     0.210 C 
ENDBRANCH  29  34
ENDBRANCH  25  28
ENDBRANCH  21  24
ENDBRANCH   1  20
TORSDOF 7
ENDMDL
MODEL 3
REMARK VINA RESULT:      -9.5      1.730      2.389
REMARK  7 active torsions:
REMARK  status: ('A' for Active; 'I' for Inactive)
REMARK    1  A    between atoms: C_2  and  N_3 
REMARK    2  A    between atoms: N_3  and  N_4 
REMARK       I    between atoms: N_4  and  C_5 
REMARK    3  A    between atoms: C_5  and  C_6 
REMARK       I    between atoms: C_6  and  N_7 
REMARK    4  A    between atoms: N_7  and  C_8 
REMARK    5  A    between atoms: C_9  and  O_10 
REMARK    6  A    between atoms: C_18  and  C_19 
REMARK       I    between atoms: C_19  and  N_20 
REMARK    7  A    between atoms: N_20  and  C_21 
ROOT
HETATM    1  N   UNL     1      42.210 -14.269   6.427  1.00  0.00    -0.302 N 
HETATM    2  H   UNL     1      41.397 -13.653   6.554  1.00  0.00     0.186 HD
ENDROOT
BRANCH   1   3
HETATM    3  C   UNL     1      41.976 -15.428   5.703  1.00  0.00     0.027 C 
HETATM    4  C   UNL     1      41.226 -16.500   6.465  1.00  0.00     0.070 C 
HETATM    5  C   UNL     1      42.400 -15.602   4.434  1.00  0.00     0.100 C 
BRANCH   5   6
HETATM    6  C   UNL     1      42.296 -16.886   3.680  1.00  0.00     0.247 C 
HETATM    7  N   UNL     1      43.442 -17.646   3.814  1.00  0.00    -0.323 N 
HETATM    8  H   UNL     1      44.190 -17.235   4.351  1.00  0.00     0.169 HD
HETATM    9  O   UNL     1      41.281 -17.172   3.061  1.00  0.00    -0.268 OA
BRANCH   7  10
HETATM   10  C   UNL     1      43.711 -18.918   3.244  1.00  0.00     0.041 A 
HETATM   11  C   UNL     1      43.988 -20.015   4.101  1.00  0.00    -0.025 A 
HETATM   12  C   UNL     1      44.335 -21.268   3.538  1.00  0.00    -0.050 A 
HETATM   13  C   UNL     1      43.970 -19.856   5.611  1.00  0.00     0.041 C 
HETATM   14  C   UNL     1      44.661 -22.474   4.389  1.00  0.00     0.039 C 
HETATM   15  C   UNL     1      44.337 -21.432   2.146  1.00  0.00     0.008 A 
HETATM   16  C   UNL     1      45.028 -22.116   5.823  1.00  0.00     0.005 C 
HETATM   17  C   UNL     1      43.986 -21.167   6.393  1.00  0.00     0.005 C 
HETATM   18  C   UNL     1      44.031 -20.366   1.313  1.00  0.00     0.003 A 
HETATM   19  C   UNL     1      43.727 -19.120   1.859  1.00  0.00     0.030 A 
ENDBRANCH   7  10
ENDBRANCH   5   6
ENDBRANCH   1   3
BRANCH   1  20
HETATM   20  N   UNL     1      43.431 -13.580   6.432  1.00  0.00    -0.262 N 
HETATM   21  C   UNL     1      44.348 -13.993   7.392  1.00  0.00     0.328 C 
HETATM   22  O   UNL     1      44.251 -15.007   8.071  1.00  0.00    -0.261 OA
HETATM   23  H   UNL     1      43.397 -12.580   6.240  1.00  0.00     0.190 HD
BRANCH  21  24
HETATM   24  C   UNL     1      45.465 -12.974   7.624  1.00  0.00     0.315 C 
HETATM   25  N   UNL     1      45.292 -11.957   8.529  1.00  0.00    -0.316 N 
HETATM   26  H   UNL     1      45.883 -11.147   8.363  1.00  0.00     0.169 HD
HETATM   27  O   UNL     1      46.469 -13.063   6.919  1.00  0.00    -0.262 OA
BRANCH  25  28
HETATM   28  C   UNL     1      44.411 -11.826   9.621  1.00  0.00     0.068 A 
HETATM   29  C   UNL     1      43.197 -11.147   9.389  1.00  0.00     0.095 A 
HETATM   30  C   UNL     1      42.309 -10.911  10.442  1.00  0.00     0.039 A 
HETATM   31  C   UNL     1      42.616 -11.364  11.725  1.00  0.00     0.003 A 
HETATM   32  C   UNL     1      43.811 -12.040  11.958  1.00  0.00     0.002 A 
HETATM   33  C   UNL     1      44.711 -12.266  10.911  1.00  0.00     0.032 A 
BRANCH  29  34
HETATM   34  O   UNL     1      42.970 -10.720   8.100  1.00  0.00    -0.354 OA
HETATM   35  C   UNL     1      41.655 -10.216   7.872  1.00  0.00     0.210 C 
ENDBRANCH  29  34
ENDBRANCH  25  28
ENDBRANCH  21  24
ENDBRANCH   1  20
TORSDOF 7
ENDMDL
MODEL 4
REMARK VINA RESULT:      -9.4      0.777      2.305
REMARK  7 active torsions:
REMARK  status: ('A' for Active; 'I' for Inactive)
REMARK    1  A    between atoms: C_2  and  N_3 
REMARK    2  A    between atoms: N_3  and  N_4 
REMARK       I    between atoms: N_4  and  C_5 
REMARK    3  A    between atoms: C_5  and  C_6 
REMARK       I    between atoms: C_6  and  N_7 
REMARK    4  A    between atoms: N_7  and  C_8 
REMARK    5  A    between atoms: C_9  and  O_10 
REMARK    6  A    between atoms: C_18  and  C_19 
REMARK       I    between atoms: C_19  and  N_20 
REMARK    7  A    between atoms: N_20  and  C_21 
ROOT
HETATM    1  N   UNL     1      44.157 -14.283   8.705  1.00  0.00    -0.302 N 
HETATM    2  H   UNL     1      43.563 -14.479   9.520  1.00  0.00     0.186 HD
ENDROOT
BRANCH   1   3
HETATM    3  C   UNL     1      43.916 -15.067   7.587  1.00  0.00     0.027 C 
HETATM    4  C   UNL     1      44.012 -14.325   6.271  1.00  0.00     0.070 C 
HETATM    5  C   UNL     1      43.597 -16.376   7.660  1.00  0.00     0.100 C 
BRANCH   5   6
HETATM    6  C   UNL     1      43.188 -17.210   6.492  1.00  0.00     0.247 C 
HETATM    7  N   UNL     1      44.285 -17.716   5.821  1.00  0.00    -0.323 N 
HETATM    8  H   UNL     1      45.189 -17.435   6.170  1.00  0.00     0.169 HD
HETATM    9  O   UNL     1      42.007 -17.397   6.234  1.00  0.00    -0.268 OA
BRANCH   7  10
HETATM   10  C   UNL     1      44.292 -18.545   4.669  1.00  0.00     0.041 A 
HETATM   11  C   UNL     1      43.907 -17.994   3.418  1.00  0.00    -0.025 A 
HETATM   12  C   UNL     1      43.836 -18.834   2.280  1.00  0.00    -0.050 A 
HETATM   13  C   UNL     1      43.520 -16.532   3.290  1.00  0.00     0.041 C 
HETATM   14  C   UNL     1      43.415 -18.322   0.922  1.00  0.00     0.039 C 
HETATM   15  C   UNL     1      44.208 -20.182   2.382  1.00  0.00     0.008 A 
HETATM   16  C   UNL     1      42.660 -17.001   0.986  1.00  0.00     0.005 C 
HETATM   17  C   UNL     1      43.425 -16.017   1.855  1.00  0.00     0.005 C 
HETATM   18  C   UNL     1      44.618 -20.707   3.599  1.00  0.00     0.003 A 
HETATM   19  C   UNL     1      44.653 -19.896   4.732  1.00  0.00     0.030 A 
ENDBRANCH   7  10
ENDBRANCH   5   6
ENDBRANCH   1   3
BRANCH   1  20
HETATM   20  N   UNL     1      44.601 -12.955   8.650  1.00  0.00    -0.262 N 
HETATM   21  C   UNL     1      44.930 -12.383   9.874  1.00  0.00     0.328 C 
HETATM   22  O   UNL     1      45.052 -12.992  10.928  1.00  0.00    -0.261 OA
HETATM   23  H   UNL     1      44.146 -12.344   7.974  1.00  0.00     0.190 HD
BRANCH  21  24
HETATM   24  C   UNL     1      45.012 -10.856   9.814  1.00  0.00     0.315 C 
HETATM   25  N   UNL     1      44.032 -10.092  10.397  1.00  0.00    -0.316 N 
HETATM   26  H   UNL     1      43.951  -9.155  10.013  1.00  0.00     0.169 HD
HETATM   27  O   UNL     1      45.932 -10.362   9.164  1.00  0.00    -0.262 OA
BRANCH  25  28
HETATM   28  C   UNL     1      43.097 -10.394  11.406  1.00  0.00     0.068 A 
HETATM   29  C   UNL     1      41.807 -10.784  10.991  1.00  0.00     0.095 A 
HETATM   30  C   UNL     1      40.805 -11.023  11.935  1.00  0.00     0.039 A 
HETATM   31  C   UNL     1      41.086 -10.895  13.295  1.00  0.00     0.003 A 
HETATM   32  C   UNL     1      42.360 -10.515  13.711  1.00  0.00     0.002 A 
HETATM   33  C   UNL     1      43.363 -10.259  12.770  1.00  0.00     0.032 A 
BRANCH  29  34
HETATM   34  O   UNL     1      41.602 -10.878   9.633  1.00  0.00    -0.354 OA
HETATM   35  C   UNL     1      40.541 -10.063   9.141  1.00  0.00     0.210 C 
ENDBRANCH  29  34
ENDBRANCH  25  28
ENDBRANCH  21  24
ENDBRANCH   1  20
TORSDOF 7
ENDMDL
MODEL 5
REMARK VINA RESULT:      -9.2      6.481     10.395
REMARK  7 active torsions:
REMARK  status: ('A' for Active; 'I' for Inactive)
REMARK    1  A    between atoms: C_2  and  N_3 
REMARK    2  A    between atoms: N_3  and  N_4 
REMARK       I    between atoms: N_4  and  C_5 
REMARK    3  A    between atoms: C_5  and  C_6 
REMARK       I    between atoms: C_6  and  N_7 
REMARK    4  A    between atoms: N_7  and  C_8 
REMARK    5  A    between atoms: C_9  and  O_10 
REMARK    6  A    between atoms: C_18  and  C_19 
REMARK       I    between atoms: C_19  and  N_20 
REMARK    7  A    between atoms: N_20  and  C_21 
ROOT
HETATM    1  N   UNL     1      38.873 -14.698   0.705  1.00  0.00    -0.302 N 
HETATM    2  H   UNL     1      37.933 -15.004   0.987  1.00  0.00     0.186 HD
ENDROOT
BRANCH   1   3
HETATM    3  C   UNL     1      39.899 -15.041   1.572  1.00  0.00     0.027 C 
HETATM    4  C   UNL     1      39.837 -14.351   2.918  1.00  0.00     0.070 C 
HETATM    5  C   UNL     1      40.886 -15.899   1.241  1.00  0.00     0.100 C 
BRANCH   5   6
HETATM    6  C   UNL     1      42.081 -16.176   2.092  1.00  0.00     0.247 C 
HETATM    7  N   UNL     1      41.929 -17.343   2.815  1.00  0.00    -0.323 N 
HETATM    8  H   UNL     1      41.047 -17.821   2.709  1.00  0.00     0.169 HD
HETATM    9  O   UNL     1      43.048 -15.427   2.082  1.00  0.00    -0.268 OA
BRANCH   7  10
HETATM   10  C   UNL     1      42.848 -17.926   3.726  1.00  0.00     0.041 A 
HETATM   11  C   UNL     1      43.463 -19.162   3.394  1.00  0.00    -0.025 A 
HETATM   12  C   UNL     1      44.319 -19.788   4.333  1.00  0.00    -0.050 A 
HETATM   13  C   UNL     1      43.176 -19.850   2.072  1.00  0.00     0.041 C 
HETATM   14  C   UNL     1      44.992 -21.113   4.055  1.00  0.00     0.039 C 
HETATM   15  C   UNL     1      44.606 -19.153   5.549  1.00  0.00     0.008 A 
HETATM   16  C   UNL     1      44.327 -21.900   2.934  1.00  0.00     0.005 C 
HETATM   17  C   UNL     1      44.124 -20.997   1.728  1.00  0.00     0.005 C 
HETATM   18  C   UNL     1      44.031 -17.928   5.854  1.00  0.00     0.003 A 
HETATM   19  C   UNL     1      43.156 -17.325   4.952  1.00  0.00     0.030 A 
ENDBRANCH   7  10
ENDBRANCH   5   6
ENDBRANCH   1   3
BRANCH   1  20
HETATM   20  N   UNL     1      39.024 -14.584  -0.684  1.00  0.00    -0.262 N 
HETATM   21  C   UNL     1      38.141 -13.713  -1.313  1.00  0.00     0.328 C 
HETATM   22  O   UNL     1      37.408 -12.917  -0.743  1.00  0.00    -0.261 OA
HETATM   23  H   UNL     1      39.260 -15.434  -1.193  1.00  0.00     0.190 HD
BRANCH  21  24
HETATM   24  C   UNL     1      38.073 -13.927  -2.827  1.00  0.00     0.315 C 
HETATM   25  N   UNL     1      38.890 -13.205  -3.660  1.00  0.00    -0.316 N 
HETATM   26  H   UNL     1      38.546 -13.123  -4.613  1.00  0.00     0.169 HD
HETATM   27  O   UNL     1      37.216 -14.700  -3.253  1.00  0.00    -0.262 OA
BRANCH  25  28
HETATM   28  C   UNL     1      40.101 -12.527  -3.415  1.00  0.00     0.068 A 
HETATM   29  C   UNL     1      41.290 -13.275  -3.532  1.00  0.00     0.095 A 
HETATM   30  C   UNL     1      42.523 -12.690  -3.228  1.00  0.00     0.039 A 
HETATM   31  C   UNL     1      42.579 -11.357  -2.823  1.00  0.00     0.003 A 
HETATM   32  C   UNL     1      41.407 -10.613  -2.710  1.00  0.00     0.002 A 
HETATM   33  C   UNL     1      40.170 -11.196  -2.999  1.00  0.00     0.032 A 
BRANCH  29  34
HETATM   34  O   UNL     1      41.154 -14.587  -3.926  1.00  0.00    -0.354 OA
HETATM   35  C   UNL     1      41.442 -15.539  -2.904  1.00  0.00     0.210 C 
ENDBRANCH  29  34
ENDBRANCH  25  28
ENDBRANCH  21  24
ENDBRANCH   1  20
TORSDOF 7
ENDMDL
MODEL 6
REMARK VINA RESULT:      -9.1      2.400      3.354
REMARK  7 active torsions:
REMARK  status: ('A' for Active; 'I' for Inactive)
REMARK    1  A    between atoms: C_2  and  N_3 
REMARK    2  A    between atoms: N_3  and  N_4 
REMARK       I    between atoms: N_4  and  C_5 
REMARK    3  A    between atoms: C_5  and  C_6 
REMARK       I    between atoms: C_6  and  N_7 
REMARK    4  A    between atoms: N_7  and  C_8 
REMARK    5  A    between atoms: C_9  and  O_10 
REMARK    6  A    between atoms: C_18  and  C_19 
REMARK       I    between atoms: C_19  and  N_20 
REMARK    7  A    between atoms: N_20  and  C_21 
ROOT
HETATM    1  N   UNL     1      40.592 -12.558   6.592  1.00  0.00    -0.302 N 
HETATM    2  H   UNL     1      39.565 -12.581   6.553  1.00  0.00     0.186 HD
ENDROOT
BRANCH   1   3
HETATM    3  C   UNL     1      41.244 -13.088   5.490  1.00  0.00     0.027 C 
HETATM    4  C   UNL     1      40.453 -13.017   4.201  1.00  0.00     0.070 C 
HETATM    5  C   UNL     1      42.471 -13.645   5.558  1.00  0.00     0.100 C 
BRANCH   5   6
HETATM    6  C   UNL     1      43.137 -14.356   4.426  1.00  0.00     0.247 C 
HETATM    7  N   UNL     1      42.682 -15.655   4.305  1.00  0.00    -0.323 N 
HETATM    8  H   UNL     1      42.013 -15.958   4.995  1.00  0.00     0.169 HD
HETATM    9  O   UNL     1      43.959 -13.786   3.722  1.00  0.00    -0.268 OA
BRANCH   7  10
HETATM   10  C   UNL     1      43.082 -16.629   3.354  1.00  0.00     0.041 A 
HETATM   11  C   UNL     1      43.594 -17.872   3.810  1.00  0.00    -0.025 A 
HETATM   12  C   UNL     1      44.068 -18.818   2.868  1.00  0.00    -0.050 A 
HETATM   13  C   UNL     1      43.691 -18.184   5.292  1.00  0.00     0.041 C 
HETATM   14  C   UNL     1      44.644 -20.152   3.282  1.00  0.00     0.039 C 
HETATM   15  C   UNL     1      43.967 -18.549   1.496  1.00  0.00     0.008 A 
HETATM   16  C   UNL     1      45.084 -20.190   4.739  1.00  0.00     0.005 C 
HETATM   17  C   UNL     1      43.971 -19.649   5.622  1.00  0.00     0.005 C 
HETATM   18  C   UNL     1      43.432 -17.346   1.054  1.00  0.00     0.003 A 
HETATM   19  C   UNL     1      43.000 -16.395   1.976  1.00  0.00     0.030 A 
ENDBRANCH   7  10
ENDBRANCH   5   6
ENDBRANCH   1   3
BRANCH   1  20
HETATM   20  N   UNL     1      41.092 -11.503   7.367  1.00  0.00    -0.262 N 
HETATM   21  C   UNL     1      40.232 -11.020   8.348  1.00  0.00     0.328 C 
HETATM   22  O   UNL     1      39.195 -11.561   8.706  1.00  0.00    -0.261 OA
HETATM   23  H   UNL     1      41.664 -10.810   6.888  1.00  0.00     0.190 HD
BRANCH  21  24
HETATM   24  C   UNL     1      40.645  -9.645   8.876  1.00  0.00     0.315 C 
HETATM   25  N   UNL     1      41.544  -9.546   9.908  1.00  0.00    -0.316 N 
HETATM   26  H   UNL     1      41.485  -8.677  10.431  1.00  0.00     0.169 HD
HETATM   27  O   UNL     1      40.084  -8.660   8.396  1.00  0.00    -0.262 OA
BRANCH  25  28
HETATM   28  C   UNL     1      42.506 -10.455  10.391  1.00  0.00     0.068 A 
HETATM   29  C   UNL     1      42.271 -11.025  11.659  1.00  0.00     0.095 A 
HETATM   30  C   UNL     1      43.219 -11.875  12.236  1.00  0.00     0.039 A 
HETATM   31  C   UNL     1      44.394 -12.175  11.548  1.00  0.00     0.003 A 
HETATM   32  C   UNL     1      44.629 -11.619  10.293  1.00  0.00     0.002 A 
HETATM   33  C   UNL     1      43.691 -10.756   9.717  1.00  0.00     0.032 A 
BRANCH  29  34
HETATM   34  O   UNL     1      41.095 -10.674  12.282  1.00  0.00    -0.354 OA
HETATM   35  C   UNL     1      40.254 -11.776  12.614  1.00  0.00     0.210 C 
ENDBRANCH  29  34
ENDBRANCH  25  28
ENDBRANCH  21  24
ENDBRANCH   1  20
TORSDOF 7
ENDMDL
MODEL 7
REMARK VINA RESULT:      -9.1      4.689      7.193
REMARK  7 active torsions:
REMARK  status: ('A' for Active; 'I' for Inactive)
REMARK    1  A    between atoms: C_2  and  N_3 
REMARK    2  A    between atoms: N_3  and  N_4 
REMARK       I    between atoms: N_4  and  C_5 
REMARK    3  A    between atoms: C_5  and  C_6 
REMARK       I    between atoms: C_6  and  N_7 
REMARK    4  A    between atoms: N_7  and  C_8 
REMARK    5  A    between atoms: C_9  and  O_10 
REMARK    6  A    between atoms: C_18  and  C_19 
REMARK       I    between atoms: C_19  and  N_20 
REMARK    7  A    between atoms: N_20  and  C_21 
ROOT
HETATM    1  N   UNL     1      41.978 -14.253   6.209  1.00  0.00    -0.302 N 
HETATM    2  H   UNL     1      41.309 -14.449   6.964  1.00  0.00     0.186 HD
ENDROOT
BRANCH   1   3
HETATM    3  C   UNL     1      42.863 -15.278   5.913  1.00  0.00     0.027 C 
HETATM    4  C   UNL     1      43.236 -15.379   4.449  1.00  0.00     0.070 C 
HETATM    5  C   UNL     1      43.336 -16.134   6.842  1.00  0.00     0.100 C 
BRANCH   5   6
HETATM    6  C   UNL     1      44.170 -17.334   6.535  1.00  0.00     0.247 C 
HETATM    7  N   UNL     1      43.397 -18.383   6.074  1.00  0.00    -0.323 N 
HETATM    8  H   UNL     1      42.402 -18.223   6.042  1.00  0.00     0.169 HD
HETATM    9  O   UNL     1      45.384 -17.310   6.678  1.00  0.00    -0.268 OA
BRANCH   7  10
HETATM   10  C   UNL     1      43.833 -19.676   5.685  1.00  0.00     0.041 A 
HETATM   11  C   UNL     1      43.970 -19.974   4.304  1.00  0.00    -0.025 A 
HETATM   12  C   UNL     1      44.327 -21.286   3.907  1.00  0.00    -0.050 A 
HETATM   13  C   UNL     1      43.688 -18.925   3.243  1.00  0.00     0.041 C 
HETATM   14  C   UNL     1      44.471 -21.680   2.455  1.00  0.00     0.039 C 
HETATM   15  C   UNL     1      44.608 -22.258   4.877  1.00  0.00     0.008 A 
HETATM   16  C   UNL     1      43.773 -20.720   1.500  1.00  0.00     0.005 C 
HETATM   17  C   UNL     1      44.162 -19.291   1.839  1.00  0.00     0.005 C 
HETATM   18  C   UNL     1      44.507 -21.952   6.227  1.00  0.00     0.003 A 
HETATM   19  C   UNL     1      44.117 -20.674   6.624  1.00  0.00     0.030 A 
ENDBRANCH   7  10
ENDBRANCH   5   6
ENDBRANCH   1   3
BRANCH   1  20
HETATM   20  N   UNL     1      41.493 -13.338   5.264  1.00  0.00    -0.262 N 
HETATM   21  C   UNL     1      40.152 -13.482   4.924  1.00  0.00     0.328 C 
HETATM   22  O   UNL     1      39.346 -14.187   5.516  1.00  0.00    -0.261 OA
HETATM   23  H   UNL     1      42.124 -13.077   4.509  1.00  0.00     0.190 HD
BRANCH  21  24
HETATM   24  C   UNL     1      39.785 -12.754   3.630  1.00  0.00     0.315 C 
HETATM   25  N   UNL     1      40.177 -13.265   2.418  1.00  0.00    -0.316 N 
HETATM   26  H   UNL     1      40.229 -12.577   1.673  1.00  0.00     0.169 HD
HETATM   27  O   UNL     1      39.207 -11.672   3.731  1.00  0.00    -0.262 OA
BRANCH  25  28
HETATM   28  C   UNL     1      40.554 -14.569   2.040  1.00  0.00     0.068 A 
HETATM   29  C   UNL     1      41.535 -14.687   1.034  1.00  0.00     0.095 A 
HETATM   30  C   UNL     1      41.903 -15.946   0.553  1.00  0.00     0.039 A 
HETATM   31  C   UNL     1      41.311 -17.093   1.082  1.00  0.00     0.003 A 
HETATM   32  C   UNL     1      40.345 -16.982   2.079  1.00  0.00     0.002 A 
HETATM   33  C   UNL     1      39.962 -15.724   2.554  1.00  0.00     0.032 A 
BRANCH  29  34
HETATM   34  O   UNL     1      42.066 -13.511   0.554  1.00  0.00    -0.354 OA
HETATM   35  C   UNL     1      41.872 -13.307  -0.844  1.00  0.00     0.210 C 
ENDBRANCH  29  34
ENDBRANCH  25  28
ENDBRANCH  21  24
ENDBRANCH   1  20
TORSDOF 7
ENDMDL
MODEL 8
REMARK VINA RESULT:      -9.1      6.633     10.134
REMARK  7 active torsions:
REMARK  status: ('A' for Active; 'I' for Inactive)
REMARK    1  A    between atoms: C_2  and  N_3 
REMARK    2  A    between atoms: N_3  and  N_4 
REMARK       I    between atoms: N_4  and  C_5 
REMARK    3  A    between atoms: C_5  and  C_6 
REMARK       I    between atoms: C_6  and  N_7 
REMARK    4  A    between atoms: N_7  and  C_8 
REMARK    5  A    between atoms: C_9  and  O_10 
REMARK    6  A    between atoms: C_18  and  C_19 
REMARK       I    between atoms: C_19  and  N_20 
REMARK    7  A    between atoms: N_20  and  C_21 
ROOT
HETATM    1  N   UNL     1      39.942 -14.680   0.153  1.00  0.00    -0.302 N 
HETATM    2  H   UNL     1      38.989 -14.800  -0.211  1.00  0.00     0.186 HD
ENDROOT
BRANCH   1   3
HETATM    3  C   UNL     1      40.217 -15.338   1.341  1.00  0.00     0.027 C 
HETATM    4  C   UNL     1      39.729 -14.619   2.581  1.00  0.00     0.070 C 
HETATM    5  C   UNL     1      40.884 -16.509   1.397  1.00  0.00     0.100 C 
BRANCH   5   6
HETATM    6  C   UNL     1      41.325 -17.168   2.663  1.00  0.00     0.247 C 
HETATM    7  N   UNL     1      42.671 -17.477   2.631  1.00  0.00    -0.323 N 
HETATM    8  H   UNL     1      43.157 -17.263   1.774  1.00  0.00     0.169 HD
HETATM    9  O   UNL     1      40.539 -17.357   3.580  1.00  0.00    -0.268 OA
BRANCH   7  10
HETATM   10  C   UNL     1      43.441 -18.106   3.644  1.00  0.00     0.041 A 
HETATM   11  C   UNL     1      43.871 -19.446   3.455  1.00  0.00    -0.025 A 
HETATM   12  C   UNL     1      44.572 -20.105   4.495  1.00  0.00    -0.050 A 
HETATM   13  C   UNL     1      43.546 -20.201   2.179  1.00  0.00     0.041 C 
HETATM   14  C   UNL     1      45.041 -21.536   4.371  1.00  0.00     0.039 C 
HETATM   15  C   UNL     1      44.894 -19.412   5.669  1.00  0.00     0.008 A 
HETATM   16  C   UNL     1      44.318 -22.313   3.280  1.00  0.00     0.005 C 
HETATM   17  C   UNL     1      44.319 -21.505   1.993  1.00  0.00     0.005 C 
HETATM   18  C   UNL     1      44.502 -18.091   5.835  1.00  0.00     0.003 A 
HETATM   19  C   UNL     1      43.778 -17.448   4.833  1.00  0.00     0.030 A 
ENDBRANCH   7  10
ENDBRANCH   5   6
ENDBRANCH   1   3
BRANCH   1  20
HETATM   20  N   UNL     1      40.892 -14.446  -0.852  1.00  0.00    -0.262 N 
HETATM   21  C   UNL     1      40.385 -13.970  -2.056  1.00  0.00     0.328 C 
HETATM   22  O   UNL     1      39.244 -13.563  -2.230  1.00  0.00    -0.261 OA
HETATM   23  H   UNL     1      41.666 -15.104  -0.917  1.00  0.00     0.190 HD
BRANCH  21  24
HETATM   24  C   UNL     1      41.371 -14.117  -3.216  1.00  0.00     0.315 C 
HETATM   25  N   UNL     1      42.066 -13.025  -3.671  1.00  0.00    -0.316 N 
HETATM   26  H   UNL     1      42.394 -13.109  -4.629  1.00  0.00     0.169 HD
HETATM   27  O   UNL     1      41.448 -15.218  -3.760  1.00  0.00    -0.262 OA
BRANCH  25  28
HETATM   28  C   UNL     1      42.369 -11.795  -3.053  1.00  0.00     0.068 A 
HETATM   29  C   UNL     1      42.012 -10.622  -3.748  1.00  0.00     0.095 A 
HETATM   30  C   UNL     1      42.351  -9.368  -3.234  1.00  0.00     0.039 A 
HETATM   31  C   UNL     1      43.030  -9.274  -2.019  1.00  0.00     0.003 A 
HETATM   32  C   UNL     1      43.381 -10.430  -1.326  1.00  0.00     0.002 A 
HETATM   33  C   UNL     1      43.058 -11.689  -1.843  1.00  0.00     0.032 A 
BRANCH  29  34
HETATM   34  O   UNL     1      41.354 -10.794  -4.945  1.00  0.00    -0.354 OA
HETATM   35  C   UNL     1      41.783  -9.915  -5.983  1.00  0.00     0.210 C 
ENDBRANCH  29  34
ENDBRANCH  25  28
ENDBRANCH  21  24
ENDBRANCH   1  20
TORSDOF 7
ENDMDL
MODEL 9
REMARK VINA RESULT:      -9.0      2.196      3.113
REMARK  7 active torsions:
REMARK  status: ('A' for Active; 'I' for Inactive)
REMARK    1  A    between atoms: C_2  and  N_3 
REMARK    2  A    between atoms: N_3  and  N_4 
REMARK       I    between atoms: N_4  and  C_5 
REMARK    3  A    between atoms: C_5  and  C_6 
REMARK       I    between atoms: C_6  and  N_7 
REMARK    4  A    between atoms: N_7  and  C_8 
REMARK    5  A    between atoms: C_9  and  O_10 
REMARK    6  A    between atoms: C_18  and  C_19 
REMARK       I    between atoms: C_19  and  N_20 
REMARK    7  A    between atoms: N_20  and  C_21 
ROOT
HETATM    1  N   UNL     1      40.071 -13.435   6.626  1.00  0.00    -0.302 N 
HETATM    2  H   UNL     1      39.085 -13.148   6.664  1.00  0.00     0.186 HD
ENDROOT
BRANCH   1   3
HETATM    3  C   UNL     1      40.360 -14.468   5.749  1.00  0.00     0.027 C 
HETATM    4  C   UNL     1      39.868 -14.243   4.335  1.00  0.00     0.070 C 
HETATM    5  C   UNL     1      41.003 -15.594   6.123  1.00  0.00     0.100 C 
BRANCH   5   6
HETATM    6  C   UNL     1      41.197 -16.784   5.243  1.00  0.00     0.247 C 
HETATM    7  N   UNL     1      42.370 -16.693   4.519  1.00  0.00    -0.323 N 
HETATM    8  H   UNL     1      42.906 -15.847   4.643  1.00  0.00     0.169 HD
HETATM    9  O   UNL     1      40.387 -17.700   5.234  1.00  0.00    -0.268 OA
BRANCH   7  10
HETATM   10  C   UNL     1      42.889 -17.626   3.584  1.00  0.00     0.041 A 
HETATM   11  C   UNL     1      43.507 -18.812   4.060  1.00  0.00    -0.025 A 
HETATM   12  C   UNL     1      44.096 -19.709   3.136  1.00  0.00    -0.050 A 
HETATM   13  C   UNL     1      43.594 -19.108   5.546  1.00  0.00     0.041 C 
HETATM   14  C   UNL     1      44.789 -20.979   3.572  1.00  0.00     0.039 C 
HETATM   15  C   UNL     1      44.006 -19.455   1.760  1.00  0.00     0.008 A 
HETATM   16  C   UNL     1      45.191 -20.970   5.040  1.00  0.00     0.005 C 
HETATM   17  C   UNL     1      44.007 -20.538   5.890  1.00  0.00     0.005 C 
HETATM   18  C   UNL     1      43.369 -18.312   1.298  1.00  0.00     0.003 A 
HETATM   19  C   UNL     1      42.821 -17.405   2.203  1.00  0.00     0.030 A 
ENDBRANCH   7  10
ENDBRANCH   5   6
ENDBRANCH   1   3
BRANCH   1  20
HETATM   20  N   UNL     1      40.961 -12.397   6.937  1.00  0.00    -0.262 N 
HETATM   21  C   UNL     1      40.377 -11.233   7.425  1.00  0.00     0.328 C 
HETATM   22  O   UNL     1      39.212 -11.124   7.783  1.00  0.00    -0.261 OA
HETATM   23  H   UNL     1      41.761 -12.276   6.319  1.00  0.00     0.190 HD
BRANCH  21  24
HETATM   24  C   UNL     1      41.315 -10.026   7.362  1.00  0.00     0.315 C 
HETATM   25  N   UNL     1      41.830  -9.494   8.517  1.00  0.00    -0.316 N 
HETATM   26  H   UNL     1      42.117  -8.523   8.436  1.00  0.00     0.169 HD
HETATM   27  O   UNL     1      41.514  -9.519   6.258  1.00  0.00    -0.262 OA
BRANCH  25  28
HETATM   28  C   UNL     1      41.993 -10.049   9.802  1.00  0.00     0.068 A 
HETATM   29  C   UNL     1      43.161 -10.804  10.031  1.00  0.00     0.095 A 
HETATM   30  C   UNL     1      43.354 -11.449  11.256  1.00  0.00     0.039 A 
HETATM   31  C   UNL     1      42.395 -11.332  12.262  1.00  0.00     0.003 A 
HETATM   32  C   UNL     1      41.242 -10.583  12.042  1.00  0.00     0.002 A 
HETATM   33  C   UNL     1      41.036  -9.947  10.814  1.00  0.00     0.032 A 
BRANCH  29  34
HETATM   34  O   UNL     1      44.056 -10.884   8.988  1.00  0.00    -0.354 OA
HETATM   35  C   UNL     1      44.533 -12.201   8.723  1.00  0.00     0.210 C 
ENDBRANCH  29  34
ENDBRANCH  25  28
ENDBRANCH  21  24
ENDBRANCH   1  20
TORSDOF 7
ENDMDL
MODEL 10
REMARK VINA RESULT:      -8.9      1.773     10.788
REMARK  7 active torsions:
REMARK  status: ('A' for Active; 'I' for Inactive)
REMARK    1  A    between atoms: C_2  and  N_3 
REMARK    2  A    between atoms: N_3  and  N_4 
REMARK       I    between atoms: N_4  and  C_5 
REMARK    3  A    between atoms: C_5  and  C_6 
REMARK       I    between atoms: C_6  and  N_7 
REMARK    4  A    between atoms: N_7  and  C_8 
REMARK    5  A    between atoms: C_9  and  O_10 
REMARK    6  A    between atoms: C_18  and  C_19 
REMARK       I    between atoms: C_19  and  N_20 
REMARK    7  A    between atoms: N_20  and  C_21 
ROOT
HETATM    1  N   UNL     1      44.626 -14.565   6.791  1.00  0.00    -0.302 N 
HETATM    2  H   UNL     1      45.203 -14.444   5.950  1.00  0.00     0.186 HD
ENDROOT
BRANCH   1   3
HETATM    3  C   UNL     1      44.349 -13.405   7.498  1.00  0.00     0.027 C 
HETATM    4  C   UNL     1      43.194 -12.598   6.945  1.00  0.00     0.070 C 
HETATM    5  C   UNL     1      45.060 -13.010   8.574  1.00  0.00     0.100 C 
BRANCH   5   6
HETATM    6  C   UNL     1      44.884 -11.699   9.265  1.00  0.00     0.247 C 
HETATM    7  N   UNL     1      43.850 -11.743  10.180  1.00  0.00    -0.323 N 
HETATM    8  H   UNL     1      43.340 -12.611  10.234  1.00  0.00     0.169 HD
HETATM    9  O   UNL     1      45.617 -10.753   9.016  1.00  0.00    -0.268 OA
BRANCH   7  10
HETATM   10  C   UNL     1      43.388 -10.696  11.020  1.00  0.00     0.041 A 
HETATM   11  C   UNL     1      42.416  -9.788  10.523  1.00  0.00    -0.025 A 
HETATM   12  C   UNL     1      42.010  -8.695  11.327  1.00  0.00    -0.050 A 
HETATM   13  C   UNL     1      41.845  -9.939   9.125  1.00  0.00     0.041 C 
HETATM   14  C   UNL     1      40.996  -7.679  10.855  1.00  0.00     0.039 C 
HETATM   15  C   UNL     1      42.517  -8.556  12.626  1.00  0.00     0.008 A 
HETATM   16  C   UNL     1      40.816  -7.667   9.343  1.00  0.00     0.005 C 
HETATM   17  C   UNL     1      40.609  -9.087   8.843  1.00  0.00     0.005 C 
HETATM   18  C   UNL     1      43.440  -9.466  13.120  1.00  0.00     0.003 A 
HETATM   19  C   UNL     1      43.875 -10.522  12.321  1.00  0.00     0.030 A 
ENDBRANCH   7  10
ENDBRANCH   5   6
ENDBRANCH   1   3
BRANCH   1  20
HETATM   20  N   UNL     1      43.758 -15.663   6.714  1.00  0.00    -0.262 N 
HETATM   21  C   UNL     1      43.119 -15.836   5.491  1.00  0.00     0.328 C 
HETATM   22  O   UNL     1      43.403 -15.246   4.456  1.00  0.00    -0.261 OA
HETATM   23  H   UNL     1      43.209 -15.876   7.544  1.00  0.00     0.190 HD
BRANCH  21  24
HETATM   24  C   UNL     1      41.910 -16.769   5.578  1.00  0.00     0.315 C 
HETATM   25  N   UNL     1      41.851 -17.893   4.794  1.00  0.00    -0.316 N 
HETATM   26  H   UNL     1      40.909 -18.239   4.632  1.00  0.00     0.169 HD
HETATM   27  O   UNL     1      40.981 -16.427   6.309  1.00  0.00    -0.262 OA
BRANCH  25  28
HETATM   28  C   UNL     1      42.864 -18.626   4.144  1.00  0.00     0.068 A 
HETATM   29  C   UNL     1      42.858 -18.618   2.734  1.00  0.00     0.095 A 
HETATM   30  C   UNL     1      43.785 -19.385   2.022  1.00  0.00     0.039 A 
HETATM   31  C   UNL     1      44.730 -20.147   2.707  1.00  0.00     0.003 A 
HETATM   32  C   UNL     1      44.743 -20.154   4.100  1.00  0.00     0.002 A 
HETATM   33  C   UNL     1      43.809 -19.401   4.818  1.00  0.00     0.032 A 
BRANCH  29  34
HETATM   34  O   UNL     1      41.889 -17.852   2.128  1.00  0.00    -0.354 OA
HETATM   35  C   UNL     1      42.328 -17.168   0.957  1.00  0.00     0.210 C 
ENDBRANCH  29  34
ENDBRANCH  25  28
ENDBRANCH  21  24
ENDBRANCH   1  20
TORSDOF 7
ENDMDL
