MODEL 1
REMARK VINA RESULT:      -7.2      0.000      0.000
REMARK  3 active torsions:
REMARK  status: ('A' for Active; 'I' for Inactive)
REMARK    1  A    between atoms: C_2  and  C_3 
REMARK    2  A    between atoms: C_3  and  C_4 
REMARK    3  A    between atoms: C_24  and  N_25 
ROOT
HETATM    1  C   UNL     1      41.726 -16.270   5.745  1.00  0.00     0.067 A 
HETATM    2  N   UNL     1      40.751 -16.366   6.665  1.00  0.00    -0.177 NA
HETATM    3  N   UNL     1      39.788 -15.533   6.228  1.00  0.00    -0.256 N 
HETATM    4  H   UNL     1      38.945 -15.424   6.782  1.00  0.00     0.191 HD
HETATM    5  C   UNL     1      40.124 -14.904   5.076  1.00  0.00     0.176 A 
HETATM    6  C   UNL     1      41.360 -15.374   4.706  1.00  0.00     0.049 A 
HETATM    7  C   UNL     1      42.002 -14.836   3.473  1.00  0.00     0.144 A 
HETATM    8  C   UNL     1      43.436 -14.316   3.766  1.00  0.00     0.246 A 
HETATM    9  O   UNL     1      43.762 -13.385   4.484  1.00  0.00    -0.271 OA
HETATM   10  N   UNL     1      44.315 -15.104   3.030  1.00  0.00    -0.325 N 
HETATM   11  C   UNL     1      43.644 -16.083   2.313  1.00  0.00     0.043 A 
HETATM   12  C   UNL     1      42.260 -16.001   2.534  1.00  0.00     0.003 A 
HETATM   13  C   UNL     1      44.223 -17.030   1.494  1.00  0.00     0.030 A 
HETATM   14  C   UNL     1      43.374 -17.937   0.868  1.00  0.00     0.003 A 
HETATM   15  C   UNL     1      41.984 -17.875   1.070  1.00  0.00     0.007 A 
HETATM   16  C   UNL     1      41.401 -16.900   1.899  1.00  0.00    -0.051 A 
HETATM   17  C   UNL     1      39.912 -16.881   2.084  1.00  0.00     0.049 C 
HETATM   18  C   UNL     1      41.167 -13.711   2.871  1.00  0.00     0.081 A 
HETATM   19  C   UNL     1      41.786 -12.922   1.728  1.00  0.00     0.021 C 
HETATM   20  N   UNL     1      42.298 -12.267   0.781  1.00  0.00    -0.096 N 
HETATM   21  C   UNL     1      39.955 -13.341   3.363  1.00  0.00     0.140 A 
HETATM   22  O   UNL     1      39.378 -13.986   4.473  1.00  0.00    -0.279 OA
HETATM   23  H   UNL     1      45.315 -14.957   3.034  1.00  0.00     0.169 HD
ENDROOT
BRANCH  21  24
HETATM   24  N   UNL     1      39.169 -12.323   2.873  1.00  0.00    -0.282 NA
HETATM   25  H   UNL     1      39.236 -11.437   3.369  1.00  0.00     0.126 HD
HETATM   26  H   UNL     1      38.206 -12.620   2.737  1.00  0.00     0.126 HD
ENDBRANCH  21  24
BRANCH   1  27
HETATM   27  C   UNL     1      43.020 -17.003   5.931  1.00  0.00     0.061 C 
BRANCH  27  28
HETATM   28  C   UNL     1      43.055 -18.401   5.306  1.00  0.00     0.002 C 
HETATM   29  C   UNL     1      44.450 -18.746   4.807  1.00  0.00     0.005 C 
ENDBRANCH  27  28
ENDBRANCH   1  27
TORSDOF 3
ENDMDL
MODEL 2
REMARK VINA RESULT:      -7.1      2.273      4.248
REMARK  3 active torsions:
REMARK  status: ('A' for Active; 'I' for Inactive)
REMARK    1  A    between atoms: C_2  and  C_3 
REMARK    2  A    between atoms: C_3  and  C_4 
REMARK    3  A    between atoms: C_24  and  N_25 
ROOT
HETATM    1  C   UNL     1      42.734 -18.215   3.822  1.00  0.00     0.067 A 
HETATM    2  N   UNL     1      42.733 -18.800   2.611  1.00  0.00    -0.177 NA
HETATM    3  N   UNL     1      41.958 -18.006   1.850  1.00  0.00    -0.256 N 
HETATM    4  H   UNL     1      41.793 -18.263   0.883  1.00  0.00     0.191 HD
HETATM    5  C   UNL     1      41.458 -16.951   2.537  1.00  0.00     0.176 A 
HETATM    6  C   UNL     1      41.960 -17.025   3.813  1.00  0.00     0.049 A 
HETATM    7  C   UNL     1      41.557 -15.996   4.813  1.00  0.00     0.144 A 
HETATM    8  C   UNL     1      41.001 -16.654   6.106  1.00  0.00     0.246 A 
HETATM    9  O   UNL     1      39.995 -17.335   6.226  1.00  0.00    -0.271 OA
HETATM   10  N   UNL     1      41.860 -16.308   7.143  1.00  0.00    -0.325 N 
HETATM   11  C   UNL     1      42.916 -15.529   6.693  1.00  0.00     0.043 A 
HETATM   12  C   UNL     1      42.817 -15.308   5.309  1.00  0.00     0.003 A 
HETATM   13  C   UNL     1      43.943 -15.030   7.465  1.00  0.00     0.030 A 
HETATM   14  C   UNL     1      44.918 -14.275   6.819  1.00  0.00     0.003 A 
HETATM   15  C   UNL     1      44.841 -14.037   5.435  1.00  0.00     0.007 A 
HETATM   16  C   UNL     1      43.784 -14.542   4.657  1.00  0.00    -0.051 A 
HETATM   17  C   UNL     1      43.752 -14.262   3.183  1.00  0.00     0.049 C 
HETATM   18  C   UNL     1      40.509 -15.053   4.232  1.00  0.00     0.081 A 
HETATM   19  C   UNL     1      39.847 -14.076   5.190  1.00  0.00     0.021 C 
HETATM   20  N   UNL     1      39.297 -13.265   5.983  1.00  0.00    -0.096 N 
HETATM   21  C   UNL     1      40.093 -15.112   2.939  1.00  0.00     0.140 A 
HETATM   22  O   UNL     1      40.615 -16.056   2.035  1.00  0.00    -0.279 OA
HETATM   23  H   UNL     1      41.709 -16.599   8.098  1.00  0.00     0.169 HD
ENDROOT
BRANCH  21  24
HETATM   24  N   UNL     1      39.138 -14.302   2.368  1.00  0.00    -0.282 NA
HETATM   25  H   UNL     1      38.756 -13.577   2.972  1.00  0.00     0.126 HD
HETATM   26  H   UNL     1      38.412 -14.842   1.903  1.00  0.00     0.126 HD
ENDBRANCH  21  24
BRANCH   1  27
HETATM   27  C   UNL     1      43.436 -18.863   4.977  1.00  0.00     0.061 C 
BRANCH  27  28
HETATM   28  C   UNL     1      44.894 -18.430   5.159  1.00  0.00     0.002 C 
HETATM   29  C   UNL     1      45.227 -18.216   6.628  1.00  0.00     0.005 C 
ENDBRANCH  27  28
ENDBRANCH   1  27
TORSDOF 3
ENDMDL
MODEL 3
REMARK VINA RESULT:      -6.9      2.522      5.297
REMARK  3 active torsions:
REMARK  status: ('A' for Active; 'I' for Inactive)
REMARK    1  A    between atoms: C_2  and  C_3 
REMARK    2  A    between atoms: C_3  and  C_4 
REMARK    3  A    between atoms: C_24  and  N_25 
ROOT
HETATM    1  C   UNL     1      41.870 -16.244   2.440  1.00  0.00     0.067 A 
HETATM    2  N   UNL     1      41.882 -17.501   1.965  1.00  0.00    -0.177 NA
HETATM    3  N   UNL     1      42.541 -18.211   2.899  1.00  0.00    -0.256 N 
HETATM    4  H   UNL     1      42.692 -19.203   2.745  1.00  0.00     0.191 HD
HETATM    5  C   UNL     1      42.958 -17.449   3.938  1.00  0.00     0.176 A 
HETATM    6  C   UNL     1      42.518 -16.170   3.701  1.00  0.00     0.049 A 
HETATM    7  C   UNL     1      42.853 -15.094   4.677  1.00  0.00     0.144 A 
HETATM    8  C   UNL     1      43.524 -13.883   3.973  1.00  0.00     0.246 A 
HETATM    9  O   UNL     1      44.599 -13.856   3.394  1.00  0.00    -0.271 OA
HETATM   10  N   UNL     1      42.677 -12.793   4.135  1.00  0.00    -0.325 N 
HETATM   11  C   UNL     1      41.530 -13.139   4.835  1.00  0.00     0.043 A 
HETATM   12  C   UNL     1      41.550 -14.499   5.183  1.00  0.00     0.003 A 
HETATM   13  C   UNL     1      40.488 -12.294   5.154  1.00  0.00     0.030 A 
HETATM   14  C   UNL     1      39.416 -12.838   5.855  1.00  0.00     0.003 A 
HETATM   15  C   UNL     1      39.413 -14.197   6.218  1.00  0.00     0.007 A 
HETATM   16  C   UNL     1      40.484 -15.050   5.896  1.00  0.00    -0.051 A 
HETATM   17  C   UNL     1      40.428 -16.492   6.303  1.00  0.00     0.049 C 
HETATM   18  C   UNL     1      43.775 -15.620   5.772  1.00  0.00     0.081 A 
HETATM   19  C   UNL     1      44.371 -14.599   6.728  1.00  0.00     0.021 C 
HETATM   20  N   UNL     1      44.866 -13.753   7.521  1.00  0.00    -0.096 N 
HETATM   21  C   UNL     1      44.142 -16.926   5.869  1.00  0.00     0.140 A 
HETATM   22  O   UNL     1      43.683 -17.893   4.957  1.00  0.00    -0.279 OA
HETATM   23  H   UNL     1      42.895 -11.873   3.780  1.00  0.00     0.169 HD
ENDROOT
BRANCH  21  24
HETATM   24  N   UNL     1      44.985 -17.451   6.822  1.00  0.00    -0.282 NA
HETATM   25  H   UNL     1      45.825 -17.901   6.467  1.00  0.00     0.126 HD
HETATM   26  H   UNL     1      44.485 -18.033   7.490  1.00  0.00     0.126 HD
ENDBRANCH  21  24
BRANCH   1  27
HETATM   27  C   UNL     1      41.285 -15.130   1.625  1.00  0.00     0.061 C 
BRANCH  27  28
HETATM   28  C   UNL     1      39.806 -14.847   1.904  1.00  0.00     0.002 C 
HETATM   29  C   UNL     1      39.490 -13.366   1.750  1.00  0.00     0.005 C 
ENDBRANCH  27  28
ENDBRANCH   1  27
TORSDOF 3
ENDMDL
MODEL 4
REMARK VINA RESULT:      -6.7      2.174      4.534
REMARK  3 active torsions:
REMARK  status: ('A' for Active; 'I' for Inactive)
REMARK    1  A    between atoms: C_2  and  C_3 
REMARK    2  A    between atoms: C_3  and  C_4 
REMARK    3  A    between atoms: C_24  and  N_25 
ROOT
HETATM    1  C   UNL     1      40.382 -14.177   3.917  1.00  0.00     0.067 A 
HETATM    2  N   UNL     1      40.176 -12.851   3.997  1.00  0.00    -0.177 NA
HETATM    3  N   UNL     1      41.117 -12.411   4.852  1.00  0.00    -0.256 N 
HETATM    4  H   UNL     1      41.146 -11.424   5.085  1.00  0.00     0.191 HD
HETATM    5  C   UNL     1      41.901 -13.410   5.325  1.00  0.00     0.176 A 
HETATM    6  C   UNL     1      41.482 -14.571   4.723  1.00  0.00     0.049 A 
HETATM    7  C   UNL     1      42.154 -15.854   5.074  1.00  0.00     0.144 A 
HETATM    8  C   UNL     1      41.120 -16.930   5.508  1.00  0.00     0.246 A 
HETATM    9  O   UNL     1      40.385 -16.912   6.482  1.00  0.00    -0.271 OA
HETATM   10  N   UNL     1      41.191 -17.964   4.580  1.00  0.00    -0.325 N 
HETATM   11  C   UNL     1      42.120 -17.693   3.585  1.00  0.00     0.043 A 
HETATM   12  C   UNL     1      42.729 -16.446   3.799  1.00  0.00     0.003 A 
HETATM   13  C   UNL     1      42.423 -18.507   2.514  1.00  0.00     0.030 A 
HETATM   14  C   UNL     1      43.381 -18.049   1.615  1.00  0.00     0.003 A 
HETATM   15  C   UNL     1      44.008 -16.805   1.808  1.00  0.00     0.007 A 
HETATM   16  C   UNL     1      43.700 -15.985   2.908  1.00  0.00    -0.051 A 
HETATM   17  C   UNL     1      44.394 -14.665   3.064  1.00  0.00     0.049 C 
HETATM   18  C   UNL     1      43.171 -15.649   6.191  1.00  0.00     0.081 A 
HETATM   19  C   UNL     1      43.793 -16.894   6.803  1.00  0.00     0.021 C 
HETATM   20  N   UNL     1      44.308 -17.926   7.311  1.00  0.00    -0.096 N 
HETATM   21  C   UNL     1      43.472 -14.426   6.705  1.00  0.00     0.140 A 
HETATM   22  O   UNL     1      42.860 -13.252   6.230  1.00  0.00    -0.279 OA
HETATM   23  H   UNL     1      40.627 -18.799   4.647  1.00  0.00     0.169 HD
ENDROOT
BRANCH  21  24
HETATM   24  N   UNL     1      44.365 -14.185   7.725  1.00  0.00    -0.282 NA
HETATM   25  H   UNL     1      44.277 -14.788   8.539  1.00  0.00     0.126 HD
HETATM   26  H   UNL     1      44.397 -13.199   7.973  1.00  0.00     0.126 HD
ENDBRANCH  21  24
BRANCH   1  27
HETATM   27  C   UNL     1      39.462 -15.041   3.108  1.00  0.00     0.061 C 
BRANCH  27  28
HETATM   28  C   UNL     1      39.443 -14.723   1.610  1.00  0.00     0.002 C 
HETATM   29  C   UNL     1      40.672 -15.286   0.912  1.00  0.00     0.005 C 
ENDBRANCH  27  28
ENDBRANCH   1  27
TORSDOF 3
ENDMDL
MODEL 5
REMARK VINA RESULT:      -6.4      1.712      3.142
REMARK  3 active torsions:
REMARK  status: ('A' for Active; 'I' for Inactive)
REMARK    1  A    between atoms: C_2  and  C_3 
REMARK    2  A    between atoms: C_3  and  C_4 
REMARK    3  A    between atoms: C_24  and  N_25 
ROOT
HETATM    1  C   UNL     1      42.304 -16.596   3.492  1.00  0.00     0.067 A 
HETATM    2  N   UNL     1      41.996 -17.701   4.193  1.00  0.00    -0.177 NA
HETATM    3  N   UNL     1      41.029 -17.308   5.042  1.00  0.00    -0.256 N 
HETATM    4  H   UNL     1      40.646 -17.982   5.696  1.00  0.00     0.191 HD
HETATM    5  C   UNL     1      40.723 -15.994   4.913  1.00  0.00     0.176 A 
HETATM    6  C   UNL     1      41.502 -15.497   3.897  1.00  0.00     0.049 A 
HETATM    7  C   UNL     1      41.397 -14.053   3.543  1.00  0.00     0.144 A 
HETATM    8  C   UNL     1      42.792 -13.369   3.549  1.00  0.00     0.246 A 
HETATM    9  O   UNL     1      43.539 -13.203   4.500  1.00  0.00    -0.271 OA
HETATM   10  N   UNL     1      43.046 -12.944   2.249  1.00  0.00    -0.325 N 
HETATM   11  C   UNL     1      42.009 -13.280   1.391  1.00  0.00     0.043 A 
HETATM   12  C   UNL     1      40.991 -13.958   2.082  1.00  0.00     0.003 A 
HETATM   13  C   UNL     1      41.955 -13.013   0.040  1.00  0.00     0.030 A 
HETATM   14  C   UNL     1      40.827 -13.445  -0.652  1.00  0.00     0.003 A 
HETATM   15  C   UNL     1      39.792 -14.123   0.017  1.00  0.00     0.007 A 
HETATM   16  C   UNL     1      39.851 -14.384   1.398  1.00  0.00    -0.051 A 
HETATM   17  C   UNL     1      38.722 -15.115   2.061  1.00  0.00     0.049 C 
HETATM   18  C   UNL     1      40.469 -13.321   4.506  1.00  0.00     0.081 A 
HETATM   19  C   UNL     1      40.416 -11.805   4.404  1.00  0.00     0.021 C 
HETATM   20  N   UNL     1      40.372 -10.548   4.320  1.00  0.00    -0.096 N 
HETATM   21  C   UNL     1      39.768 -13.953   5.485  1.00  0.00     0.140 A 
HETATM   22  O   UNL     1      39.850 -15.345   5.673  1.00  0.00    -0.279 OA
HETATM   23  H   UNL     1      43.888 -12.450   1.990  1.00  0.00     0.169 HD
ENDROOT
BRANCH  21  24
HETATM   24  N   UNL     1      38.933 -13.342   6.393  1.00  0.00    -0.282 NA
HETATM   25  H   UNL     1      39.343 -13.141   7.302  1.00  0.00     0.126 HD
HETATM   26  H   UNL     1      38.039 -13.823   6.468  1.00  0.00     0.126 HD
ENDBRANCH  21  24
BRANCH   1  27
HETATM   27  C   UNL     1      43.416 -16.619   2.487  1.00  0.00     0.061 C 
BRANCH  27  28
HETATM   28  C   UNL     1      43.161 -17.521   1.276  1.00  0.00     0.002 C 
HETATM   29  C   UNL     1      41.842 -17.177   0.601  1.00  0.00     0.005 C 
ENDBRANCH  27  28
ENDBRANCH   1  27
TORSDOF 3
ENDMDL
MODEL 6
REMARK VINA RESULT:      -6.3      2.782      4.133
REMARK  3 active torsions:
REMARK  status: ('A' for Active; 'I' for Inactive)
REMARK    1  A    between atoms: C_2  and  C_3 
REMARK    2  A    between atoms: C_3  and  C_4 
REMARK    3  A    between atoms: C_24  and  N_25 
ROOT
HETATM    1  C   UNL     1      41.056 -15.727   1.847  1.00  0.00     0.067 A 
HETATM    2  N   UNL     1      40.830 -16.524   2.905  1.00  0.00    -0.177 NA
HETATM    3  N   UNL     1      40.130 -15.761   3.764  1.00  0.00    -0.256 N 
HETATM    4  H   UNL     1      39.857 -16.153   4.659  1.00  0.00     0.191 HD
HETATM    5  C   UNL     1      39.917 -14.507   3.294  1.00  0.00     0.176 A 
HETATM    6  C   UNL     1      40.471 -14.447   2.040  1.00  0.00     0.049 A 
HETATM    7  C   UNL     1      40.411 -13.166   1.280  1.00  0.00     0.144 A 
HETATM    8  C   UNL     1      41.821 -12.733   0.793  1.00  0.00     0.246 A 
HETATM    9  O   UNL     1      42.784 -12.421   1.474  1.00  0.00    -0.271 OA
HETATM   10  N   UNL     1      41.794 -12.742  -0.598  1.00  0.00    -0.325 N 
HETATM   11  C   UNL     1      40.558 -13.144  -1.081  1.00  0.00     0.043 A 
HETATM   12  C   UNL     1      39.679 -13.431  -0.024  1.00  0.00     0.003 A 
HETATM   13  C   UNL     1      40.207 -13.268  -2.409  1.00  0.00     0.030 A 
HETATM   14  C   UNL     1      38.914 -13.699  -2.690  1.00  0.00     0.003 A 
HETATM   15  C   UNL     1      38.013 -13.990  -1.650  1.00  0.00     0.007 A 
HETATM   16  C   UNL     1      38.377 -13.852  -0.298  1.00  0.00    -0.051 A 
HETATM   17  C   UNL     1      37.379 -14.180   0.773  1.00  0.00     0.049 C 
HETATM   18  C   UNL     1      39.805 -12.056   2.132  1.00  0.00     0.081 A 
HETATM   19  C   UNL     1      39.861 -10.643   1.573  1.00  0.00     0.021 C 
HETATM   20  N   UNL     1      39.907  -9.471   1.112  1.00  0.00    -0.096 N 
HETATM   21  C   UNL     1      39.306 -12.266   3.379  1.00  0.00     0.140 A 
HETATM   22  O   UNL     1      39.309 -13.541   3.973  1.00  0.00    -0.279 OA
HETATM   23  H   UNL     1      42.590 -12.479  -1.161  1.00  0.00     0.169 HD
ENDROOT
BRANCH  21  24
HETATM   24  N   UNL     1      38.767 -11.300   4.198  1.00  0.00    -0.282 NA
HETATM   25  H   UNL     1      38.503 -10.431   3.740  1.00  0.00     0.126 HD
HETATM   26  H   UNL     1      39.338 -11.145   5.026  1.00  0.00     0.126 HD
ENDBRANCH  21  24
BRANCH   1  27
HETATM   27  C   UNL     1      41.891 -16.207   0.698  1.00  0.00     0.061 C 
BRANCH  27  28
HETATM   28  C   UNL     1      42.652 -17.509   0.966  1.00  0.00     0.002 C 
HETATM   29  C   UNL     1      44.086 -17.232   1.390  1.00  0.00     0.005 C 
ENDBRANCH  27  28
ENDBRANCH   1  27
TORSDOF 3
ENDMDL
MODEL 7
REMARK VINA RESULT:      -6.3      3.160      4.517
REMARK  3 active torsions:
REMARK  status: ('A' for Active; 'I' for Inactive)
REMARK    1  A    between atoms: C_2  and  C_3 
REMARK    2  A    between atoms: C_3  and  C_4 
REMARK    3  A    between atoms: C_24  and  N_25 
ROOT
HETATM    1  C   UNL     1      40.996 -15.137   1.687  1.00  0.00     0.067 A 
HETATM    2  N   UNL     1      40.353 -16.234   2.123  1.00  0.00    -0.177 NA
HETATM    3  N   UNL     1      39.048 -15.952   1.955  1.00  0.00    -0.256 N 
HETATM    4  H   UNL     1      38.357 -16.640   2.238  1.00  0.00     0.191 HD
HETATM    5  C   UNL     1      38.842 -14.715   1.442  1.00  0.00     0.176 A 
HETATM    6  C   UNL     1      40.078 -14.159   1.221  1.00  0.00     0.049 A 
HETATM    7  C   UNL     1      40.164 -12.775   0.677  1.00  0.00     0.144 A 
HETATM    8  C   UNL     1      41.068 -11.876   1.565  1.00  0.00     0.246 A 
HETATM    9  O   UNL     1      40.879 -11.536   2.721  1.00  0.00    -0.271 OA
HETATM   10  N   UNL     1      42.156 -11.493   0.787  1.00  0.00    -0.325 N 
HETATM   11  C   UNL     1      42.092 -12.042  -0.485  1.00  0.00     0.043 A 
HETATM   12  C   UNL     1      40.940 -12.833  -0.628  1.00  0.00     0.003 A 
HETATM   13  C   UNL     1      43.017 -11.867  -1.492  1.00  0.00     0.030 A 
HETATM   14  C   UNL     1      42.776 -12.516  -2.700  1.00  0.00     0.003 A 
HETATM   15  C   UNL     1      41.629 -13.311  -2.870  1.00  0.00     0.007 A 
HETATM   16  C   UNL     1      40.685 -13.477  -1.841  1.00  0.00    -0.051 A 
HETATM   17  C   UNL     1      39.481 -14.340  -2.073  1.00  0.00     0.049 C 
HETATM   18  C   UNL     1      38.780 -12.147   0.562  1.00  0.00     0.081 A 
HETATM   19  C   UNL     1      38.714 -10.668   0.216  1.00  0.00     0.021 C 
HETATM   20  N   UNL     1      38.659  -9.441  -0.070  1.00  0.00    -0.096 N 
HETATM   21  C   UNL     1      37.633 -12.824   0.835  1.00  0.00     0.140 A 
HETATM   22  O   UNL     1      37.648 -14.171   1.241  1.00  0.00    -0.279 OA
HETATM   23  H   UNL     1      42.887 -10.886   1.131  1.00  0.00     0.169 HD
ENDROOT
BRANCH  21  24
HETATM   24  N   UNL     1      36.360 -12.303   0.768  1.00  0.00    -0.282 NA
HETATM   25  H   UNL     1      36.288 -11.368   0.374  1.00  0.00     0.126 HD
HETATM   26  H   UNL     1      35.869 -12.391   1.654  1.00  0.00     0.126 HD
ENDBRANCH  21  24
BRANCH   1  27
HETATM   27  C   UNL     1      42.488 -15.040   1.792  1.00  0.00     0.061 C 
BRANCH  27  28
HETATM   28  C   UNL     1      43.155 -16.227   2.493  1.00  0.00     0.002 C 
HETATM   29  C   UNL     1      43.883 -17.118   1.498  1.00  0.00     0.005 C 
ENDBRANCH  27  28
ENDBRANCH   1  27
TORSDOF 3
ENDMDL
MODEL 8
REMARK VINA RESULT:      -6.3      2.715      6.123
REMARK  3 active torsions:
REMARK  status: ('A' for Active; 'I' for Inactive)
REMARK    1  A    between atoms: C_2  and  C_3 
REMARK    2  A    between atoms: C_3  and  C_4 
REMARK    3  A    between atoms: C_24  and  N_25 
ROOT
HETATM    1  C   UNL     1      41.607 -13.505  -0.602  1.00  0.00     0.067 A 
HETATM    2  N   UNL     1      41.724 -14.384  -1.612  1.00  0.00    -0.177 NA
HETATM    3  N   UNL     1      41.381 -15.569  -1.073  1.00  0.00    -0.256 N 
HETATM    4  H   UNL     1      41.412 -16.400  -1.655  1.00  0.00     0.191 HD
HETATM    5  C   UNL     1      41.065 -15.473   0.241  1.00  0.00     0.176 A 
HETATM    6  C   UNL     1      41.166 -14.148   0.584  1.00  0.00     0.049 A 
HETATM    7  C   UNL     1      40.897 -13.740   1.992  1.00  0.00     0.144 A 
HETATM    8  C   UNL     1      42.074 -12.910   2.573  1.00  0.00     0.246 A 
HETATM    9  O   UNL     1      43.221 -13.276   2.774  1.00  0.00    -0.271 OA
HETATM   10  N   UNL     1      41.580 -11.640   2.855  1.00  0.00    -0.325 N 
HETATM   11  C   UNL     1      40.240 -11.528   2.515  1.00  0.00     0.043 A 
HETATM   12  C   UNL     1      39.760 -12.734   1.979  1.00  0.00     0.003 A 
HETATM   13  C   UNL     1      39.458 -10.401   2.658  1.00  0.00     0.030 A 
HETATM   14  C   UNL     1      38.132 -10.488   2.244  1.00  0.00     0.003 A 
HETATM   15  C   UNL     1      37.626 -11.684   1.707  1.00  0.00     0.007 A 
HETATM   16  C   UNL     1      38.428 -12.832   1.573  1.00  0.00    -0.051 A 
HETATM   17  C   UNL     1      37.839 -14.082   0.989  1.00  0.00     0.049 C 
HETATM   18  C   UNL     1      40.652 -14.959   2.875  1.00  0.00     0.081 A 
HETATM   19  C   UNL     1      40.565 -14.725   4.375  1.00  0.00     0.021 C 
HETATM   20  N   UNL     1      40.493 -14.532   5.618  1.00  0.00    -0.096 N 
HETATM   21  C   UNL     1      40.596 -16.228   2.389  1.00  0.00     0.140 A 
HETATM   22  O   UNL     1      40.755 -16.503   1.019  1.00  0.00    -0.279 OA
HETATM   23  H   UNL     1      42.148 -10.911   3.262  1.00  0.00     0.169 HD
ENDROOT
BRANCH  21  24
HETATM   24  N   UNL     1      40.398 -17.365   3.140  1.00  0.00    -0.282 NA
HETATM   25  H   UNL     1      40.796 -17.349   4.076  1.00  0.00     0.126 HD
HETATM   26  H   UNL     1      40.648 -18.206   2.626  1.00  0.00     0.126 HD
ENDBRANCH  21  24
BRANCH   1  27
HETATM   27  C   UNL     1      41.990 -12.069  -0.798  1.00  0.00     0.061 C 
BRANCH  27  28
HETATM   28  C   UNL     1      40.806 -11.115  -0.986  1.00  0.00     0.002 C 
HETATM   29  C   UNL     1      39.693 -11.769  -1.791  1.00  0.00     0.005 C 
ENDBRANCH  27  28
ENDBRANCH   1  27
TORSDOF 3
ENDMDL
MODEL 9
REMARK VINA RESULT:      -6.2      3.340      5.927
REMARK  3 active torsions:
REMARK  status: ('A' for Active; 'I' for Inactive)
REMARK    1  A    between atoms: C_2  and  C_3 
REMARK    2  A    between atoms: C_3  and  C_4 
REMARK    3  A    between atoms: C_24  and  N_25 
ROOT
HETATM    1  C   UNL     1      41.136 -15.035  -0.573  1.00  0.00     0.067 A 
HETATM    2  N   UNL     1      41.247 -16.375  -0.582  1.00  0.00    -0.177 NA
HETATM    3  N   UNL     1      40.862 -16.758   0.649  1.00  0.00    -0.256 N 
HETATM    4  H   UNL     1      40.881 -17.744   0.885  1.00  0.00     0.191 HD
HETATM    5  C   UNL     1      40.525 -15.710   1.440  1.00  0.00     0.176 A 
HETATM    6  C   UNL     1      40.656 -14.574   0.681  1.00  0.00     0.049 A 
HETATM    7  C   UNL     1      40.373 -13.249   1.303  1.00  0.00     0.144 A 
HETATM    8  C   UNL     1      41.561 -12.268   1.107  1.00  0.00     0.246 A 
HETATM    9  O   UNL     1      42.694 -12.367   1.551  1.00  0.00    -0.271 OA
HETATM   10  N   UNL     1      41.097 -11.212   0.330  1.00  0.00    -0.325 N 
HETATM   11  C   UNL     1      39.767 -11.386  -0.024  1.00  0.00     0.043 A 
HETATM   12  C   UNL     1      39.264 -12.586   0.505  1.00  0.00     0.003 A 
HETATM   13  C   UNL     1      39.014 -10.527  -0.796  1.00  0.00     0.030 A 
HETATM   14  C   UNL     1      37.694 -10.888  -1.050  1.00  0.00     0.003 A 
HETATM   15  C   UNL     1      37.165 -12.082  -0.529  1.00  0.00     0.007 A 
HETATM   16  C   UNL     1      37.937 -12.948   0.265  1.00  0.00    -0.051 A 
HETATM   17  C   UNL     1      37.325 -14.212   0.792  1.00  0.00     0.049 C 
HETATM   18  C   UNL     1      40.078 -13.398   2.792  1.00  0.00     0.081 A 
HETATM   19  C   UNL     1      39.970 -12.121   3.610  1.00  0.00     0.021 C 
HETATM   20  N   UNL     1      39.881 -11.063   4.289  1.00  0.00    -0.096 N 
HETATM   21  C   UNL     1      39.996 -14.604   3.415  1.00  0.00     0.140 A 
HETATM   22  O   UNL     1      40.173 -15.812   2.716  1.00  0.00    -0.279 OA
HETATM   23  H   UNL     1      41.677 -10.426   0.073  1.00  0.00     0.169 HD
ENDROOT
BRANCH  21  24
HETATM   24  N   UNL     1      39.753 -14.797   4.756  1.00  0.00    -0.282 NA
HETATM   25  H   UNL     1      39.198 -14.076   5.211  1.00  0.00     0.126 HD
HETATM   26  H   UNL     1      40.606 -15.012   5.267  1.00  0.00     0.126 HD
ENDBRANCH  21  24
BRANCH   1  27
HETATM   27  C   UNL     1      41.562 -14.230  -1.763  1.00  0.00     0.061 C 
BRANCH  27  28
HETATM   28  C   UNL     1      40.771 -14.519  -3.042  1.00  0.00     0.002 C 
HETATM   29  C   UNL     1      39.451 -13.763  -3.058  1.00  0.00     0.005 C 
ENDBRANCH  27  28
ENDBRANCH   1  27
TORSDOF 3
ENDMDL
MODEL 10
REMARK VINA RESULT:      -6.1      2.401      5.155
REMARK  3 active torsions:
REMARK  status: ('A' for Active; 'I' for Inactive)
REMARK    1  A    between atoms: C_2  and  C_3 
REMARK    2  A    between atoms: C_3  and  C_4 
REMARK    3  A    between atoms: C_24  and  N_25 
ROOT
HETATM    1  C   UNL     1      41.443 -14.225  -0.479  1.00  0.00     0.067 A 
HETATM    2  N   UNL     1      41.922 -13.211  -1.219  1.00  0.00    -0.177 NA
HETATM    3  N   UNL     1      42.027 -12.181  -0.359  1.00  0.00    -0.256 N 
HETATM    4  H   UNL     1      42.357 -11.286  -0.704  1.00  0.00     0.191 HD
HETATM    5  C   UNL     1      41.620 -12.503   0.893  1.00  0.00     0.176 A 
HETATM    6  C   UNL     1      41.262 -13.828   0.872  1.00  0.00     0.049 A 
HETATM    7  C   UNL     1      40.744 -14.459   2.119  1.00  0.00     0.144 A 
HETATM    8  C   UNL     1      39.378 -15.157   1.872  1.00  0.00     0.246 A 
HETATM    9  O   UNL     1      38.320 -14.639   1.554  1.00  0.00    -0.271 OA
HETATM   10  N   UNL     1      39.566 -16.516   2.102  1.00  0.00    -0.325 N 
HETATM   11  C   UNL     1      40.880 -16.799   2.446  1.00  0.00     0.043 A 
HETATM   12  C   UNL     1      41.653 -15.626   2.465  1.00  0.00     0.003 A 
HETATM   13  C   UNL     1      41.395 -18.046   2.727  1.00  0.00     0.030 A 
HETATM   14  C   UNL     1      42.749 -18.122   3.042  1.00  0.00     0.003 A 
HETATM   15  C   UNL     1      43.544 -16.963   3.070  1.00  0.00     0.007 A 
HETATM   16  C   UNL     1      43.008 -15.692   2.791  1.00  0.00    -0.051 A 
HETATM   17  C   UNL     1      43.902 -14.488   2.831  1.00  0.00     0.049 C 
HETATM   18  C   UNL     1      40.592 -13.426   3.230  1.00  0.00     0.081 A 
HETATM   19  C   UNL     1      39.884 -13.870   4.500  1.00  0.00     0.021 C 
HETATM   20  N   UNL     1      39.296 -14.237   5.553  1.00  0.00    -0.096 N 
HETATM   21  C   UNL     1      40.980 -12.129   3.096  1.00  0.00     0.140 A 
HETATM   22  O   UNL     1      41.563 -11.650   1.909  1.00  0.00    -0.279 OA
HETATM   23  H   UNL     1      38.819 -17.192   2.025  1.00  0.00     0.169 HD
ENDROOT
BRANCH  21  24
HETATM   24  N   UNL     1      40.849 -11.151   4.056  1.00  0.00    -0.282 NA
HETATM   25  H   UNL     1      41.653 -10.540   4.176  1.00  0.00     0.126 HD
HETATM   26  H   UNL     1      40.514 -11.531   4.939  1.00  0.00     0.126 HD
ENDBRANCH  21  24
BRANCH   1  27
HETATM   27  C   UNL     1      41.111 -15.541  -1.117  1.00  0.00     0.061 C 
BRANCH  27  28
HETATM   28  C   UNL     1      41.294 -15.575  -2.637  1.00  0.00     0.002 C 
HETATM   29  C   UNL     1      39.985 -15.893  -3.342  1.00  0.00     0.005 C 
ENDBRANCH  27  28
ENDBRANCH   1  27
TORSDOF 3
ENDMDL
