MODEL 1
REMARK VINA RESULT:      -8.2      0.000      0.000
REMARK  10 active torsions:
REMARK  status: ('A' for Active; 'I' for Inactive)
REMARK    1  A    between atoms: C_2  and  N_3 
REMARK    2  A    between atoms: N_3  and  C_5 
REMARK    3  A    between atoms: N_3  and  C_34 
REMARK    4  A    between atoms: C_5  and  C_6 
REMARK    5  A    between atoms: N_7  and  C_8 
REMARK    6  A    between atoms: C_12  and  N_13 
REMARK    7  A    between atoms: C_16  and  C_17 
REMARK       I    between atoms: C_17  and  N_18 
REMARK    8  A    between atoms: N_18  and  N_19 
REMARK    9  A    between atoms: C_20  and  C_21 
REMARK   10  A    between atoms: C_23  and  C_24 
ROOT
HETATM    1  C   UNL     1      43.696 -18.063   5.108  1.00  0.00     0.096 A 
HETATM    2  N   UNL     1      44.522 -19.053   4.581  1.00  0.00    -0.215 N 
HETATM    3  N   UNL     1      45.700 -19.043   5.259  1.00  0.00     0.012 NA
HETATM    4  N   UNL     1      45.627 -18.171   6.251  1.00  0.00    -0.152 NA
HETATM    5  C   UNL     1      44.410 -17.560   6.187  1.00  0.00     0.170 A 
ENDROOT
BRANCH   5   6
HETATM    6  C   UNL     1      43.958 -16.548   7.134  1.00  0.00     0.293 C 
HETATM    7  N   UNL     1      44.591 -15.326   7.004  1.00  0.00    -0.242 N 
HETATM    8  H   UNL     1      45.307 -15.188   6.293  1.00  0.00     0.192 HD
HETATM    9  O   UNL     1      43.108 -16.830   7.976  1.00  0.00    -0.264 OA
BRANCH   7  10
HETATM   10  N   UNL     1      44.240 -14.307   7.840  1.00  0.00    -0.181 NA
HETATM   11  C   UNL     1      45.100 -13.349   7.984  1.00  0.00     0.175 C 
BRANCH  11  12
HETATM   12  C   UNL     1      44.802 -12.236   8.838  1.00  0.00     0.095 A 
HETATM   13  O   UNL     1      43.493 -11.971   9.119  1.00  0.00    -0.309 OA
HETATM   14  C   UNL     1      43.458 -10.873   9.937  1.00  0.00     0.086 A 
HETATM   15  C   UNL     1      44.749 -10.445  10.181  1.00  0.00     0.041 A 
HETATM   16  C   UNL     1      45.610 -11.317   9.473  1.00  0.00     0.041 A 
BRANCH  14  17
HETATM   17  C   UNL     1      42.137 -10.407  10.353  1.00  0.00    -0.002 A 
HETATM   18  C   UNL     1      41.554  -9.262   9.788  1.00  0.00     0.015 A 
HETATM   19  C   UNL     1      40.292  -8.818  10.200  1.00  0.00     0.020 A 
HETATM   20  C   UNL     1      39.601  -9.517  11.184  1.00  0.00     0.011 A 
HETATM   21 BR   UNL     1      37.898  -8.917  11.744  1.00  0.00    -0.051 Br
HETATM   22  C   UNL     1      40.157 -10.656  11.758  1.00  0.00     0.020 A 
HETATM   23  C   UNL     1      41.419 -11.097  11.344  1.00  0.00     0.015 A 
ENDBRANCH  14  17
ENDBRANCH  11  12
ENDBRANCH   7  10
ENDBRANCH   5   6
BRANCH   1  24
HETATM   24  C   UNL     1      42.400 -17.622   4.536  1.00  0.00     0.296 C 
BRANCH  24  25
HETATM   25  N   UNL     1      42.468 -16.907   3.196  1.00  0.00    -0.066 N 
HETATM   26  H   UNL     1      43.084 -17.474   2.593  1.00  0.00     0.280 HD
BRANCH  25  27
HETATM   27  C   UNL     1      43.115 -15.535   3.343  1.00  0.00     0.231 C 
HETATM   28  C   UNL     1      42.296 -14.633   4.250  1.00  0.00     0.034 C 
ENDBRANCH  25  27
BRANCH  25  29
HETATM   29  C   UNL     1      41.105 -16.801   2.525  1.00  0.00     0.231 C 
HETATM   30  C   UNL     1      41.158 -17.323   1.098  1.00  0.00     0.034 C 
ENDBRANCH  25  29
ENDBRANCH  24  25
ENDBRANCH   1  24
BRANCH   2  31
HETATM   31  C   UNL     1      44.238 -19.988   3.558  1.00  0.00     0.225 A 
HETATM   32  N   UNL     1      43.681 -19.575   2.416  1.00  0.00    -0.081 NA
HETATM   33  O   UNL     1      43.535 -20.753   1.676  1.00  0.00    -0.103 OA
HETATM   34  N   UNL     1      43.979 -21.854   2.394  1.00  0.00    -0.083 NA
HETATM   35  C   UNL     1      44.412 -21.381   3.562  1.00  0.00     0.201 A 
BRANCH  35  36
HETATM   36  N   UNL     1      44.928 -22.135   4.543  1.00  0.00    -0.379 N 
HETATM   37  H   UNL     1      44.493 -22.150   5.463  1.00  0.00     0.158 HD
HETATM   38  H   UNL     1      45.841 -22.586   4.498  1.00  0.00     0.158 HD
ENDBRANCH  35  36
ENDBRANCH   2  31
TORSDOF 10
ENDMDL
MODEL 2
REMARK VINA RESULT:      -7.7      2.329      3.575
REMARK  10 active torsions:
REMARK  status: ('A' for Active; 'I' for Inactive)
REMARK    1  A    between atoms: C_2  and  N_3 
REMARK    2  A    between atoms: N_3  and  C_5 
REMARK    3  A    between atoms: N_3  and  C_34 
REMARK    4  A    between atoms: C_5  and  C_6 
REMARK    5  A    between atoms: N_7  and  C_8 
REMARK    6  A    between atoms: C_12  and  N_13 
REMARK    7  A    between atoms: C_16  and  C_17 
REMARK       I    between atoms: C_17  and  N_18 
REMARK    8  A    between atoms: N_18  and  N_19 
REMARK    9  A    between atoms: C_20  and  C_21 
REMARK   10  A    between atoms: C_23  and  C_24 
ROOT
HETATM    1  C   UNL     1      43.217 -18.234   3.699  1.00  0.00     0.096 A 
HETATM    2  N   UNL     1      43.948 -19.167   2.968  1.00  0.00    -0.215 N 
HETATM    3  N   UNL     1      44.312 -18.605   1.785  1.00  0.00     0.012 NA
HETATM    4  N   UNL     1      43.938 -17.336   1.770  1.00  0.00    -0.152 NA
HETATM    5  C   UNL     1      43.271 -17.078   2.931  1.00  0.00     0.170 A 
ENDROOT
BRANCH   5   6
HETATM    6  C   UNL     1      42.726 -15.774   3.282  1.00  0.00     0.293 C 
HETATM    7  N   UNL     1      43.577 -14.985   4.033  1.00  0.00    -0.242 N 
HETATM    8  H   UNL     1      44.500 -15.327   4.297  1.00  0.00     0.192 HD
HETATM    9  O   UNL     1      41.584 -15.472   2.939  1.00  0.00    -0.264 OA
BRANCH   7  10
HETATM   10  N   UNL     1      43.165 -13.742   4.414  1.00  0.00    -0.181 NA
HETATM   11  C   UNL     1      42.617 -13.642   5.584  1.00  0.00     0.175 C 
BRANCH  11  12
HETATM   12  C   UNL     1      42.167 -12.368   6.061  1.00  0.00     0.095 A 
HETATM   13  O   UNL     1      42.446 -12.026   7.352  1.00  0.00    -0.309 OA
HETATM   14  C   UNL     1      41.916 -10.783   7.578  1.00  0.00     0.086 A 
HETATM   15  C   UNL     1      41.306 -10.332   6.422  1.00  0.00     0.041 A 
HETATM   16  C   UNL     1      41.463 -11.350   5.452  1.00  0.00     0.041 A 
BRANCH  14  17
HETATM   17  C   UNL     1      42.094 -10.227   8.917  1.00  0.00    -0.002 A 
HETATM   18  C   UNL     1      41.193  -9.288   9.445  1.00  0.00     0.015 A 
HETATM   19  C   UNL     1      41.377  -8.754  10.725  1.00  0.00     0.020 A 
HETATM   20  C   UNL     1      42.467  -9.155  11.491  1.00  0.00     0.011 A 
HETATM   21 BR   UNL     1      42.719  -8.433  13.219  1.00  0.00    -0.051 Br
HETATM   22  C   UNL     1      43.373 -10.085  10.991  1.00  0.00     0.020 A 
HETATM   23  C   UNL     1      43.186 -10.617   9.710  1.00  0.00     0.015 A 
ENDBRANCH  14  17
ENDBRANCH  11  12
ENDBRANCH   7  10
ENDBRANCH   5   6
BRANCH   1  24
HETATM   24  C   UNL     1      42.482 -18.505   4.959  1.00  0.00     0.296 C 
BRANCH  24  25
HETATM   25  N   UNL     1      43.086 -17.921   6.227  1.00  0.00    -0.066 N 
HETATM   26  H   UNL     1      43.926 -17.397   5.935  1.00  0.00     0.280 HD
BRANCH  25  27
HETATM   27  C   UNL     1      43.546 -19.026   7.170  1.00  0.00     0.231 C 
HETATM   28  C   UNL     1      44.208 -18.454   8.411  1.00  0.00     0.034 C 
ENDBRANCH  25  27
BRANCH  25  29
HETATM   29  C   UNL     1      42.140 -16.958   6.930  1.00  0.00     0.231 C 
HETATM   30  C   UNL     1      40.775 -16.949   6.262  1.00  0.00     0.034 C 
ENDBRANCH  25  29
ENDBRANCH  24  25
ENDBRANCH   1  24
BRANCH   2  31
HETATM   31  C   UNL     1      44.338 -20.474   3.343  1.00  0.00     0.225 A 
HETATM   32  N   UNL     1      44.965 -20.671   4.507  1.00  0.00    -0.081 NA
HETATM   33  O   UNL     1      45.205 -22.049   4.522  1.00  0.00    -0.103 OA
HETATM   34  N   UNL     1      44.748 -22.650   3.358  1.00  0.00    -0.083 NA
HETATM   35  C   UNL     1      44.213 -21.674   2.626  1.00  0.00     0.201 A 
BRANCH  35  36
HETATM   36  N   UNL     1      43.651 -21.848   1.420  1.00  0.00    -0.379 N 
HETATM   37  H   UNL     1      44.215 -21.784   0.576  1.00  0.00     0.158 HD
HETATM   38  H   UNL     1      42.646 -21.879   1.258  1.00  0.00     0.158 HD
ENDBRANCH  35  36
ENDBRANCH   2  31
TORSDOF 10
ENDMDL
MODEL 3
REMARK VINA RESULT:      -7.6      7.809     11.750
REMARK  10 active torsions:
REMARK  status: ('A' for Active; 'I' for Inactive)
REMARK    1  A    between atoms: C_2  and  N_3 
REMARK    2  A    between atoms: N_3  and  C_5 
REMARK    3  A    between atoms: N_3  and  C_34 
REMARK    4  A    between atoms: C_5  and  C_6 
REMARK    5  A    between atoms: N_7  and  C_8 
REMARK    6  A    between atoms: C_12  and  N_13 
REMARK    7  A    between atoms: C_16  and  C_17 
REMARK       I    between atoms: C_17  and  N_18 
REMARK    8  A    between atoms: N_18  and  N_19 
REMARK    9  A    between atoms: C_20  and  C_21 
REMARK   10  A    between atoms: C_23  and  C_24 
ROOT
HETATM    1  C   UNL     1      38.342 -13.530  -3.661  1.00  0.00     0.096 A 
HETATM    2  N   UNL     1      37.141 -13.756  -4.329  1.00  0.00    -0.215 N 
HETATM    3  N   UNL     1      37.004 -15.092  -4.537  1.00  0.00     0.012 NA
HETATM    4  N   UNL     1      38.002 -15.731  -3.951  1.00  0.00    -0.152 NA
HETATM    5  C   UNL     1      38.834 -14.802  -3.401  1.00  0.00     0.170 A 
ENDROOT
BRANCH   5   6
HETATM    6  C   UNL     1      40.038 -15.133  -2.650  1.00  0.00     0.293 C 
HETATM    7  N   UNL     1      39.915 -14.978  -1.282  1.00  0.00    -0.242 N 
HETATM    8  H   UNL     1      39.038 -14.657  -0.875  1.00  0.00     0.192 HD
HETATM    9  O   UNL     1      41.057 -15.481  -3.243  1.00  0.00    -0.264 OA
BRANCH   7  10
HETATM   10  N   UNL     1      40.984 -15.263  -0.484  1.00  0.00    -0.181 NA
HETATM   11  C   UNL     1      40.858 -14.995   0.777  1.00  0.00     0.175 C 
BRANCH  11  12
HETATM   12  C   UNL     1      41.933 -15.276   1.683  1.00  0.00     0.095 A 
HETATM   13  O   UNL     1      42.197 -16.579   1.988  1.00  0.00    -0.309 OA
HETATM   14  C   UNL     1      43.249 -16.597   2.866  1.00  0.00     0.086 A 
HETATM   15  C   UNL     1      43.658 -15.300   3.111  1.00  0.00     0.041 A 
HETATM   16  C   UNL     1      42.812 -14.453   2.357  1.00  0.00     0.041 A 
BRANCH  14  17
HETATM   17  C   UNL     1      43.690 -17.909   3.335  1.00  0.00    -0.002 A 
HETATM   18  C   UNL     1      43.920 -18.966   2.439  1.00  0.00     0.015 A 
HETATM   19  C   UNL     1      44.333 -20.222   2.898  1.00  0.00     0.020 A 
HETATM   20  C   UNL     1      44.520 -20.432   4.260  1.00  0.00     0.011 A 
HETATM   21 BR   UNL     1      45.075 -22.128   4.883  1.00  0.00    -0.051 Br
HETATM   22  C   UNL     1      44.300 -19.400   5.167  1.00  0.00     0.020 A 
HETATM   23  C   UNL     1      43.886 -18.146   4.705  1.00  0.00     0.015 A 
ENDBRANCH  14  17
ENDBRANCH  11  12
ENDBRANCH   7  10
ENDBRANCH   5   6
BRANCH   1  24
HETATM   24  C   UNL     1      38.955 -12.203  -3.408  1.00  0.00     0.296 C 
BRANCH  24  25
HETATM   25  N   UNL     1      39.999 -11.743  -4.413  1.00  0.00    -0.066 N 
HETATM   26  H   UNL     1      39.880 -12.336  -5.248  1.00  0.00     0.280 HD
BRANCH  25  27
HETATM   27  C   UNL     1      41.407 -11.984  -3.882  1.00  0.00     0.231 C 
HETATM   28  C   UNL     1      42.330 -10.825  -4.218  1.00  0.00     0.034 C 
ENDBRANCH  25  27
BRANCH  25  29
HETATM   29  C   UNL     1      39.810 -10.290  -4.824  1.00  0.00     0.231 C 
HETATM   30  C   UNL     1      38.339  -9.904  -4.802  1.00  0.00     0.034 C 
ENDBRANCH  25  29
ENDBRANCH  24  25
ENDBRANCH   1  24
BRANCH   2  31
HETATM   31  C   UNL     1      36.151 -12.819  -4.707  1.00  0.00     0.225 A 
HETATM   32  N   UNL     1      35.587 -12.037  -3.781  1.00  0.00    -0.081 NA
HETATM   33  O   UNL     1      34.665 -11.278  -4.509  1.00  0.00    -0.103 OA
HETATM   34  N   UNL     1      34.669 -11.634  -5.849  1.00  0.00    -0.083 NA
HETATM   35  C   UNL     1      35.587 -12.592  -5.973  1.00  0.00     0.201 A 
BRANCH  35  36
HETATM   36  N   UNL     1      35.900 -13.203  -7.125  1.00  0.00    -0.379 N 
HETATM   37  H   UNL     1      35.279 -13.134  -7.928  1.00  0.00     0.158 HD
HETATM   38  H   UNL     1      36.649 -13.885  -7.225  1.00  0.00     0.158 HD
ENDBRANCH  35  36
ENDBRANCH   2  31
TORSDOF 10
ENDMDL
MODEL 4
REMARK VINA RESULT:      -7.3      7.661     11.718
REMARK  10 active torsions:
REMARK  status: ('A' for Active; 'I' for Inactive)
REMARK    1  A    between atoms: C_2  and  N_3 
REMARK    2  A    between atoms: N_3  and  C_5 
REMARK    3  A    between atoms: N_3  and  C_34 
REMARK    4  A    between atoms: C_5  and  C_6 
REMARK    5  A    between atoms: N_7  and  C_8 
REMARK    6  A    between atoms: C_12  and  N_13 
REMARK    7  A    between atoms: C_16  and  C_17 
REMARK       I    between atoms: C_17  and  N_18 
REMARK    8  A    between atoms: N_18  and  N_19 
REMARK    9  A    between atoms: C_20  and  C_21 
REMARK   10  A    between atoms: C_23  and  C_24 
ROOT
HETATM    1  C   UNL     1      37.989 -13.371  -3.641  1.00  0.00     0.096 A 
HETATM    2  N   UNL     1      36.799 -13.696  -4.287  1.00  0.00    -0.215 N 
HETATM    3  N   UNL     1      36.793 -15.032  -4.541  1.00  0.00     0.012 NA
HETATM    4  N   UNL     1      37.867 -15.585  -4.002  1.00  0.00    -0.152 NA
HETATM    5  C   UNL     1      38.615 -14.594  -3.439  1.00  0.00     0.170 A 
ENDROOT
BRANCH   5   6
HETATM    6  C   UNL     1      39.867 -14.824  -2.730  1.00  0.00     0.293 C 
HETATM    7  N   UNL     1      39.742 -14.862  -1.354  1.00  0.00    -0.242 N 
HETATM    8  H   UNL     1      38.832 -14.735  -0.914  1.00  0.00     0.192 HD
HETATM    9  O   UNL     1      40.919 -14.933  -3.358  1.00  0.00    -0.264 OA
BRANCH   7  10
HETATM   10  N   UNL     1      40.854 -15.075  -0.594  1.00  0.00    -0.181 NA
HETATM   11  C   UNL     1      40.662 -15.320   0.664  1.00  0.00     0.175 C 
BRANCH  11  12
HETATM   12  C   UNL     1      41.780 -15.565   1.528  1.00  0.00     0.095 A 
HETATM   13  O   UNL     1      42.041 -16.852   1.897  1.00  0.00    -0.309 OA
HETATM   14  C   UNL     1      43.138 -16.836   2.718  1.00  0.00     0.086 A 
HETATM   15  C   UNL     1      43.578 -15.533   2.863  1.00  0.00     0.041 A 
HETATM   16  C   UNL     1      42.705 -14.719   2.104  1.00  0.00     0.041 A 
BRANCH  14  17
HETATM   17  C   UNL     1      43.584 -18.124   3.242  1.00  0.00    -0.002 A 
HETATM   18  C   UNL     1      43.749 -18.336   4.620  1.00  0.00     0.015 A 
HETATM   19  C   UNL     1      44.187 -19.571   5.112  1.00  0.00     0.020 A 
HETATM   20  C   UNL     1      44.465 -20.608   4.227  1.00  0.00     0.011 A 
HETATM   21 BR   UNL     1      45.060 -22.275   4.889  1.00  0.00    -0.051 Br
HETATM   22  C   UNL     1      44.308 -20.423   2.857  1.00  0.00     0.020 A 
HETATM   23  C   UNL     1      43.871 -19.187   2.369  1.00  0.00     0.015 A 
ENDBRANCH  14  17
ENDBRANCH  11  12
ENDBRANCH   7  10
ENDBRANCH   5   6
BRANCH   1  24
HETATM   24  C   UNL     1      38.471 -11.997  -3.354  1.00  0.00     0.296 C 
BRANCH  24  25
HETATM   25  N   UNL     1      38.030 -11.395  -2.029  1.00  0.00    -0.066 N 
HETATM   26  H   UNL     1      37.320 -10.683  -2.254  1.00  0.00     0.280 HD
BRANCH  25  27
HETATM   27  C   UNL     1      39.188 -10.681  -1.343  1.00  0.00     0.231 C 
HETATM   28  C   UNL     1      40.525 -11.268  -1.763  1.00  0.00     0.034 C 
ENDBRANCH  25  27
BRANCH  25  29
HETATM   29  C   UNL     1      37.398 -12.427  -1.104  1.00  0.00     0.231 C 
HETATM   30  C   UNL     1      37.037 -11.808   0.237  1.00  0.00     0.034 C 
ENDBRANCH  25  29
ENDBRANCH  24  25
ENDBRANCH   1  24
BRANCH   2  31
HETATM   31  C   UNL     1      35.709 -12.854  -4.607  1.00  0.00     0.225 A 
HETATM   32  N   UNL     1      35.374 -11.858  -3.781  1.00  0.00    -0.081 NA
HETATM   33  O   UNL     1      34.266 -11.274  -4.403  1.00  0.00    -0.103 OA
HETATM   34  N   UNL     1      33.936 -11.944  -5.572  1.00  0.00    -0.083 NA
HETATM   35  C   UNL     1      34.828 -12.925  -5.698  1.00  0.00     0.201 A 
BRANCH  35  36
HETATM   36  N   UNL     1      34.856 -13.803  -6.711  1.00  0.00    -0.379 N 
HETATM   37  H   UNL     1      34.284 -13.652  -7.539  1.00  0.00     0.158 HD
HETATM   38  H   UNL     1      35.290 -14.723  -6.658  1.00  0.00     0.158 HD
ENDBRANCH  35  36
ENDBRANCH   2  31
TORSDOF 10
ENDMDL
MODEL 5
REMARK VINA RESULT:      -7.3      5.638      8.889
REMARK  10 active torsions:
REMARK  status: ('A' for Active; 'I' for Inactive)
REMARK    1  A    between atoms: C_2  and  N_3 
REMARK    2  A    between atoms: N_3  and  C_5 
REMARK    3  A    between atoms: N_3  and  C_34 
REMARK    4  A    between atoms: C_5  and  C_6 
REMARK    5  A    between atoms: N_7  and  C_8 
REMARK    6  A    between atoms: C_12  and  N_13 
REMARK    7  A    between atoms: C_16  and  C_17 
REMARK       I    between atoms: C_17  and  N_18 
REMARK    8  A    between atoms: N_18  and  N_19 
REMARK    9  A    between atoms: C_20  and  C_21 
REMARK   10  A    between atoms: C_23  and  C_24 
ROOT
HETATM    1  C   UNL     1      42.899 -16.817   4.875  1.00  0.00     0.096 A 
HETATM    2  N   UNL     1      43.633 -17.231   5.984  1.00  0.00    -0.215 N 
HETATM    3  N   UNL     1      44.218 -16.142   6.549  1.00  0.00     0.012 NA
HETATM    4  N   UNL     1      43.814 -15.051   5.920  1.00  0.00    -0.152 NA
HETATM    5  C   UNL     1      43.001 -15.432   4.894  1.00  0.00     0.170 A 
ENDROOT
BRANCH   5   6
HETATM    6  C   UNL     1      42.346 -14.499   3.986  1.00  0.00     0.293 C 
HETATM    7  N   UNL     1      43.100 -14.160   2.879  1.00  0.00    -0.242 N 
HETATM    8  H   UNL     1      44.031 -14.553   2.747  1.00  0.00     0.192 HD
HETATM    9  O   UNL     1      41.230 -14.059   4.256  1.00  0.00    -0.264 OA
BRANCH   7  10
HETATM   10  N   UNL     1      42.579 -13.294   1.963  1.00  0.00    -0.181 NA
HETATM   11  C   UNL     1      41.966 -13.817   0.949  1.00  0.00     0.175 C 
BRANCH  11  12
HETATM   12  C   UNL     1      41.381 -12.973  -0.052  1.00  0.00     0.095 A 
HETATM   13  O   UNL     1      40.323 -13.455  -0.766  1.00  0.00    -0.309 OA
HETATM   14  C   UNL     1      39.944 -12.486  -1.656  1.00  0.00     0.086 A 
HETATM   15  C   UNL     1      40.762 -11.382  -1.500  1.00  0.00     0.041 A 
HETATM   16  C   UNL     1      41.685 -11.696  -0.475  1.00  0.00     0.041 A 
BRANCH  14  17
HETATM   17  C   UNL     1      38.822 -12.805  -2.535  1.00  0.00    -0.002 A 
HETATM   18  C   UNL     1      38.515 -14.132  -2.877  1.00  0.00     0.015 A 
HETATM   19  C   UNL     1      37.444 -14.427  -3.728  1.00  0.00     0.020 A 
HETATM   20  C   UNL     1      36.669 -13.395  -4.248  1.00  0.00     0.011 A 
HETATM   21 BR   UNL     1      35.225 -13.792  -5.400  1.00  0.00    -0.051 Br
HETATM   22  C   UNL     1      36.953 -12.072  -3.923  1.00  0.00     0.020 A 
HETATM   23  C   UNL     1      38.025 -11.781  -3.072  1.00  0.00     0.015 A 
ENDBRANCH  14  17
ENDBRANCH  11  12
ENDBRANCH   7  10
ENDBRANCH   5   6
BRANCH   1  24
HETATM   24  C   UNL     1      42.261 -17.710   3.877  1.00  0.00     0.296 C 
BRANCH  24  25
HETATM   25  N   UNL     1      42.787 -17.609   2.454  1.00  0.00    -0.066 N 
HETATM   26  H   UNL     1      43.205 -16.671   2.363  1.00  0.00     0.280 HD
BRANCH  25  27
HETATM   27  C   UNL     1      41.649 -17.699   1.445  1.00  0.00     0.231 C 
HETATM   28  C   UNL     1      40.390 -17.031   1.971  1.00  0.00     0.034 C 
ENDBRANCH  25  27
BRANCH  25  29
HETATM   29  C   UNL     1      43.864 -18.644   2.158  1.00  0.00     0.231 C 
HETATM   30  C   UNL     1      43.260 -20.030   1.998  1.00  0.00     0.034 C 
ENDBRANCH  25  29
ENDBRANCH  24  25
ENDBRANCH   1  24
BRANCH   2  31
HETATM   31  C   UNL     1      43.752 -18.531   6.529  1.00  0.00     0.225 A 
HETATM   32  N   UNL     1      43.769 -19.593   5.718  1.00  0.00    -0.081 NA
HETATM   33  O   UNL     1      43.874 -20.676   6.597  1.00  0.00    -0.103 OA
HETATM   34  N   UNL     1      43.888 -20.250   7.918  1.00  0.00    -0.083 NA
HETATM   35  C   UNL     1      43.809 -18.921   7.877  1.00  0.00     0.201 A 
BRANCH  35  36
HETATM   36  N   UNL     1      43.799 -18.126   8.957  1.00  0.00    -0.379 N 
HETATM   37  H   UNL     1      43.778 -17.114   8.850  1.00  0.00     0.158 HD
HETATM   38  H   UNL     1      43.980 -18.449   9.906  1.00  0.00     0.158 HD
ENDBRANCH  35  36
ENDBRANCH   2  31
TORSDOF 10
ENDMDL
MODEL 6
REMARK VINA RESULT:      -7.3      6.990     10.305
REMARK  10 active torsions:
REMARK  status: ('A' for Active; 'I' for Inactive)
REMARK    1  A    between atoms: C_2  and  N_3 
REMARK    2  A    between atoms: N_3  and  C_5 
REMARK    3  A    between atoms: N_3  and  C_34 
REMARK    4  A    between atoms: C_5  and  C_6 
REMARK    5  A    between atoms: N_7  and  C_8 
REMARK    6  A    between atoms: C_12  and  N_13 
REMARK    7  A    between atoms: C_16  and  C_17 
REMARK       I    between atoms: C_17  and  N_18 
REMARK    8  A    between atoms: N_18  and  N_19 
REMARK    9  A    between atoms: C_20  and  C_21 
REMARK   10  A    between atoms: C_23  and  C_24 
ROOT
HETATM    1  C   UNL     1      41.267 -11.318  -1.631  1.00  0.00     0.096 A 
HETATM    2  N   UNL     1      41.915 -10.334  -2.373  1.00  0.00    -0.215 N 
HETATM    3  N   UNL     1      43.115 -10.069  -1.792  1.00  0.00     0.012 NA
HETATM    4  N   UNL     1      43.305 -10.901  -0.782  1.00  0.00    -0.152 NA
HETATM    5  C   UNL     1      42.194 -11.682  -0.663  1.00  0.00     0.170 A 
ENDROOT
BRANCH   5   6
HETATM    6  C   UNL     1      42.044 -12.736   0.332  1.00  0.00     0.293 C 
HETATM    7  N   UNL     1      42.151 -12.302   1.640  1.00  0.00    -0.242 N 
HETATM    8  H   UNL     1      42.320 -11.319   1.846  1.00  0.00     0.192 HD
HETATM    9  O   UNL     1      41.874 -13.900  -0.026  1.00  0.00    -0.264 OA
BRANCH   7  10
HETATM   10  N   UNL     1      42.024 -13.209   2.651  1.00  0.00    -0.181 NA
HETATM   11  C   UNL     1      43.113 -13.561   3.258  1.00  0.00     0.175 C 
BRANCH  11  12
HETATM   12  C   UNL     1      43.061 -14.502   4.339  1.00  0.00     0.095 A 
HETATM   13  O   UNL     1      43.477 -15.780   4.103  1.00  0.00    -0.309 OA
HETATM   14  C   UNL     1      43.331 -16.488   5.266  1.00  0.00     0.086 A 
HETATM   15  C   UNL     1      42.827 -15.652   6.246  1.00  0.00     0.041 A 
HETATM   16  C   UNL     1      42.651 -14.381   5.650  1.00  0.00     0.041 A 
BRANCH  14  17
HETATM   17  C   UNL     1      43.712 -17.898   5.229  1.00  0.00    -0.002 A 
HETATM   18  C   UNL     1      43.737 -18.679   6.395  1.00  0.00     0.015 A 
HETATM   19  C   UNL     1      44.113 -20.026   6.352  1.00  0.00     0.020 A 
HETATM   20  C   UNL     1      44.469 -20.606   5.138  1.00  0.00     0.011 A 
HETATM   21 BR   UNL     1      44.980 -22.424   5.078  1.00  0.00    -0.051 Br
HETATM   22  C   UNL     1      44.451 -19.852   3.969  1.00  0.00     0.020 A 
HETATM   23  C   UNL     1      44.075 -18.505   4.016  1.00  0.00     0.015 A 
ENDBRANCH  14  17
ENDBRANCH  11  12
ENDBRANCH   7  10
ENDBRANCH   5   6
BRANCH   1  24
HETATM   24  C   UNL     1      39.863 -11.760  -1.818  1.00  0.00     0.296 C 
BRANCH  24  25
HETATM   25  N   UNL     1      39.657 -13.243  -2.081  1.00  0.00    -0.066 N 
HETATM   26  H   UNL     1      40.232 -13.745  -1.388  1.00  0.00     0.280 HD
BRANCH  25  27
HETATM   27  C   UNL     1      40.173 -13.628  -3.463  1.00  0.00     0.231 C 
HETATM   28  C   UNL     1      41.368 -14.561  -3.366  1.00  0.00     0.034 C 
ENDBRANCH  25  27
BRANCH  25  29
HETATM   29  C   UNL     1      38.207 -13.669  -1.900  1.00  0.00     0.231 C 
HETATM   30  C   UNL     1      37.712 -14.447  -3.109  1.00  0.00     0.034 C 
ENDBRANCH  25  29
ENDBRANCH  24  25
ENDBRANCH   1  24
BRANCH   2  31
HETATM   31  C   UNL     1      41.493  -9.709  -3.571  1.00  0.00     0.225 A 
HETATM   32  N   UNL     1      40.593  -8.722  -3.524  1.00  0.00    -0.081 NA
HETATM   33  O   UNL     1      40.413  -8.378  -4.868  1.00  0.00    -0.103 OA
HETATM   34  N   UNL     1      41.182  -9.180  -5.698  1.00  0.00    -0.083 NA
HETATM   35  C   UNL     1      41.849 -10.007  -4.896  1.00  0.00     0.201 A 
BRANCH  35  36
HETATM   36  N   UNL     1      42.712 -10.944  -5.316  1.00  0.00    -0.379 N 
HETATM   37  H   UNL     1      43.285 -10.782  -6.141  1.00  0.00     0.158 HD
HETATM   38  H   UNL     1      42.732 -11.900  -4.966  1.00  0.00     0.158 HD
ENDBRANCH  35  36
ENDBRANCH   2  31
TORSDOF 10
ENDMDL
MODEL 7
REMARK VINA RESULT:      -7.1      5.527      8.005
REMARK  10 active torsions:
REMARK  status: ('A' for Active; 'I' for Inactive)
REMARK    1  A    between atoms: C_2  and  N_3 
REMARK    2  A    between atoms: N_3  and  C_5 
REMARK    3  A    between atoms: N_3  and  C_34 
REMARK    4  A    between atoms: C_5  and  C_6 
REMARK    5  A    between atoms: N_7  and  C_8 
REMARK    6  A    between atoms: C_12  and  N_13 
REMARK    7  A    between atoms: C_16  and  C_17 
REMARK       I    between atoms: C_17  and  N_18 
REMARK    8  A    between atoms: N_18  and  N_19 
REMARK    9  A    between atoms: C_20  and  C_21 
REMARK   10  A    between atoms: C_23  and  C_24 
ROOT
HETATM    1  C   UNL     1      43.292 -17.410   5.107  1.00  0.00     0.096 A 
HETATM    2  N   UNL     1      44.035 -18.195   5.985  1.00  0.00    -0.215 N 
HETATM    3  N   UNL     1      44.766 -17.378   6.788  1.00  0.00     0.012 NA
HETATM    4  N   UNL     1      44.451 -16.119   6.534  1.00  0.00    -0.152 NA
HETATM    5  C   UNL     1      43.547 -16.107   5.514  1.00  0.00     0.170 A 
ENDROOT
BRANCH   5   6
HETATM    6  C   UNL     1      42.950 -14.893   4.971  1.00  0.00     0.293 C 
HETATM    7  N   UNL     1      43.591 -14.398   3.850  1.00  0.00    -0.242 N 
HETATM    8  H   UNL     1      44.408 -14.873   3.470  1.00  0.00     0.192 HD
HETATM    9  O   UNL     1      41.981 -14.382   5.527  1.00  0.00    -0.264 OA
BRANCH   7  10
HETATM   10  N   UNL     1      43.112 -13.265   3.260  1.00  0.00    -0.181 NA
HETATM   11  C   UNL     1      42.443 -13.419   2.161  1.00  0.00     0.175 C 
BRANCH  11  12
HETATM   12  C   UNL     1      41.897 -12.279   1.486  1.00  0.00     0.095 A 
HETATM   13  O   UNL     1      42.251 -12.067   0.185  1.00  0.00    -0.309 OA
HETATM   14  C   UNL     1      41.619 -10.929  -0.239  1.00  0.00     0.086 A 
HETATM   15  C   UNL     1      40.855 -10.421   0.795  1.00  0.00     0.041 A 
HETATM   16  C   UNL     1      41.037 -11.284   1.901  1.00  0.00     0.041 A 
BRANCH  14  17
HETATM   17  C   UNL     1      41.873 -10.512  -1.616  1.00  0.00    -0.002 A 
HETATM   18  C   UNL     1      42.101 -11.451  -2.634  1.00  0.00     0.015 A 
HETATM   19  C   UNL     1      42.353 -11.043  -3.949  1.00  0.00     0.020 A 
HETATM   20  C   UNL     1      42.380  -9.686  -4.258  1.00  0.00     0.011 A 
HETATM   21 BR   UNL     1      42.724  -9.132  -6.031  1.00  0.00    -0.051 Br
HETATM   22  C   UNL     1      42.156  -8.736  -3.266  1.00  0.00     0.020 A 
HETATM   23  C   UNL     1      41.904  -9.149  -1.953  1.00  0.00     0.015 A 
ENDBRANCH  14  17
ENDBRANCH  11  12
ENDBRANCH   7  10
ENDBRANCH   5   6
BRANCH   1  24
HETATM   24  C   UNL     1      42.508 -17.909   3.951  1.00  0.00     0.296 C 
BRANCH  24  25
HETATM   25  N   UNL     1      43.004 -17.496   2.574  1.00  0.00    -0.066 N 
HETATM   26  H   UNL     1      43.628 -16.688   2.720  1.00  0.00     0.280 HD
BRANCH  25  27
HETATM   27  C   UNL     1      41.850 -17.027   1.698  1.00  0.00     0.231 C 
HETATM   28  C   UNL     1      40.585 -16.820   2.513  1.00  0.00     0.034 C 
ENDBRANCH  25  27
BRANCH  25  29
HETATM   29  C   UNL     1      43.800 -18.599   1.889  1.00  0.00     0.231 C 
HETATM   30  C   UNL     1      43.006 -19.895   1.842  1.00  0.00     0.034 C 
ENDBRANCH  25  29
ENDBRANCH  24  25
ENDBRANCH   1  24
BRANCH   2  31
HETATM   31  C   UNL     1      44.040 -19.603   6.122  1.00  0.00     0.225 A 
HETATM   32  N   UNL     1      43.401 -20.173   7.149  1.00  0.00    -0.081 NA
HETATM   33  O   UNL     1      43.639 -21.539   6.967  1.00  0.00    -0.103 OA
HETATM   34  N   UNL     1      44.438 -21.765   5.855  1.00  0.00    -0.083 NA
HETATM   35  C   UNL     1      44.689 -20.566   5.333  1.00  0.00     0.201 A 
BRANCH  35  36
HETATM   36  N   UNL     1      45.430 -20.354   4.235  1.00  0.00    -0.379 N 
HETATM   37  H   UNL     1      44.985 -20.109   3.354  1.00  0.00     0.158 HD
HETATM   38  H   UNL     1      46.421 -20.580   4.162  1.00  0.00     0.158 HD
ENDBRANCH  35  36
ENDBRANCH   2  31
TORSDOF 10
ENDMDL
MODEL 8
REMARK VINA RESULT:      -7.1      5.781      9.218
REMARK  10 active torsions:
REMARK  status: ('A' for Active; 'I' for Inactive)
REMARK    1  A    between atoms: C_2  and  N_3 
REMARK    2  A    between atoms: N_3  and  C_5 
REMARK    3  A    between atoms: N_3  and  C_34 
REMARK    4  A    between atoms: C_5  and  C_6 
REMARK    5  A    between atoms: N_7  and  C_8 
REMARK    6  A    between atoms: C_12  and  N_13 
REMARK    7  A    between atoms: C_16  and  C_17 
REMARK       I    between atoms: C_17  and  N_18 
REMARK    8  A    between atoms: N_18  and  N_19 
REMARK    9  A    between atoms: C_20  and  C_21 
REMARK   10  A    between atoms: C_23  and  C_24 
ROOT
HETATM    1  C   UNL     1      42.278 -17.083   4.329  1.00  0.00     0.096 A 
HETATM    2  N   UNL     1      42.920 -17.074   5.565  1.00  0.00    -0.215 N 
HETATM    3  N   UNL     1      43.037 -15.786   5.985  1.00  0.00     0.012 NA
HETATM    4  N   UNL     1      42.417 -14.989   5.131  1.00  0.00    -0.152 NA
HETATM    5  C   UNL     1      41.937 -15.755   4.110  1.00  0.00     0.170 A 
ENDROOT
BRANCH   5   6
HETATM    6  C   UNL     1      41.176 -15.226   2.986  1.00  0.00     0.293 C 
HETATM    7  N   UNL     1      41.942 -14.905   1.881  1.00  0.00    -0.242 N 
HETATM    8  H   UNL     1      42.951 -15.043   1.894  1.00  0.00     0.192 HD
HETATM    9  O   UNL     1      39.960 -15.069   3.086  1.00  0.00    -0.264 OA
BRANCH   7  10
HETATM   10  N   UNL     1      41.326 -14.404   0.772  1.00  0.00    -0.181 NA
HETATM   11  C   UNL     1      41.246 -15.190  -0.255  1.00  0.00     0.175 C 
BRANCH  11  12
HETATM   12  C   UNL     1      40.604 -14.741  -1.456  1.00  0.00     0.095 A 
HETATM   13  O   UNL     1      39.495 -13.954  -1.341  1.00  0.00    -0.309 OA
HETATM   14  C   UNL     1      39.060 -13.660  -2.606  1.00  0.00     0.086 A 
HETATM   15  C   UNL     1      39.900 -14.257  -3.526  1.00  0.00     0.041 A 
HETATM   16  C   UNL     1      40.887 -14.953  -2.789  1.00  0.00     0.041 A 
BRANCH  14  17
HETATM   17  C   UNL     1      37.863 -12.828  -2.711  1.00  0.00    -0.002 A 
HETATM   18  C   UNL     1      37.476 -11.969  -1.669  1.00  0.00     0.015 A 
HETATM   19  C   UNL     1      36.324 -11.183  -1.774  1.00  0.00     0.020 A 
HETATM   20  C   UNL     1      35.545 -11.248  -2.925  1.00  0.00     0.011 A 
HETATM   21 BR   UNL     1      33.986 -10.190  -3.068  1.00  0.00    -0.051 Br
HETATM   22  C   UNL     1      35.908 -12.090  -3.972  1.00  0.00     0.020 A 
HETATM   23  C   UNL     1      37.062 -12.876  -3.862  1.00  0.00     0.015 A 
ENDBRANCH  14  17
ENDBRANCH  11  12
ENDBRANCH   7  10
ENDBRANCH   5   6
BRANCH   1  24
HETATM   24  C   UNL     1      42.119 -18.264   3.445  1.00  0.00     0.296 C 
BRANCH  24  25
HETATM   25  N   UNL     1      43.401 -18.867   2.894  1.00  0.00    -0.066 N 
HETATM   26  H   UNL     1      43.960 -19.159   3.710  1.00  0.00     0.280 HD
BRANCH  25  27
HETATM   27  C   UNL     1      44.212 -17.822   2.138  1.00  0.00     0.231 C 
HETATM   28  C   UNL     1      43.713 -17.659   0.713  1.00  0.00     0.034 C 
ENDBRANCH  25  27
BRANCH  25  29
HETATM   29  C   UNL     1      43.141 -20.091   2.027  1.00  0.00     0.231 C 
HETATM   30  C   UNL     1      44.181 -21.170   2.281  1.00  0.00     0.034 C 
ENDBRANCH  25  29
ENDBRANCH  24  25
ENDBRANCH   1  24
BRANCH   2  31
HETATM   31  C   UNL     1      43.351 -18.172   6.344  1.00  0.00     0.225 A 
HETATM   32  N   UNL     1      43.602 -19.346   5.756  1.00  0.00    -0.081 NA
HETATM   33  O   UNL     1      43.976 -20.174   6.821  1.00  0.00    -0.103 OA
HETATM   34  N   UNL     1      43.915 -19.495   8.029  1.00  0.00    -0.083 NA
HETATM   35  C   UNL     1      43.525 -18.255   7.735  1.00  0.00     0.201 A 
BRANCH  35  36
HETATM   36  N   UNL     1      43.350 -17.278   8.637  1.00  0.00    -0.379 N 
HETATM   37  H   UNL     1      43.897 -17.266   9.495  1.00  0.00     0.158 HD
HETATM   38  H   UNL     1      42.579 -16.613   8.616  1.00  0.00     0.158 HD
ENDBRANCH  35  36
ENDBRANCH   2  31
TORSDOF 10
ENDMDL
MODEL 9
REMARK VINA RESULT:      -7.1      5.813      9.785
REMARK  10 active torsions:
REMARK  status: ('A' for Active; 'I' for Inactive)
REMARK    1  A    between atoms: C_2  and  N_3 
REMARK    2  A    between atoms: N_3  and  C_5 
REMARK    3  A    between atoms: N_3  and  C_34 
REMARK    4  A    between atoms: C_5  and  C_6 
REMARK    5  A    between atoms: N_7  and  C_8 
REMARK    6  A    between atoms: C_12  and  N_13 
REMARK    7  A    between atoms: C_16  and  C_17 
REMARK       I    between atoms: C_17  and  N_18 
REMARK    8  A    between atoms: N_18  and  N_19 
REMARK    9  A    between atoms: C_20  and  C_21 
REMARK   10  A    between atoms: C_23  and  C_24 
ROOT
HETATM    1  C   UNL     1      42.285 -17.706   3.684  1.00  0.00     0.096 A 
HETATM    2  N   UNL     1      43.317 -18.371   4.341  1.00  0.00    -0.215 N 
HETATM    3  N   UNL     1      44.020 -19.093   3.428  1.00  0.00     0.012 NA
HETATM    4  N   UNL     1      43.552 -18.842   2.217  1.00  0.00    -0.152 NA
HETATM    5  C   UNL     1      42.493 -17.992   2.341  1.00  0.00     0.170 A 
ENDROOT
BRANCH   5   6
HETATM    6  C   UNL     1      41.731 -17.474   1.212  1.00  0.00     0.293 C 
HETATM    7  N   UNL     1      42.331 -16.413   0.560  1.00  0.00    -0.242 N 
HETATM    8  H   UNL     1      43.231 -16.055   0.876  1.00  0.00     0.192 HD
HETATM    9  O   UNL     1      40.636 -17.960   0.934  1.00  0.00    -0.264 OA
BRANCH   7  10
HETATM   10  N   UNL     1      41.702 -15.854  -0.513  1.00  0.00    -0.181 NA
HETATM   11  C   UNL     1      41.034 -14.765  -0.295  1.00  0.00     0.175 C 
BRANCH  11  12
HETATM   12  C   UNL     1      40.353 -14.111  -1.374  1.00  0.00     0.095 A 
HETATM   13  O   UNL     1      41.046 -13.201  -2.118  1.00  0.00    -0.309 OA
HETATM   14  C   UNL     1      40.196 -12.710  -3.073  1.00  0.00     0.086 A 
HETATM   15  C   UNL     1      38.962 -13.317  -2.939  1.00  0.00     0.041 A 
HETATM   16  C   UNL     1      39.062 -14.212  -1.848  1.00  0.00     0.041 A 
BRANCH  14  17
HETATM   17  C   UNL     1      40.740 -11.701  -3.979  1.00  0.00    -0.002 A 
HETATM   18  C   UNL     1      42.125 -11.518  -4.123  1.00  0.00     0.015 A 
HETATM   19  C   UNL     1      42.638 -10.543  -4.986  1.00  0.00     0.020 A 
HETATM   20  C   UNL     1      41.767  -9.739  -5.715  1.00  0.00     0.011 A 
HETATM   21 BR   UNL     1      42.456  -8.420  -6.879  1.00  0.00    -0.051 Br
HETATM   22  C   UNL     1      40.391  -9.902  -5.591  1.00  0.00     0.020 A 
HETATM   23  C   UNL     1      39.882 -10.878  -4.726  1.00  0.00     0.015 A 
ENDBRANCH  14  17
ENDBRANCH  11  12
ENDBRANCH   7  10
ENDBRANCH   5   6
BRANCH   1  24
HETATM   24  C   UNL     1      41.181 -16.962   4.337  1.00  0.00     0.296 C 
BRANCH  24  25
HETATM   25  N   UNL     1      41.506 -15.552   4.804  1.00  0.00    -0.066 N 
HETATM   26  H   UNL     1      42.429 -15.602   5.260  1.00  0.00     0.280 HD
BRANCH  25  27
HETATM   27  C   UNL     1      40.506 -15.081   5.852  1.00  0.00     0.231 C 
HETATM   28  C   UNL     1      40.108 -13.633   5.626  1.00  0.00     0.034 C 
ENDBRANCH  25  27
BRANCH  25  29
HETATM   29  C   UNL     1      41.595 -14.564   3.648  1.00  0.00     0.231 C 
HETATM   30  C   UNL     1      43.035 -14.150   3.394  1.00  0.00     0.034 C 
ENDBRANCH  25  29
ENDBRANCH  24  25
ENDBRANCH   1  24
BRANCH   2  31
HETATM   31  C   UNL     1      43.677 -18.312   5.707  1.00  0.00     0.225 A 
HETATM   32  N   UNL     1      43.839 -17.126   6.301  1.00  0.00    -0.081 NA
HETATM   33  O   UNL     1      44.203 -17.460   7.610  1.00  0.00    -0.103 OA
HETATM   34  N   UNL     1      44.283 -18.835   7.772  1.00  0.00    -0.083 NA
HETATM   35  C   UNL     1      43.960 -19.365   6.593  1.00  0.00     0.201 A 
BRANCH  35  36
HETATM   36  N   UNL     1      43.913 -20.680   6.336  1.00  0.00    -0.379 N 
HETATM   37  H   UNL     1      43.265 -21.280   6.840  1.00  0.00     0.158 HD
HETATM   38  H   UNL     1      44.604 -21.177   5.776  1.00  0.00     0.158 HD
ENDBRANCH  35  36
ENDBRANCH   2  31
TORSDOF 10
ENDMDL
MODEL 10
REMARK VINA RESULT:      -7.1      6.853     10.666
REMARK  10 active torsions:
REMARK  status: ('A' for Active; 'I' for Inactive)
REMARK    1  A    between atoms: C_2  and  N_3 
REMARK    2  A    between atoms: N_3  and  C_5 
REMARK    3  A    between atoms: N_3  and  C_34 
REMARK    4  A    between atoms: C_5  and  C_6 
REMARK    5  A    between atoms: N_7  and  C_8 
REMARK    6  A    between atoms: C_12  and  N_13 
REMARK    7  A    between atoms: C_16  and  C_17 
REMARK       I    between atoms: C_17  and  N_18 
REMARK    8  A    between atoms: N_18  and  N_19 
REMARK    9  A    between atoms: C_20  and  C_21 
REMARK   10  A    between atoms: C_23  and  C_24 
ROOT
HETATM    1  C   UNL     1      38.325 -10.930   2.879  1.00  0.00     0.096 A 
HETATM    2  N   UNL     1      37.531  -9.916   3.410  1.00  0.00    -0.215 N 
HETATM    3  N   UNL     1      37.737  -9.859   4.753  1.00  0.00     0.012 NA
HETATM    4  N   UNL     1      38.692 -10.713   5.085  1.00  0.00    -0.152 NA
HETATM    5  C   UNL     1      39.075 -11.378   3.959  1.00  0.00     0.170 A 
ENDROOT
BRANCH   5   6
HETATM    6  C   UNL     1      40.125 -12.388   3.929  1.00  0.00     0.293 C 
HETATM    7  N   UNL     1      39.943 -13.423   4.828  1.00  0.00    -0.242 N 
HETATM    8  H   UNL     1      39.130 -13.437   5.441  1.00  0.00     0.192 HD
HETATM    9  O   UNL     1      41.083 -12.257   3.171  1.00  0.00    -0.264 OA
BRANCH   7  10
HETATM   10  N   UNL     1      40.868 -14.424   4.880  1.00  0.00    -0.181 NA
HETATM   11  C   UNL     1      41.707 -14.391   5.867  1.00  0.00     0.175 C 
BRANCH  11  12
HETATM   12  C   UNL     1      42.703 -15.414   5.999  1.00  0.00     0.095 A 
HETATM   13  O   UNL     1      42.732 -16.411   5.068  1.00  0.00    -0.309 OA
HETATM   14  C   UNL     1      43.751 -17.263   5.402  1.00  0.00     0.086 A 
HETATM   15  C   UNL     1      44.375 -16.800   6.545  1.00  0.00     0.041 A 
HETATM   16  C   UNL     1      43.700 -15.618   6.930  1.00  0.00     0.041 A 
BRANCH  14  17
HETATM   17  C   UNL     1      43.950 -18.420   4.531  1.00  0.00    -0.002 A 
HETATM   18  C   UNL     1      43.446 -18.444   3.221  1.00  0.00     0.015 A 
HETATM   19  C   UNL     1      43.634 -19.560   2.397  1.00  0.00     0.020 A 
HETATM   20  C   UNL     1      44.329 -20.665   2.878  1.00  0.00     0.011 A 
HETATM   21 BR   UNL     1      44.581 -22.174   1.769  1.00  0.00    -0.051 Br
HETATM   22  C   UNL     1      44.840 -20.664   4.173  1.00  0.00     0.020 A 
HETATM   23  C   UNL     1      44.649 -19.546   4.993  1.00  0.00     0.015 A 
ENDBRANCH  14  17
ENDBRANCH  11  12
ENDBRANCH   7  10
ENDBRANCH   5   6
BRANCH   1  24
HETATM   24  C   UNL     1      38.262 -11.439   1.488  1.00  0.00     0.296 C 
BRANCH  24  25
HETATM   25  N   UNL     1      36.984 -12.165   1.097  1.00  0.00    -0.066 N 
HETATM   26  H   UNL     1      36.393 -12.189   1.941  1.00  0.00     0.280 HD
BRANCH  25  27
HETATM   27  C   UNL     1      37.276 -13.609   0.707  1.00  0.00     0.231 C 
HETATM   28  C   UNL     1      38.728 -13.970   0.972  1.00  0.00     0.034 C 
ENDBRANCH  25  27
BRANCH  25  29
HETATM   29  C   UNL     1      36.220 -11.444  -0.004  1.00  0.00     0.231 C 
HETATM   30  C   UNL     1      34.791 -11.152   0.424  1.00  0.00     0.034 C 
ENDBRANCH  25  29
ENDBRANCH  24  25
ENDBRANCH   1  24
BRANCH   2  31
HETATM   31  C   UNL     1      36.676  -9.016   2.731  1.00  0.00     0.225 A 
HETATM   32  N   UNL     1      37.145  -8.302   1.703  1.00  0.00    -0.081 NA
HETATM   33  O   UNL     1      36.046  -7.531   1.311  1.00  0.00    -0.103 OA
HETATM   34  N   UNL     1      34.948  -7.772   2.125  1.00  0.00    -0.083 NA
HETATM   35  C   UNL     1      35.338  -8.690   3.007  1.00  0.00     0.201 A 
BRANCH  35  36
HETATM   36  N   UNL     1      34.558  -9.199   3.972  1.00  0.00    -0.379 N 
HETATM   37  H   UNL     1      33.551  -9.255   3.842  1.00  0.00     0.158 HD
HETATM   38  H   UNL     1      34.876  -9.394   4.919  1.00  0.00     0.158 HD
ENDBRANCH  35  36
ENDBRANCH   2  31
TORSDOF 10
ENDMDL
