MODEL 1
REMARK VINA RESULT:      -9.1      0.000      0.000
REMARK  8 active torsions:
REMARK  status: ('A' for Active; 'I' for Inactive)
REMARK    1  A    between atoms: C_4  and  C_5 
REMARK    2  A    between atoms: C_5  and  N_6 
REMARK    3  A    between atoms: N_10  and  C_12 
REMARK    4  A    between atoms: C_12  and  C_13 
REMARK       I    between atoms: C_13  and  N_14 
REMARK    5  A    between atoms: N_14  and  C_15 
REMARK    6  A    between atoms: C_17  and  S_18 
REMARK    7  A    between atoms: S_18  and  C_19 
REMARK    8  A    between atoms: C_22  and  N_23 
ROOT
HETATM    1  C   UNL     1      39.535 -11.517   7.020  1.00  0.00     0.249 C 
HETATM    2  N   UNL     1      40.013 -12.798   7.098  1.00  0.00    -0.304 N 
HETATM    3  O   UNL     1      39.230 -10.859   6.024  1.00  0.00    -0.271 OA
HETATM    4  H   UNL     1      40.199 -13.278   7.969  1.00  0.00     0.171 HD
ENDROOT
BRANCH   2   5
HETATM    5  C   UNL     1      40.362 -13.500   5.974  1.00  0.00     0.174 A 
HETATM    6  S   UNL     1      41.971 -13.255   5.475  1.00  0.00    -0.038 SA
HETATM    7  C   UNL     1      41.668 -14.222   4.093  1.00  0.00     0.125 A 
HETATM    8  C   UNL     1      40.371 -14.691   4.141  1.00  0.00     0.151 A 
HETATM    9  N   UNL     1      39.627 -14.289   5.241  1.00  0.00    -0.234 NA
BRANCH   7  10
HETATM   10  S   UNL     1      42.956 -14.412   2.899  1.00  0.00     0.214 S 
HETATM   11  O   UNL     1      42.330 -14.044   1.646  1.00  0.00    -0.217 OA
HETATM   12  O   UNL     1      44.113 -13.713   3.418  1.00  0.00    -0.217 OA
BRANCH  10  13
HETATM   13  C   UNL     1      43.316 -16.149   2.858  1.00  0.00     0.065 A 
HETATM   14  C   UNL     1      43.594 -16.767   1.634  1.00  0.00     0.026 A 
HETATM   15  C   UNL     1      43.903 -18.130   1.601  1.00  0.00     0.037 A 
HETATM   16  C   UNL     1      43.945 -18.861   2.797  1.00  0.00     0.102 A 
HETATM   17  C   UNL     1      43.688 -18.234   4.026  1.00  0.00     0.037 A 
HETATM   18  C   UNL     1      43.377 -16.871   4.057  1.00  0.00     0.026 A 
BRANCH  16  19
HETATM   19  N   UNL     1      44.254 -20.298   2.763  1.00  0.00    -0.116 N 
HETATM   20  O   UNL     1      43.842 -20.949   1.794  1.00  0.00    -0.532 OA
HETATM   21  O   UNL     1      44.882 -20.771   3.720  1.00  0.00    -0.532 OA
ENDBRANCH  16  19
ENDBRANCH  10  13
ENDBRANCH   7  10
ENDBRANCH   2   5
BRANCH   1  22
HETATM   22  C   UNL     1      39.359 -10.816   8.368  1.00  0.00     0.337 C 
BRANCH  22  23
HETATM   23  N   UNL     1      40.614 -11.069   9.250  1.00  0.00    -0.060 N 
HETATM   24  C   UNL     1      41.800 -10.210   8.812  1.00  0.00     0.263 C 
HETATM   25  C   UNL     1      43.045 -10.497   9.681  1.00  0.00     0.263 C 
HETATM   26  N   UNL     1      42.737 -10.350  11.172  1.00  0.00    -0.064 N 
HETATM   27  H   UNL     1      43.581 -10.691  11.660  1.00  0.00     0.280 HD
HETATM   28  C   UNL     1      41.589 -11.260  11.593  1.00  0.00     0.263 C 
HETATM   29  C   UNL     1      40.315 -11.024  10.736  1.00  0.00     0.263 C 
HETATM   30  H   UNL     1      40.858 -12.048   8.981  1.00  0.00     0.280 HD
BRANCH  26  31
HETATM   31  C   UNL     1      42.580  -8.921  11.679  1.00  0.00     0.273 C 
BRANCH  31  32
HETATM   32  C   UNL     1      42.138  -8.825  13.110  1.00  0.00    -0.033 A 
HETATM   33  C   UNL     1      42.959  -9.313  14.141  1.00  0.00     0.009 A 
HETATM   34  C   UNL     1      42.542  -9.244  15.470  1.00  0.00     0.001 A 
HETATM   35  C   UNL     1      41.305  -8.685  15.784  1.00  0.00     0.000 A 
HETATM   36  C   UNL     1      40.488  -8.187  14.773  1.00  0.00     0.001 A 
HETATM   37  C   UNL     1      40.901  -8.251  13.441  1.00  0.00     0.009 A 
ENDBRANCH  31  32
ENDBRANCH  26  31
ENDBRANCH  22  23
ENDBRANCH   1  22
TORSDOF 8
ENDMDL
MODEL 2
REMARK VINA RESULT:      -8.8      6.236     10.538
REMARK  8 active torsions:
REMARK  status: ('A' for Active; 'I' for Inactive)
REMARK    1  A    between atoms: C_4  and  C_5 
REMARK    2  A    between atoms: C_5  and  N_6 
REMARK    3  A    between atoms: N_10  and  C_12 
REMARK    4  A    between atoms: C_12  and  C_13 
REMARK       I    between atoms: C_13  and  N_14 
REMARK    5  A    between atoms: N_14  and  C_15 
REMARK    6  A    between atoms: C_17  and  S_18 
REMARK    7  A    between atoms: S_18  and  C_19 
REMARK    8  A    between atoms: C_22  and  N_23 
ROOT
HETATM    1  C   UNL     1      42.390 -13.422   3.246  1.00  0.00     0.249 C 
HETATM    2  N   UNL     1      41.314 -13.063   2.479  1.00  0.00    -0.304 N 
HETATM    3  O   UNL     1      43.549 -13.656   2.901  1.00  0.00    -0.271 OA
HETATM    4  H   UNL     1      40.400 -12.848   2.856  1.00  0.00     0.171 HD
ENDROOT
BRANCH   2   5
HETATM    5  C   UNL     1      41.382 -13.059   1.110  1.00  0.00     0.174 A 
HETATM    6  S   UNL     1      40.659 -14.413   0.375  1.00  0.00    -0.038 SA
HETATM    7  C   UNL     1      41.203 -13.852  -1.149  1.00  0.00     0.125 A 
HETATM    8  C   UNL     1      41.861 -12.649  -0.983  1.00  0.00     0.151 A 
HETATM    9  N   UNL     1      41.943 -12.185   0.322  1.00  0.00    -0.234 NA
BRANCH   7  10
HETATM   10  S   UNL     1      40.894 -14.849  -2.574  1.00  0.00     0.214 S 
HETATM   11  O   UNL     1      41.865 -14.387  -3.544  1.00  0.00    -0.217 OA
HETATM   12  O   UNL     1      40.850 -16.223  -2.120  1.00  0.00    -0.217 OA
BRANCH  10  13
HETATM   13  C   UNL     1      39.275 -14.387  -3.137  1.00  0.00     0.065 A 
HETATM   14  C   UNL     1      38.845 -13.064  -2.987  1.00  0.00     0.026 A 
HETATM   15  C   UNL     1      37.581 -12.691  -3.452  1.00  0.00     0.037 A 
HETATM   16  C   UNL     1      36.762 -13.643  -4.077  1.00  0.00     0.102 A 
HETATM   17  C   UNL     1      37.205 -14.964  -4.246  1.00  0.00     0.037 A 
HETATM   18  C   UNL     1      38.469 -15.336  -3.779  1.00  0.00     0.026 A 
BRANCH  16  19
HETATM   19  N   UNL     1      35.426 -13.256  -4.552  1.00  0.00    -0.116 N 
HETATM   20  O   UNL     1      35.123 -12.057  -4.497  1.00  0.00    -0.532 OA
HETATM   21  O   UNL     1      34.678 -14.159  -4.951  1.00  0.00    -0.532 OA
ENDBRANCH  16  19
ENDBRANCH  10  13
ENDBRANCH   7  10
ENDBRANCH   2   5
BRANCH   1  22
HETATM   22  C   UNL     1      42.097 -13.542   4.744  1.00  0.00     0.337 C 
BRANCH  22  23
HETATM   23  N   UNL     1      42.129 -15.040   5.157  1.00  0.00    -0.060 N 
HETATM   24  C   UNL     1      41.510 -15.940   4.086  1.00  0.00     0.263 C 
HETATM   25  C   UNL     1      41.525 -17.421   4.528  1.00  0.00     0.263 C 
HETATM   26  N   UNL     1      42.930 -17.873   4.929  1.00  0.00    -0.064 N 
HETATM   27  H   UNL     1      42.807 -18.817   5.331  1.00  0.00     0.280 HD
HETATM   28  C   UNL     1      43.500 -16.995   6.037  1.00  0.00     0.263 C 
HETATM   29  C   UNL     1      43.491 -15.491   5.650  1.00  0.00     0.263 C 
HETATM   30  H   UNL     1      41.457 -15.047   5.956  1.00  0.00     0.280 HD
BRANCH  26  31
HETATM   31  C   UNL     1      43.909 -18.094   3.782  1.00  0.00     0.273 C 
BRANCH  31  32
HETATM   32  C   UNL     1      44.045 -19.527   3.360  1.00  0.00    -0.033 A 
HETATM   33  C   UNL     1      44.656 -20.464   4.212  1.00  0.00     0.009 A 
HETATM   34  C   UNL     1      44.801 -21.792   3.814  1.00  0.00     0.001 A 
HETATM   35  C   UNL     1      44.337 -22.201   2.566  1.00  0.00     0.000 A 
HETATM   36  C   UNL     1      43.719 -21.286   1.718  1.00  0.00     0.001 A 
HETATM   37  C   UNL     1      43.568 -19.956   2.111  1.00  0.00     0.009 A 
ENDBRANCH  31  32
ENDBRANCH  26  31
ENDBRANCH  22  23
ENDBRANCH   1  22
TORSDOF 8
ENDMDL
MODEL 3
REMARK VINA RESULT:      -8.5      3.391     11.262
REMARK  8 active torsions:
REMARK  status: ('A' for Active; 'I' for Inactive)
REMARK    1  A    between atoms: C_4  and  C_5 
REMARK    2  A    between atoms: C_5  and  N_6 
REMARK    3  A    between atoms: N_10  and  C_12 
REMARK    4  A    between atoms: C_12  and  C_13 
REMARK       I    between atoms: C_13  and  N_14 
REMARK    5  A    between atoms: N_14  and  C_15 
REMARK    6  A    between atoms: C_17  and  S_18 
REMARK    7  A    between atoms: S_18  and  C_19 
REMARK    8  A    between atoms: C_22  and  N_23 
ROOT
HETATM    1  C   UNL     1      41.320 -12.354   3.311  1.00  0.00     0.249 C 
HETATM    2  N   UNL     1      42.086 -11.795   4.299  1.00  0.00    -0.304 N 
HETATM    3  O   UNL     1      40.105 -12.268   3.125  1.00  0.00    -0.271 OA
HETATM    4  H   UNL     1      43.093 -11.885   4.349  1.00  0.00     0.171 HD
ENDROOT
BRANCH   2   5
HETATM    5  C   UNL     1      41.518 -11.137   5.358  1.00  0.00     0.174 A 
HETATM    6  S   UNL     1      40.797 -12.163   6.508  1.00  0.00    -0.038 SA
HETATM    7  C   UNL     1      40.235 -10.785   7.357  1.00  0.00     0.125 A 
HETATM    8  C   UNL     1      40.678  -9.645   6.716  1.00  0.00     0.151 A 
HETATM    9  N   UNL     1      41.436  -9.853   5.574  1.00  0.00    -0.234 NA
BRANCH   7  10
HETATM   10  S   UNL     1      39.222 -11.029   8.783  1.00  0.00     0.214 S 
HETATM   11  O   UNL     1      38.263  -9.946   8.721  1.00  0.00    -0.217 OA
HETATM   12  O   UNL     1      38.817 -12.419   8.774  1.00  0.00    -0.217 OA
BRANCH  10  13
HETATM   13  C   UNL     1      40.286 -10.758  10.176  1.00  0.00     0.065 A 
HETATM   14  C   UNL     1      41.674 -10.761   9.995  1.00  0.00     0.026 A 
HETATM   15  C   UNL     1      42.515 -10.523  11.085  1.00  0.00     0.037 A 
HETATM   16  C   UNL     1      41.959 -10.269  12.348  1.00  0.00     0.102 A 
HETATM   17  C   UNL     1      40.567 -10.244  12.523  1.00  0.00     0.037 A 
HETATM   18  C   UNL     1      39.726 -10.485  11.431  1.00  0.00     0.026 A 
BRANCH  16  19
HETATM   19  N   UNL     1      42.842 -10.034  13.500  1.00  0.00    -0.116 N 
HETATM   20  O   UNL     1      42.421 -10.354  14.619  1.00  0.00    -0.532 OA
HETATM   21  O   UNL     1      43.940  -9.505  13.279  1.00  0.00    -0.532 OA
ENDBRANCH  16  19
ENDBRANCH  10  13
ENDBRANCH   7  10
ENDBRANCH   2   5
BRANCH   1  22
HETATM   22  C   UNL     1      42.096 -13.199   2.299  1.00  0.00     0.337 C 
BRANCH  22  23
HETATM   23  N   UNL     1      41.674 -14.689   2.440  1.00  0.00    -0.060 N 
HETATM   24  C   UNL     1      42.146 -15.530   1.252  1.00  0.00     0.263 C 
HETATM   25  C   UNL     1      41.692 -16.999   1.397  1.00  0.00     0.263 C 
HETATM   26  N   UNL     1      42.123 -17.592   2.739  1.00  0.00    -0.064 N 
HETATM   27  H   UNL     1      41.661 -18.514   2.792  1.00  0.00     0.280 HD
HETATM   28  C   UNL     1      41.592 -16.767   3.906  1.00  0.00     0.263 C 
HETATM   29  C   UNL     1      42.005 -15.274   3.799  1.00  0.00     0.263 C 
HETATM   30  H   UNL     1      40.637 -14.618   2.342  1.00  0.00     0.280 HD
BRANCH  26  31
HETATM   31  C   UNL     1      43.605 -17.924   2.873  1.00  0.00     0.273 C 
BRANCH  31  32
HETATM   32  C   UNL     1      43.902 -19.394   2.899  1.00  0.00    -0.033 A 
HETATM   33  C   UNL     1      43.558 -20.208   1.806  1.00  0.00     0.009 A 
HETATM   34  C   UNL     1      43.814 -21.578   1.836  1.00  0.00     0.001 A 
HETATM   35  C   UNL     1      44.419 -22.150   2.953  1.00  0.00     0.000 A 
HETATM   36  C   UNL     1      44.777 -21.353   4.037  1.00  0.00     0.001 A 
HETATM   37  C   UNL     1      44.525 -19.980   4.012  1.00  0.00     0.009 A 
ENDBRANCH  31  32
ENDBRANCH  26  31
ENDBRANCH  22  23
ENDBRANCH   1  22
TORSDOF 8
ENDMDL
MODEL 4
REMARK VINA RESULT:      -8.4      1.688      2.291
REMARK  8 active torsions:
REMARK  status: ('A' for Active; 'I' for Inactive)
REMARK    1  A    between atoms: C_4  and  C_5 
REMARK    2  A    between atoms: C_5  and  N_6 
REMARK    3  A    between atoms: N_10  and  C_12 
REMARK    4  A    between atoms: C_12  and  C_13 
REMARK       I    between atoms: C_13  and  N_14 
REMARK    5  A    between atoms: N_14  and  C_15 
REMARK    6  A    between atoms: C_17  and  S_18 
REMARK    7  A    between atoms: S_18  and  C_19 
REMARK    8  A    between atoms: C_22  and  N_23 
ROOT
HETATM    1  C   UNL     1      41.040 -11.972   6.358  1.00  0.00     0.249 C 
HETATM    2  N   UNL     1      42.011 -12.933   6.259  1.00  0.00    -0.304 N 
HETATM    3  O   UNL     1      39.854 -12.027   6.029  1.00  0.00    -0.271 OA
HETATM    4  H   UNL     1      42.958 -12.813   6.596  1.00  0.00     0.171 HD
ENDROOT
BRANCH   2   5
HETATM    5  C   UNL     1      41.785 -14.113   5.601  1.00  0.00     0.174 A 
HETATM    6  S   UNL     1      42.571 -14.232   4.097  1.00  0.00    -0.038 SA
HETATM    7  C   UNL     1      41.792 -15.734   3.830  1.00  0.00     0.125 A 
HETATM    8  C   UNL     1      41.020 -16.048   4.931  1.00  0.00     0.151 A 
HETATM    9  N   UNL     1      41.037 -15.119   5.961  1.00  0.00    -0.234 NA
BRANCH   7  10
HETATM   10  S   UNL     1      42.048 -16.555   2.287  1.00  0.00     0.214 S 
HETATM   11  O   UNL     1      40.710 -16.852   1.820  1.00  0.00    -0.217 OA
HETATM   12  O   UNL     1      42.966 -15.734   1.525  1.00  0.00    -0.217 OA
BRANCH  10  13
HETATM   13  C   UNL     1      42.856 -18.083   2.688  1.00  0.00     0.065 A 
HETATM   14  C   UNL     1      43.458 -18.237   3.942  1.00  0.00     0.026 A 
HETATM   15  C   UNL     1      44.072 -19.448   4.271  1.00  0.00     0.037 A 
HETATM   16  C   UNL     1      44.067 -20.503   3.347  1.00  0.00     0.102 A 
HETATM   17  C   UNL     1      43.443 -20.355   2.099  1.00  0.00     0.037 A 
HETATM   18  C   UNL     1      42.830 -19.141   1.770  1.00  0.00     0.026 A 
BRANCH  16  19
HETATM   19  N   UNL     1      44.727 -21.772   3.685  1.00  0.00    -0.116 N 
HETATM   20  O   UNL     1      44.600 -22.713   2.891  1.00  0.00    -0.532 OA
HETATM   21  O   UNL     1      45.344 -21.828   4.757  1.00  0.00    -0.532 OA
ENDBRANCH  16  19
ENDBRANCH  10  13
ENDBRANCH   7  10
ENDBRANCH   2   5
BRANCH   1  22
HETATM   22  C   UNL     1      41.507 -10.649   6.968  1.00  0.00     0.337 C 
BRANCH  22  23
HETATM   23  N   UNL     1      40.554 -10.251   8.129  1.00  0.00    -0.060 N 
HETATM   24  C   UNL     1      41.049 -10.777   9.478  1.00  0.00     0.263 C 
HETATM   25  C   UNL     1      40.073 -10.397  10.614  1.00  0.00     0.263 C 
HETATM   26  N   UNL     1      39.800  -8.893  10.640  1.00  0.00    -0.064 N 
HETATM   27  H   UNL     1      39.045  -8.765  11.334  1.00  0.00     0.280 HD
HETATM   28  C   UNL     1      39.254  -8.405   9.303  1.00  0.00     0.263 C 
HETATM   29  C   UNL     1      40.190  -8.779   8.121  1.00  0.00     0.263 C 
HETATM   30  H   UNL     1      39.706 -10.814   7.900  1.00  0.00     0.280 HD
BRANCH  26  31
HETATM   31  C   UNL     1      40.931  -8.021  11.174  1.00  0.00     0.273 C 
BRANCH  31  32
HETATM   32  C   UNL     1      41.505  -8.494  12.476  1.00  0.00    -0.033 A 
HETATM   33  C   UNL     1      42.822  -8.981  12.537  1.00  0.00     0.009 A 
HETATM   34  C   UNL     1      43.352  -9.440  13.742  1.00  0.00     0.001 A 
HETATM   35  C   UNL     1      42.576  -9.416  14.898  1.00  0.00     0.000 A 
HETATM   36  C   UNL     1      41.274  -8.924  14.855  1.00  0.00     0.001 A 
HETATM   37  C   UNL     1      40.739  -8.461  13.652  1.00  0.00     0.009 A 
ENDBRANCH  31  32
ENDBRANCH  26  31
ENDBRANCH  22  23
ENDBRANCH   1  22
TORSDOF 8
ENDMDL
MODEL 5
REMARK VINA RESULT:      -8.3      5.766      9.297
REMARK  8 active torsions:
REMARK  status: ('A' for Active; 'I' for Inactive)
REMARK    1  A    between atoms: C_4  and  C_5 
REMARK    2  A    between atoms: C_5  and  N_6 
REMARK    3  A    between atoms: N_10  and  C_12 
REMARK    4  A    between atoms: C_12  and  C_13 
REMARK       I    between atoms: C_13  and  N_14 
REMARK    5  A    between atoms: N_14  and  C_15 
REMARK    6  A    between atoms: C_17  and  S_18 
REMARK    7  A    between atoms: S_18  and  C_19 
REMARK    8  A    between atoms: C_22  and  N_23 
ROOT
HETATM    1  C   UNL     1      40.170 -13.098   4.404  1.00  0.00     0.249 C 
HETATM    2  N   UNL     1      40.853 -11.974   4.026  1.00  0.00    -0.304 N 
HETATM    3  O   UNL     1      39.501 -13.871   3.716  1.00  0.00    -0.271 OA
HETATM    4  H   UNL     1      41.415 -11.418   4.658  1.00  0.00     0.171 HD
ENDROOT
BRANCH   2   5
HETATM    5  C   UNL     1      40.748 -11.465   2.758  1.00  0.00     0.174 A 
HETATM    6  S   UNL     1      41.661 -12.307   1.595  1.00  0.00    -0.038 SA
HETATM    7  C   UNL     1      41.204 -11.144   0.423  1.00  0.00     0.125 A 
HETATM    8  C   UNL     1      40.355 -10.223   1.003  1.00  0.00     0.151 A 
HETATM    9  N   UNL     1      40.078 -10.425   2.347  1.00  0.00    -0.234 NA
BRANCH   7  10
HETATM   10  S   UNL     1      41.877 -11.277  -1.205  1.00  0.00     0.214 S 
HETATM   11  O   UNL     1      41.567 -10.003  -1.819  1.00  0.00    -0.217 OA
HETATM   12  O   UNL     1      43.237 -11.751  -1.056  1.00  0.00    -0.217 OA
BRANCH  10  13
HETATM   13  C   UNL     1      40.924 -12.537  -2.013  1.00  0.00     0.065 A 
HETATM   14  C   UNL     1      39.538 -12.576  -1.832  1.00  0.00     0.026 A 
HETATM   15  C   UNL     1      38.781 -13.551  -2.487  1.00  0.00     0.037 A 
HETATM   16  C   UNL     1      39.417 -14.473  -3.331  1.00  0.00     0.102 A 
HETATM   17  C   UNL     1      40.806 -14.418  -3.529  1.00  0.00     0.037 A 
HETATM   18  C   UNL     1      41.562 -13.442  -2.872  1.00  0.00     0.026 A 
BRANCH  16  19
HETATM   19  N   UNL     1      38.625 -15.509  -4.008  1.00  0.00    -0.116 N 
HETATM   20  O   UNL     1      39.227 -16.296  -4.750  1.00  0.00    -0.532 OA
HETATM   21  O   UNL     1      37.402 -15.511  -3.816  1.00  0.00    -0.532 OA
ENDBRANCH  16  19
ENDBRANCH  10  13
ENDBRANCH   7  10
ENDBRANCH   2   5
BRANCH   1  22
HETATM   22  C   UNL     1      40.258 -13.432   5.895  1.00  0.00     0.337 C 
BRANCH  22  23
HETATM   23  N   UNL     1      41.312 -14.553   6.111  1.00  0.00    -0.060 N 
HETATM   24  C   UNL     1      40.689 -15.947   6.016  1.00  0.00     0.263 C 
HETATM   25  C   UNL     1      41.746 -17.047   6.263  1.00  0.00     0.263 C 
HETATM   26  N   UNL     1      42.953 -16.883   5.338  1.00  0.00    -0.064 N 
HETATM   27  H   UNL     1      43.647 -17.571   5.671  1.00  0.00     0.280 HD
HETATM   28  C   UNL     1      43.590 -15.507   5.494  1.00  0.00     0.263 C 
HETATM   29  C   UNL     1      42.563 -14.362   5.274  1.00  0.00     0.263 C 
HETATM   30  H   UNL     1      41.552 -14.418   7.118  1.00  0.00     0.280 HD
BRANCH  26  31
HETATM   31  C   UNL     1      42.731 -17.273   3.880  1.00  0.00     0.273 C 
BRANCH  31  32
HETATM   32  C   UNL     1      43.353 -18.583   3.496  1.00  0.00    -0.033 A 
HETATM   33  C   UNL     1      43.014 -19.201   2.280  1.00  0.00     0.009 A 
HETATM   34  C   UNL     1      43.575 -20.428   1.930  1.00  0.00     0.001 A 
HETATM   35  C   UNL     1      44.482 -21.050   2.786  1.00  0.00     0.000 A 
HETATM   36  C   UNL     1      44.836 -20.441   3.987  1.00  0.00     0.001 A 
HETATM   37  C   UNL     1      44.279 -19.212   4.342  1.00  0.00     0.009 A 
ENDBRANCH  31  32
ENDBRANCH  26  31
ENDBRANCH  22  23
ENDBRANCH   1  22
TORSDOF 8
ENDMDL
MODEL 6
REMARK VINA RESULT:      -8.3      5.853      9.772
REMARK  8 active torsions:
REMARK  status: ('A' for Active; 'I' for Inactive)
REMARK    1  A    between atoms: C_4  and  C_5 
REMARK    2  A    between atoms: C_5  and  N_6 
REMARK    3  A    between atoms: N_10  and  C_12 
REMARK    4  A    between atoms: C_12  and  C_13 
REMARK       I    between atoms: C_13  and  N_14 
REMARK    5  A    between atoms: N_14  and  C_15 
REMARK    6  A    between atoms: C_17  and  S_18 
REMARK    7  A    between atoms: S_18  and  C_19 
REMARK    8  A    between atoms: C_22  and  N_23 
ROOT
HETATM    1  C   UNL     1      39.938 -12.843   4.684  1.00  0.00     0.249 C 
HETATM    2  N   UNL     1      41.055 -13.597   4.441  1.00  0.00    -0.304 N 
HETATM    3  O   UNL     1      39.108 -12.949   5.588  1.00  0.00    -0.271 OA
HETATM    4  H   UNL     1      41.708 -13.410   3.692  1.00  0.00     0.171 HD
ENDROOT
BRANCH   2   5
HETATM    5  C   UNL     1      41.320 -14.734   5.159  1.00  0.00     0.174 A 
HETATM    6  S   UNL     1      42.971 -14.977   5.488  1.00  0.00    -0.038 SA
HETATM    7  C   UNL     1      42.586 -16.488   6.200  1.00  0.00     0.125 A 
HETATM    8  C   UNL     1      41.218 -16.671   6.167  1.00  0.00     0.151 A 
HETATM    9  N   UNL     1      40.489 -15.645   5.584  1.00  0.00    -0.234 NA
BRANCH   7  10
HETATM   10  S   UNL     1      43.907 -17.508   6.779  1.00  0.00     0.214 S 
HETATM   11  O   UNL     1      45.070 -16.648   6.712  1.00  0.00    -0.217 OA
HETATM   12  O   UNL     1      43.460 -18.106   8.019  1.00  0.00    -0.217 OA
BRANCH  10  13
HETATM   13  C   UNL     1      44.086 -18.790   5.565  1.00  0.00     0.065 A 
HETATM   14  C   UNL     1      44.475 -20.072   5.968  1.00  0.00     0.026 A 
HETATM   15  C   UNL     1      44.592 -21.091   5.019  1.00  0.00     0.037 A 
HETATM   16  C   UNL     1      44.305 -20.821   3.672  1.00  0.00     0.102 A 
HETATM   17  C   UNL     1      43.893 -19.540   3.273  1.00  0.00     0.037 A 
HETATM   18  C   UNL     1      43.778 -18.521   4.225  1.00  0.00     0.026 A 
BRANCH  16  19
HETATM   19  N   UNL     1      44.443 -21.887   2.669  1.00  0.00    -0.116 N 
HETATM   20  O   UNL     1      44.187 -21.602   1.492  1.00  0.00    -0.532 OA
HETATM   21  O   UNL     1      44.779 -23.009   3.070  1.00  0.00    -0.532 OA
ENDBRANCH  16  19
ENDBRANCH  10  13
ENDBRANCH   7  10
ENDBRANCH   2   5
BRANCH   1  22
HETATM   22  C   UNL     1      39.700 -11.710   3.683  1.00  0.00     0.337 C 
BRANCH  22  23
HETATM   23  N   UNL     1      38.717 -12.193   2.581  1.00  0.00    -0.060 N 
HETATM   24  C   UNL     1      38.547 -11.153   1.472  1.00  0.00     0.263 C 
HETATM   25  C   UNL     1      37.545 -11.640   0.402  1.00  0.00     0.263 C 
HETATM   26  N   UNL     1      37.929 -13.016  -0.143  1.00  0.00    -0.064 N 
HETATM   27  H   UNL     1      37.136 -13.304  -0.739  1.00  0.00     0.280 HD
HETATM   28  C   UNL     1      38.035 -14.046   0.975  1.00  0.00     0.263 C 
HETATM   29  C   UNL     1      39.019 -13.596   2.089  1.00  0.00     0.263 C 
HETATM   30  H   UNL     1      37.812 -12.201   3.102  1.00  0.00     0.280 HD
BRANCH  26  31
HETATM   31  C   UNL     1      39.122 -13.044  -1.093  1.00  0.00     0.273 C 
BRANCH  31  32
HETATM   32  C   UNL     1      39.044 -14.115  -2.140  1.00  0.00    -0.033 A 
HETATM   33  C   UNL     1      37.837 -14.361  -2.817  1.00  0.00     0.009 A 
HETATM   34  C   UNL     1      37.757 -15.370  -3.776  1.00  0.00     0.001 A 
HETATM   35  C   UNL     1      38.879 -16.141  -4.073  1.00  0.00     0.000 A 
HETATM   36  C   UNL     1      40.084 -15.899  -3.418  1.00  0.00     0.001 A 
HETATM   37  C   UNL     1      40.171 -14.890  -2.459  1.00  0.00     0.009 A 
ENDBRANCH  31  32
ENDBRANCH  26  31
ENDBRANCH  22  23
ENDBRANCH   1  22
TORSDOF 8
ENDMDL
MODEL 7
REMARK VINA RESULT:      -8.2      3.352     10.720
REMARK  8 active torsions:
REMARK  status: ('A' for Active; 'I' for Inactive)
REMARK    1  A    between atoms: C_4  and  C_5 
REMARK    2  A    between atoms: C_5  and  N_6 
REMARK    3  A    between atoms: N_10  and  C_12 
REMARK    4  A    between atoms: C_12  and  C_13 
REMARK       I    between atoms: C_13  and  N_14 
REMARK    5  A    between atoms: N_14  and  C_15 
REMARK    6  A    between atoms: C_17  and  S_18 
REMARK    7  A    between atoms: S_18  and  C_19 
REMARK    8  A    between atoms: C_22  and  N_23 
ROOT
HETATM    1  C   UNL     1      40.867 -13.554   3.514  1.00  0.00     0.249 C 
HETATM    2  N   UNL     1      40.086 -13.269   4.602  1.00  0.00    -0.304 N 
HETATM    3  O   UNL     1      41.559 -12.797   2.832  1.00  0.00    -0.271 OA
HETATM    4  H   UNL     1      39.580 -13.968   5.130  1.00  0.00     0.171 HD
ENDROOT
BRANCH   2   5
HETATM    5  C   UNL     1      39.862 -11.978   5.003  1.00  0.00     0.174 A 
HETATM    6  S   UNL     1      40.999 -11.392   6.125  1.00  0.00    -0.038 SA
HETATM    7  C   UNL     1      40.093  -9.945   6.259  1.00  0.00     0.125 A 
HETATM    8  C   UNL     1      39.011 -10.005   5.403  1.00  0.00     0.151 A 
HETATM    9  N   UNL     1      38.894 -11.173   4.664  1.00  0.00    -0.234 NA
BRANCH   7  10
HETATM   10  S   UNL     1      40.626  -8.720   7.415  1.00  0.00     0.214 S 
HETATM   11  O   UNL     1      41.977  -8.409   6.999  1.00  0.00    -0.217 OA
HETATM   12  O   UNL     1      39.584  -7.715   7.467  1.00  0.00    -0.217 OA
BRANCH  10  13
HETATM   13  C   UNL     1      40.696  -9.545   8.984  1.00  0.00     0.065 A 
HETATM   14  C   UNL     1      41.938  -9.906   9.518  1.00  0.00     0.026 A 
HETATM   15  C   UNL     1      41.999 -10.532  10.766  1.00  0.00     0.037 A 
HETATM   16  C   UNL     1      40.816 -10.780  11.477  1.00  0.00     0.102 A 
HETATM   17  C   UNL     1      39.573 -10.397  10.950  1.00  0.00     0.037 A 
HETATM   18  C   UNL     1      39.513  -9.771   9.700  1.00  0.00     0.026 A 
BRANCH  16  19
HETATM   19  N   UNL     1      40.877 -11.454  12.782  1.00  0.00    -0.116 N 
HETATM   20  O   UNL     1      41.841 -11.198  13.514  1.00  0.00    -0.532 OA
HETATM   21  O   UNL     1      39.974 -12.256  13.054  1.00  0.00    -0.532 OA
ENDBRANCH  16  19
ENDBRANCH  10  13
ENDBRANCH   7  10
ENDBRANCH   2   5
BRANCH   1  22
HETATM   22  C   UNL     1      40.873 -15.027   3.098  1.00  0.00     0.337 C 
BRANCH  22  23
HETATM   23  N   UNL     1      41.528 -15.878   4.221  1.00  0.00    -0.060 N 
HETATM   24  C   UNL     1      41.362 -17.377   3.971  1.00  0.00     0.263 C 
HETATM   25  C   UNL     1      41.994 -18.205   5.113  1.00  0.00     0.263 C 
HETATM   26  N   UNL     1      43.452 -17.811   5.352  1.00  0.00    -0.064 N 
HETATM   27  H   UNL     1      43.733 -18.315   6.209  1.00  0.00     0.280 HD
HETATM   28  C   UNL     1      43.582 -16.323   5.656  1.00  0.00     0.263 C 
HETATM   29  C   UNL     1      42.945 -15.444   4.546  1.00  0.00     0.263 C 
HETATM   30  H   UNL     1      40.909 -15.656   5.033  1.00  0.00     0.280 HD
BRANCH  26  31
HETATM   31  C   UNL     1      44.451 -18.293   4.306  1.00  0.00     0.273 C 
BRANCH  31  32
HETATM   32  C   UNL     1      44.480 -19.782   4.129  1.00  0.00    -0.033 A 
HETATM   33  C   UNL     1      44.684 -20.625   5.235  1.00  0.00     0.009 A 
HETATM   34  C   UNL     1      44.733 -22.009   5.071  1.00  0.00     0.001 A 
HETATM   35  C   UNL     1      44.576 -22.566   3.804  1.00  0.00     0.000 A 
HETATM   36  C   UNL     1      44.360 -21.743   2.702  1.00  0.00     0.001 A 
HETATM   37  C   UNL     1      44.308 -20.358   2.860  1.00  0.00     0.009 A 
ENDBRANCH  31  32
ENDBRANCH  26  31
ENDBRANCH  22  23
ENDBRANCH   1  22
TORSDOF 8
ENDMDL
MODEL 8
REMARK VINA RESULT:      -8.2      2.219      3.482
REMARK  8 active torsions:
REMARK  status: ('A' for Active; 'I' for Inactive)
REMARK    1  A    between atoms: C_4  and  C_5 
REMARK    2  A    between atoms: C_5  and  N_6 
REMARK    3  A    between atoms: N_10  and  C_12 
REMARK    4  A    between atoms: C_12  and  C_13 
REMARK       I    between atoms: C_13  and  N_14 
REMARK    5  A    between atoms: N_14  and  C_15 
REMARK    6  A    between atoms: C_17  and  S_18 
REMARK    7  A    between atoms: S_18  and  C_19 
REMARK    8  A    between atoms: C_22  and  N_23 
ROOT
HETATM    1  C   UNL     1      40.534 -12.158   4.580  1.00  0.00     0.249 C 
HETATM    2  N   UNL     1      40.334 -13.509   4.489  1.00  0.00    -0.304 N 
HETATM    3  O   UNL     1      41.590 -11.524   4.552  1.00  0.00    -0.271 OA
HETATM    4  H   UNL     1      39.420 -13.943   4.479  1.00  0.00     0.171 HD
ENDROOT
BRANCH   2   5
HETATM    5  C   UNL     1      41.383 -14.390   4.496  1.00  0.00     0.174 A 
HETATM    6  S   UNL     1      41.342 -15.509   5.778  1.00  0.00    -0.038 SA
HETATM    7  C   UNL     1      42.866 -16.110   5.276  1.00  0.00     0.125 A 
HETATM    8  C   UNL     1      43.270 -15.435   4.141  1.00  0.00     0.151 A 
HETATM    9  N   UNL     1      42.400 -14.457   3.682  1.00  0.00    -0.234 NA
BRANCH   7  10
HETATM   10  S   UNL     1      43.635 -17.373   6.244  1.00  0.00     0.214 S 
HETATM   11  O   UNL     1      44.935 -16.823   6.568  1.00  0.00    -0.217 OA
HETATM   12  O   UNL     1      42.681 -17.754   7.265  1.00  0.00    -0.217 OA
BRANCH  10  13
HETATM   13  C   UNL     1      43.864 -18.745   5.142  1.00  0.00     0.065 A 
HETATM   14  C   UNL     1      43.429 -18.644   3.816  1.00  0.00     0.026 A 
HETATM   15  C   UNL     1      43.631 -19.713   2.939  1.00  0.00     0.037 A 
HETATM   16  C   UNL     1      44.280 -20.871   3.393  1.00  0.00     0.102 A 
HETATM   17  C   UNL     1      44.735 -20.961   4.717  1.00  0.00     0.037 A 
HETATM   18  C   UNL     1      44.531 -19.891   5.595  1.00  0.00     0.026 A 
BRANCH  16  19
HETATM   19  N   UNL     1      44.479 -22.003   2.476  1.00  0.00    -0.116 N 
HETATM   20  O   UNL     1      44.844 -23.079   2.966  1.00  0.00    -0.532 OA
HETATM   21  O   UNL     1      44.295 -21.800   1.269  1.00  0.00    -0.532 OA
ENDBRANCH  16  19
ENDBRANCH  10  13
ENDBRANCH   7  10
ENDBRANCH   2   5
BRANCH   1  22
HETATM   22  C   UNL     1      39.257 -11.329   4.735  1.00  0.00     0.337 C 
BRANCH  22  23
HETATM   23  N   UNL     1      39.196 -10.740   6.171  1.00  0.00    -0.060 N 
HETATM   24  C   UNL     1      39.639 -11.757   7.224  1.00  0.00     0.263 C 
HETATM   25  C   UNL     1      39.543 -11.161   8.647  1.00  0.00     0.263 C 
HETATM   26  N   UNL     1      40.305  -9.840   8.756  1.00  0.00    -0.064 N 
HETATM   27  H   UNL     1      40.067  -9.464   9.688  1.00  0.00     0.280 HD
HETATM   28  C   UNL     1      39.805  -8.825   7.734  1.00  0.00     0.263 C 
HETATM   29  C   UNL     1      39.862  -9.382   6.285  1.00  0.00     0.263 C 
HETATM   30  H   UNL     1      38.166 -10.626   6.302  1.00  0.00     0.280 HD
BRANCH  26  31
HETATM   31  C   UNL     1      41.825  -9.950   8.788  1.00  0.00     0.273 C 
BRANCH  31  32
HETATM   32  C   UNL     1      42.411  -9.917  10.169  1.00  0.00    -0.033 A 
HETATM   33  C   UNL     1      43.357 -10.879  10.563  1.00  0.00     0.009 A 
HETATM   34  C   UNL     1      43.888 -10.862  11.852  1.00  0.00     0.001 A 
HETATM   35  C   UNL     1      43.484  -9.886  12.759  1.00  0.00     0.000 A 
HETATM   36  C   UNL     1      42.557  -8.919  12.378  1.00  0.00     0.001 A 
HETATM   37  C   UNL     1      42.024  -8.929  11.089  1.00  0.00     0.009 A 
ENDBRANCH  31  32
ENDBRANCH  26  31
ENDBRANCH  22  23
ENDBRANCH   1  22
TORSDOF 8
ENDMDL
MODEL 9
REMARK VINA RESULT:      -7.9      1.944      2.418
REMARK  8 active torsions:
REMARK  status: ('A' for Active; 'I' for Inactive)
REMARK    1  A    between atoms: C_4  and  C_5 
REMARK    2  A    between atoms: C_5  and  N_6 
REMARK    3  A    between atoms: N_10  and  C_12 
REMARK    4  A    between atoms: C_12  and  C_13 
REMARK       I    between atoms: C_13  and  N_14 
REMARK    5  A    between atoms: N_14  and  C_15 
REMARK    6  A    between atoms: C_17  and  S_18 
REMARK    7  A    between atoms: S_18  and  C_19 
REMARK    8  A    between atoms: C_22  and  N_23 
ROOT
HETATM    1  C   UNL     1      39.785 -11.144   4.609  1.00  0.00     0.249 C 
HETATM    2  N   UNL     1      40.884 -11.957   4.683  1.00  0.00    -0.304 N 
HETATM    3  O   UNL     1      38.891 -11.118   3.762  1.00  0.00    -0.271 OA
HETATM    4  H   UNL     1      41.550 -11.936   5.444  1.00  0.00     0.171 HD
ENDROOT
BRANCH   2   5
HETATM    5  C   UNL     1      41.212 -12.810   3.662  1.00  0.00     0.174 A 
HETATM    6  S   UNL     1      40.280 -14.234   3.622  1.00  0.00    -0.038 SA
HETATM    7  C   UNL     1      41.247 -14.806   2.328  1.00  0.00     0.125 A 
HETATM    8  C   UNL     1      42.183 -13.846   2.000  1.00  0.00     0.151 A 
HETATM    9  N   UNL     1      42.145 -12.686   2.760  1.00  0.00    -0.234 NA
BRANCH   7  10
HETATM   10  S   UNL     1      40.940 -16.429   1.700  1.00  0.00     0.214 S 
HETATM   11  O   UNL     1      39.560 -16.687   2.055  1.00  0.00    -0.217 OA
HETATM   12  O   UNL     1      41.398 -16.438   0.326  1.00  0.00    -0.217 OA
BRANCH  10  13
HETATM   13  C   UNL     1      41.977 -17.512   2.649  1.00  0.00     0.065 A 
HETATM   14  C   UNL     1      42.905 -18.328   1.993  1.00  0.00     0.026 A 
HETATM   15  C   UNL     1      43.741 -19.163   2.739  1.00  0.00     0.037 A 
HETATM   16  C   UNL     1      43.651 -19.165   4.139  1.00  0.00     0.102 A 
HETATM   17  C   UNL     1      42.734 -18.329   4.796  1.00  0.00     0.037 A 
HETATM   18  C   UNL     1      41.897 -17.495   4.048  1.00  0.00     0.026 A 
BRANCH  16  19
HETATM   19  N   UNL     1      44.518 -20.055   4.924  1.00  0.00    -0.116 N 
HETATM   20  O   UNL     1      45.534 -20.497   4.373  1.00  0.00    -0.532 OA
HETATM   21  O   UNL     1      44.161 -20.327   6.078  1.00  0.00    -0.532 OA
ENDBRANCH  16  19
ENDBRANCH  10  13
ENDBRANCH   7  10
ENDBRANCH   2   5
BRANCH   1  22
HETATM   22  C   UNL     1      39.659 -10.131   5.749  1.00  0.00     0.337 C 
BRANCH  22  23
HETATM   23  N   UNL     1      40.296 -10.722   7.037  1.00  0.00    -0.060 N 
HETATM   24  C   UNL     1      41.654 -10.088   7.345  1.00  0.00     0.263 C 
HETATM   25  C   UNL     1      42.283 -10.710   8.612  1.00  0.00     0.263 C 
HETATM   26  N   UNL     1      41.326 -10.648   9.803  1.00  0.00    -0.064 N 
HETATM   27  H   UNL     1      41.781 -11.201  10.547  1.00  0.00     0.280 HD
HETATM   28  C   UNL     1      40.003 -11.336   9.490  1.00  0.00     0.263 C 
HETATM   29  C   UNL     1      39.336 -10.760   8.211  1.00  0.00     0.263 C 
HETATM   30  H   UNL     1      40.502 -11.700   6.734  1.00  0.00     0.280 HD
BRANCH  26  31
HETATM   31  C   UNL     1      41.145  -9.273  10.438  1.00  0.00     0.273 C 
BRANCH  31  32
HETATM   32  C   UNL     1      41.655  -9.176  11.845  1.00  0.00    -0.033 A 
HETATM   33  C   UNL     1      42.923  -9.683  12.177  1.00  0.00     0.009 A 
HETATM   34  C   UNL     1      43.391  -9.614  13.489  1.00  0.00     0.001 A 
HETATM   35  C   UNL     1      42.602  -9.035  14.481  1.00  0.00     0.000 A 
HETATM   36  C   UNL     1      41.350  -8.518  14.162  1.00  0.00     0.001 A 
HETATM   37  C   UNL     1      40.876  -8.582  12.851  1.00  0.00     0.009 A 
ENDBRANCH  31  32
ENDBRANCH  26  31
ENDBRANCH  22  23
ENDBRANCH   1  22
TORSDOF 8
ENDMDL
MODEL 10
REMARK VINA RESULT:      -7.7      2.692      3.800
REMARK  8 active torsions:
REMARK  status: ('A' for Active; 'I' for Inactive)
REMARK    1  A    between atoms: C_4  and  C_5 
REMARK    2  A    between atoms: C_5  and  N_6 
REMARK    3  A    between atoms: N_10  and  C_12 
REMARK    4  A    between atoms: C_12  and  C_13 
REMARK       I    between atoms: C_13  and  N_14 
REMARK    5  A    between atoms: N_14  and  C_15 
REMARK    6  A    between atoms: C_17  and  S_18 
REMARK    7  A    between atoms: S_18  and  C_19 
REMARK    8  A    between atoms: C_22  and  N_23 
ROOT
HETATM    1  C   UNL     1      40.858 -11.289   6.586  1.00  0.00     0.249 C 
HETATM    2  N   UNL     1      40.885 -12.658   6.565  1.00  0.00    -0.304 N 
HETATM    3  O   UNL     1      41.332 -10.489   5.778  1.00  0.00    -0.271 OA
HETATM    4  H   UNL     1      40.429 -13.241   7.256  1.00  0.00     0.171 HD
ENDROOT
BRANCH   2   5
HETATM    5  C   UNL     1      41.622 -13.345   5.637  1.00  0.00     0.174 A 
HETATM    6  S   UNL     1      40.730 -14.492   4.753  1.00  0.00    -0.038 SA
HETATM    7  C   UNL     1      42.176 -14.997   3.985  1.00  0.00     0.125 A 
HETATM    8  C   UNL     1      43.225 -14.220   4.436  1.00  0.00     0.151 A 
HETATM    9  N   UNL     1      42.896 -13.253   5.374  1.00  0.00    -0.234 NA
BRANCH   7  10
HETATM   10  S   UNL     1      42.103 -16.356   2.859  1.00  0.00     0.214 S 
HETATM   11  O   UNL     1      43.443 -16.904   2.883  1.00  0.00    -0.217 OA
HETATM   12  O   UNL     1      40.942 -17.139   3.225  1.00  0.00    -0.217 OA
BRANCH  10  13
HETATM   13  C   UNL     1      41.820 -15.636   1.261  1.00  0.00     0.065 A 
HETATM   14  C   UNL     1      41.443 -16.457   0.193  1.00  0.00     0.026 A 
HETATM   15  C   UNL     1      41.194 -15.890  -1.060  1.00  0.00     0.037 A 
HETATM   16  C   UNL     1      41.311 -14.503  -1.231  1.00  0.00     0.102 A 
HETATM   17  C   UNL     1      41.667 -13.679  -0.152  1.00  0.00     0.037 A 
HETATM   18  C   UNL     1      41.917 -14.248   1.101  1.00  0.00     0.026 A 
BRANCH  16  19
HETATM   19  N   UNL     1      41.065 -13.907  -2.552  1.00  0.00    -0.116 N 
HETATM   20  O   UNL     1      40.584 -12.766  -2.585  1.00  0.00    -0.532 OA
HETATM   21  O   UNL     1      41.328 -14.595  -3.547  1.00  0.00    -0.532 OA
ENDBRANCH  16  19
ENDBRANCH  10  13
ENDBRANCH   7  10
ENDBRANCH   2   5
BRANCH   1  22
HETATM   22  C   UNL     1      40.132 -10.680   7.788  1.00  0.00     0.337 C 
BRANCH  22  23
HETATM   23  N   UNL     1      40.850 -11.111   9.097  1.00  0.00    -0.060 N 
HETATM   24  C   UNL     1      42.276 -10.563   9.171  1.00  0.00     0.263 C 
HETATM   25  C   UNL     1      42.983 -11.026  10.465  1.00  0.00     0.263 C 
HETATM   26  N   UNL     1      42.161 -10.683  11.708  1.00  0.00    -0.064 N 
HETATM   27  H   UNL     1      42.646 -11.148  12.493  1.00  0.00     0.280 HD
HETATM   28  C   UNL     1      40.764 -11.289  11.634  1.00  0.00     0.263 C 
HETATM   29  C   UNL     1      40.015 -10.869  10.340  1.00  0.00     0.263 C 
HETATM   30  H   UNL     1      40.949 -12.140   8.947  1.00  0.00     0.280 HD
BRANCH  26  31
HETATM   31  C   UNL     1      42.150  -9.212  12.112  1.00  0.00     0.273 C 
BRANCH  31  32
HETATM   32  C   UNL     1      41.782  -8.975  13.547  1.00  0.00    -0.033 A 
HETATM   33  C   UNL     1      42.499  -9.606  14.578  1.00  0.00     0.009 A 
HETATM   34  C   UNL     1      42.146  -9.403  15.912  1.00  0.00     0.001 A 
HETATM   35  C   UNL     1      41.078  -8.568  16.230  1.00  0.00     0.000 A 
HETATM   36  C   UNL     1      40.368  -7.926  15.219  1.00  0.00     0.001 A 
HETATM   37  C   UNL     1      40.718  -8.123  13.883  1.00  0.00     0.009 A 
ENDBRANCH  31  32
ENDBRANCH  26  31
ENDBRANCH  22  23
ENDBRANCH   1  22
TORSDOF 8
ENDMDL
