MODEL 1
REMARK VINA RESULT:      -8.7      0.000      0.000
REMARK  3 active torsions:
REMARK  status: ('A' for Active; 'I' for Inactive)
REMARK    1  A    between atoms: O_2  and  C_3 
REMARK    2  A    between atoms: C_9  and  C_10 
REMARK       I    between atoms: C_10  and  N_11 
REMARK    3  A    between atoms: N_11  and  C_12 
ROOT
HETATM    1  C   UNL     1      44.561 -20.420   4.887  1.00  0.00     0.068 A 
HETATM    2  C   UNL     1      44.470 -20.055   3.541  1.00  0.00     0.044 A 
HETATM    3  C   UNL     1      43.900 -18.830   3.168  1.00  0.00    -0.043 A 
HETATM    4  C   UNL     1      43.388 -17.974   4.168  1.00  0.00    -0.001 A 
HETATM    5  C   UNL     1      42.825 -16.713   3.713  1.00  0.00     0.069 A 
HETATM    6  C   UNL     1      42.950 -16.222   2.433  1.00  0.00     0.007 A 
HETATM    7  C   UNL     1      42.287 -14.971   2.436  1.00  0.00     0.153 A 
HETATM    8  N   UNL     1      41.751 -14.717   3.655  1.00  0.00    -0.168 NA
HETATM    9  N   UNL     1      42.095 -15.792   4.396  1.00  0.00    -0.276 N 
HETATM   10  H   UNL     1      41.793 -15.825   5.364  1.00  0.00     0.189 HD
HETATM   11  C   UNL     1      43.714 -16.958   1.388  1.00  0.00     0.048 C 
HETATM   12  C   UNL     1      43.748 -18.476   1.692  1.00  0.00     0.044 C 
HETATM   13  C   UNL     1      43.473 -18.342   5.511  1.00  0.00     0.017 A 
HETATM   14  C   UNL     1      44.061 -19.562   5.868  1.00  0.00     0.037 A 
ENDROOT
BRANCH   7  15
HETATM   15  C   UNL     1      42.163 -14.002   1.327  1.00  0.00     0.277 C 
HETATM   16  N   UNL     1      41.624 -14.590   0.199  1.00  0.00    -0.322 N 
HETATM   17  H   UNL     1      41.421 -15.580   0.327  1.00  0.00     0.169 HD
HETATM   18  O   UNL     1      42.503 -12.830   1.447  1.00  0.00    -0.266 OA
BRANCH  16  19
HETATM   19  C   UNL     1      41.319 -14.002  -1.039  1.00  0.00     0.037 A 
HETATM   20  C   UNL     1      42.252 -13.339  -1.836  1.00  0.00     0.071 A 
HETATM   21  C   UNL     1      41.850 -12.777  -3.046  1.00  0.00     0.118 A 
HETATM   22  F   UNL     1      42.750 -12.140  -3.806  1.00  0.00    -0.206 F 
HETATM   23  C   UNL     1      40.534 -12.863  -3.482  1.00  0.00     0.042 A 
HETATM   24  C   UNL     1      39.596 -13.525  -2.694  1.00  0.00     0.005 A 
HETATM   25  C   UNL     1      39.989 -14.091  -1.477  1.00  0.00     0.029 A 
ENDBRANCH  16  19
ENDBRANCH   7  15
BRANCH   1  26
HETATM   26  O   UNL     1      45.152 -21.635   5.108  1.00  0.00    -0.356 OA
HETATM   27  C   UNL     1      44.724 -22.718   4.293  1.00  0.00     0.210 C 
ENDBRANCH   1  26
TORSDOF 3
ENDMDL
MODEL 2
REMARK VINA RESULT:      -8.7      1.385      1.463
REMARK  3 active torsions:
REMARK  status: ('A' for Active; 'I' for Inactive)
REMARK    1  A    between atoms: O_2  and  C_3 
REMARK    2  A    between atoms: C_9  and  C_10 
REMARK       I    between atoms: C_10  and  N_11 
REMARK    3  A    between atoms: N_11  and  C_12 
ROOT
HETATM    1  C   UNL     1      44.403 -20.012   4.705  1.00  0.00     0.068 A 
HETATM    2  C   UNL     1      44.342 -19.730   3.337  1.00  0.00     0.044 A 
HETATM    3  C   UNL     1      43.479 -18.741   2.847  1.00  0.00    -0.043 A 
HETATM    4  C   UNL     1      42.643 -18.045   3.749  1.00  0.00    -0.001 A 
HETATM    5  C   UNL     1      41.784 -17.022   3.176  1.00  0.00     0.069 A 
HETATM    6  C   UNL     1      41.885 -16.555   1.885  1.00  0.00     0.007 A 
HETATM    7  C   UNL     1      40.889 -15.557   1.760  1.00  0.00     0.153 A 
HETATM    8  N   UNL     1      40.185 -15.437   2.912  1.00  0.00    -0.168 NA
HETATM    9  N   UNL     1      40.754 -16.338   3.741  1.00  0.00    -0.276 N 
HETATM   10  H   UNL     1      40.382 -16.430   4.680  1.00  0.00     0.189 HD
HETATM   11  C   UNL     1      42.929 -17.063   0.953  1.00  0.00     0.048 C 
HETATM   12  C   UNL     1      43.374 -18.493   1.346  1.00  0.00     0.044 C 
HETATM   13  C   UNL     1      42.700 -18.331   5.113  1.00  0.00     0.017 A 
HETATM   14  C   UNL     1      43.580 -19.311   5.589  1.00  0.00     0.037 A 
ENDROOT
BRANCH   7  15
HETATM   15  C   UNL     1      40.596 -14.702   0.590  1.00  0.00     0.277 C 
HETATM   16  N   UNL     1      41.755 -14.297  -0.043  1.00  0.00    -0.322 N 
HETATM   17  H   UNL     1      42.597 -14.645   0.411  1.00  0.00     0.169 HD
HETATM   18  O   UNL     1      39.448 -14.425   0.259  1.00  0.00    -0.266 OA
BRANCH  16  19
HETATM   19  C   UNL     1      41.896 -13.513  -1.199  1.00  0.00     0.037 A 
HETATM   20  C   UNL     1      42.506 -12.259  -1.219  1.00  0.00     0.071 A 
HETATM   21  C   UNL     1      42.591 -11.552  -2.417  1.00  0.00     0.118 A 
HETATM   22  F   UNL     1      43.176 -10.346  -2.429  1.00  0.00    -0.206 F 
HETATM   23  C   UNL     1      42.080 -12.070  -3.600  1.00  0.00     0.042 A 
HETATM   24  C   UNL     1      41.471 -13.321  -3.591  1.00  0.00     0.005 A 
HETATM   25  C   UNL     1      41.381 -14.039  -2.394  1.00  0.00     0.029 A 
ENDBRANCH  16  19
ENDBRANCH   7  15
BRANCH   1  26
HETATM   26  O   UNL     1      45.298 -20.990   5.045  1.00  0.00    -0.356 OA
HETATM   27  C   UNL     1      44.859 -22.337   4.925  1.00  0.00     0.210 C 
ENDBRANCH   1  26
TORSDOF 3
ENDMDL
MODEL 3
REMARK VINA RESULT:      -8.6      5.391      7.703
REMARK  3 active torsions:
REMARK  status: ('A' for Active; 'I' for Inactive)
REMARK    1  A    between atoms: O_2  and  C_3 
REMARK    2  A    between atoms: C_9  and  C_10 
REMARK       I    between atoms: C_10  and  N_11 
REMARK    3  A    between atoms: N_11  and  C_12 
ROOT
HETATM    1  C   UNL     1      44.409 -20.562   3.718  1.00  0.00     0.068 A 
HETATM    2  C   UNL     1      44.837 -19.939   4.894  1.00  0.00     0.044 A 
HETATM    3  C   UNL     1      44.570 -18.583   5.125  1.00  0.00    -0.043 A 
HETATM    4  C   UNL     1      43.885 -17.837   4.139  1.00  0.00    -0.001 A 
HETATM    5  C   UNL     1      43.627 -16.441   4.450  1.00  0.00     0.069 A 
HETATM    6  C   UNL     1      43.811 -15.872   5.690  1.00  0.00     0.007 A 
HETATM    7  C   UNL     1      43.416 -14.519   5.554  1.00  0.00     0.153 A 
HETATM    8  N   UNL     1      43.034 -14.259   4.280  1.00  0.00    -0.168 NA
HETATM    9  N   UNL     1      43.178 -15.441   3.645  1.00  0.00    -0.276 N 
HETATM   10  H   UNL     1      42.950 -15.488   2.658  1.00  0.00     0.189 HD
HETATM   11  C   UNL     1      44.284 -16.675   6.851  1.00  0.00     0.048 C 
HETATM   12  C   UNL     1      45.102 -17.902   6.381  1.00  0.00     0.044 C 
HETATM   13  C   UNL     1      43.464 -18.458   2.964  1.00  0.00     0.017 A 
HETATM   14  C   UNL     1      43.723 -19.818   2.756  1.00  0.00     0.037 A 
ENDROOT
BRANCH   7  15
HETATM   15  C   UNL     1      43.370 -13.474   6.598  1.00  0.00     0.277 C 
HETATM   16  N   UNL     1      44.431 -13.586   7.474  1.00  0.00    -0.322 N 
HETATM   17  H   UNL     1      45.045 -14.368   7.254  1.00  0.00     0.169 HD
HETATM   18  O   UNL     1      42.481 -12.629   6.632  1.00  0.00    -0.266 OA
BRANCH  16  19
HETATM   19  C   UNL     1      44.758 -12.769   8.568  1.00  0.00     0.037 A 
HETATM   20  C   UNL     1      44.048 -12.757   9.769  1.00  0.00     0.071 A 
HETATM   21  C   UNL     1      44.444 -11.903  10.796  1.00  0.00     0.118 A 
HETATM   22  F   UNL     1      43.757 -11.893  11.946  1.00  0.00    -0.206 F 
HETATM   23  C   UNL     1      45.537 -11.057  10.652  1.00  0.00     0.042 A 
HETATM   24  C   UNL     1      46.253 -11.064   9.459  1.00  0.00     0.005 A 
HETATM   25  C   UNL     1      45.863 -11.917   8.422  1.00  0.00     0.029 A 
ENDBRANCH  16  19
ENDBRANCH   7  15
BRANCH   1  26
HETATM   26  O   UNL     1      44.725 -21.891   3.631  1.00  0.00    -0.356 OA
HETATM   27  C   UNL     1      44.760 -22.628   4.846  1.00  0.00     0.210 C 
ENDBRANCH   1  26
TORSDOF 3
ENDMDL
MODEL 4
REMARK VINA RESULT:      -8.5      3.401      4.423
REMARK  3 active torsions:
REMARK  status: ('A' for Active; 'I' for Inactive)
REMARK    1  A    between atoms: O_2  and  C_3 
REMARK    2  A    between atoms: C_9  and  C_10 
REMARK       I    between atoms: C_10  and  N_11 
REMARK    3  A    between atoms: N_11  and  C_12 
ROOT
HETATM    1  C   UNL     1      44.403 -21.429   3.321  1.00  0.00     0.068 A 
HETATM    2  C   UNL     1      44.441 -20.305   4.150  1.00  0.00     0.044 A 
HETATM    3  C   UNL     1      44.014 -19.055   3.683  1.00  0.00    -0.043 A 
HETATM    4  C   UNL     1      43.569 -18.932   2.347  1.00  0.00    -0.001 A 
HETATM    5  C   UNL     1      43.126 -17.612   1.932  1.00  0.00     0.069 A 
HETATM    6  C   UNL     1      42.917 -16.556   2.791  1.00  0.00     0.007 A 
HETATM    7  C   UNL     1      42.468 -15.485   1.980  1.00  0.00     0.153 A 
HETATM    8  N   UNL     1      42.431 -15.856   0.677  1.00  0.00    -0.168 NA
HETATM    9  N   UNL     1      42.837 -17.144   0.689  1.00  0.00    -0.276 N 
HETATM   10  H   UNL     1      42.892 -17.639  -0.194  1.00  0.00     0.189 HD
HETATM   11  C   UNL     1      43.115 -16.696   4.259  1.00  0.00     0.048 C 
HETATM   12  C   UNL     1      44.126 -17.825   4.577  1.00  0.00     0.044 C 
HETATM   13  C   UNL     1      43.537 -20.054   1.518  1.00  0.00     0.017 A 
HETATM   14  C   UNL     1      43.951 -21.299   2.006  1.00  0.00     0.037 A 
ENDROOT
BRANCH   7  15
HETATM   15  C   UNL     1      42.054 -14.131   2.404  1.00  0.00     0.277 C 
HETATM   16  N   UNL     1      40.734 -14.108   2.807  1.00  0.00    -0.322 N 
HETATM   17  H   UNL     1      40.280 -15.016   2.730  1.00  0.00     0.169 HD
HETATM   18  O   UNL     1      42.830 -13.181   2.389  1.00  0.00    -0.266 OA
BRANCH  16  19
HETATM   19  C   UNL     1      39.986 -13.030   3.307  1.00  0.00     0.037 A 
HETATM   20  C   UNL     1      40.026 -12.606   4.635  1.00  0.00     0.071 A 
HETATM   21  C   UNL     1      39.239 -11.530   5.040  1.00  0.00     0.118 A 
HETATM   22  F   UNL     1      39.280 -11.129   6.318  1.00  0.00    -0.206 F 
HETATM   23  C   UNL     1      38.411 -10.863   4.146  1.00  0.00     0.042 A 
HETATM   24  C   UNL     1      38.366 -11.278   2.819  1.00  0.00     0.005 A 
HETATM   25  C   UNL     1      39.151 -12.357   2.402  1.00  0.00     0.029 A 
ENDBRANCH  16  19
ENDBRANCH   7  15
BRANCH   1  26
HETATM   26  O   UNL     1      44.835 -22.587   3.910  1.00  0.00    -0.356 OA
HETATM   27  C   UNL     1      45.175 -22.520   5.289  1.00  0.00     0.210 C 
ENDBRANCH   1  26
TORSDOF 3
ENDMDL
MODEL 5
REMARK VINA RESULT:      -8.5      2.110      2.323
REMARK  3 active torsions:
REMARK  status: ('A' for Active; 'I' for Inactive)
REMARK    1  A    between atoms: O_2  and  C_3 
REMARK    2  A    between atoms: C_9  and  C_10 
REMARK       I    between atoms: C_10  and  N_11 
REMARK    3  A    between atoms: N_11  and  C_12 
ROOT
HETATM    1  C   UNL     1      44.256 -19.874   4.870  1.00  0.00     0.068 A 
HETATM    2  C   UNL     1      44.328 -19.619   3.497  1.00  0.00     0.044 A 
HETATM    3  C   UNL     1      43.482 -18.676   2.898  1.00  0.00    -0.043 A 
HETATM    4  C   UNL     1      42.528 -18.000   3.693  1.00  0.00    -0.001 A 
HETATM    5  C   UNL     1      41.694 -17.025   3.011  1.00  0.00     0.069 A 
HETATM    6  C   UNL     1      41.912 -16.576   1.728  1.00  0.00     0.007 A 
HETATM    7  C   UNL     1      40.895 -15.623   1.477  1.00  0.00     0.153 A 
HETATM    8  N   UNL     1      40.069 -15.513   2.547  1.00  0.00    -0.168 NA
HETATM    9  N   UNL     1      40.583 -16.375   3.450  1.00  0.00    -0.276 N 
HETATM   10  H   UNL     1      40.118 -16.467   4.346  1.00  0.00     0.189 HD
HETATM   11  C   UNL     1      43.067 -17.055   0.921  1.00  0.00     0.048 C 
HETATM   12  C   UNL     1      43.527 -18.458   1.389  1.00  0.00     0.044 C 
HETATM   13  C   UNL     1      42.453 -18.260   5.061  1.00  0.00     0.017 A 
HETATM   14  C   UNL     1      43.317 -19.193   5.647  1.00  0.00     0.037 A 
ENDROOT
BRANCH   7  15
HETATM   15  C   UNL     1      40.693 -14.802   0.265  1.00  0.00     0.277 C 
HETATM   16  N   UNL     1      39.351 -14.605   0.005  1.00  0.00    -0.322 N 
HETATM   17  H   UNL     1      38.745 -15.065   0.681  1.00  0.00     0.169 HD
HETATM   18  O   UNL     1      41.635 -14.367  -0.389  1.00  0.00    -0.266 OA
BRANCH  16  19
HETATM   19  C   UNL     1      38.756 -13.859  -1.025  1.00  0.00     0.037 A 
HETATM   20  C   UNL     1      38.224 -14.421  -2.185  1.00  0.00     0.071 A 
HETATM   21  C   UNL     1      37.662 -13.595  -3.157  1.00  0.00     0.118 A 
HETATM   22  F   UNL     1      37.156 -14.140  -4.271  1.00  0.00    -0.206 F 
HETATM   23  C   UNL     1      37.617 -12.216  -2.996  1.00  0.00     0.042 A 
HETATM   24  C   UNL     1      38.143 -11.646  -1.840  1.00  0.00     0.005 A 
HETATM   25  C   UNL     1      38.710 -12.466  -0.859  1.00  0.00     0.029 A 
ENDBRANCH  16  19
ENDBRANCH   7  15
BRANCH   1  26
HETATM   26  O   UNL     1      45.149 -20.807   5.323  1.00  0.00    -0.356 OA
HETATM   27  C   UNL     1      44.873 -22.167   5.014  1.00  0.00     0.210 C 
ENDBRANCH   1  26
TORSDOF 3
ENDMDL
MODEL 6
REMARK VINA RESULT:      -8.4      8.340     10.690
REMARK  3 active torsions:
REMARK  status: ('A' for Active; 'I' for Inactive)
REMARK    1  A    between atoms: O_2  and  C_3 
REMARK    2  A    between atoms: C_9  and  C_10 
REMARK       I    between atoms: C_10  and  N_11 
REMARK    3  A    between atoms: N_11  and  C_12 
ROOT
HETATM    1  C   UNL     1      41.738  -8.418  12.589  1.00  0.00     0.068 A 
HETATM    2  C   UNL     1      41.546  -8.678  11.229  1.00  0.00     0.044 A 
HETATM    3  C   UNL     1      42.362  -9.595  10.552  1.00  0.00    -0.043 A 
HETATM    4  C   UNL     1      43.407 -10.237  11.253  1.00  0.00    -0.001 A 
HETATM    5  C   UNL     1      44.205 -11.187  10.495  1.00  0.00     0.069 A 
HETATM    6  C   UNL     1      43.882 -11.645   9.237  1.00  0.00     0.007 A 
HETATM    7  C   UNL     1      44.902 -12.564   8.891  1.00  0.00     0.153 A 
HETATM    8  N   UNL     1      45.827 -12.646   9.879  1.00  0.00    -0.168 NA
HETATM    9  N   UNL     1      45.373 -11.799  10.827  1.00  0.00    -0.276 N 
HETATM   10  H   UNL     1      45.917 -11.691  11.676  1.00  0.00     0.189 HD
HETATM   11  C   UNL     1      42.641 -11.205   8.544  1.00  0.00     0.048 C 
HETATM   12  C   UNL     1      42.183  -9.817   9.054  1.00  0.00     0.044 C 
HETATM   13  C   UNL     1      43.603  -9.973  12.609  1.00  0.00     0.017 A 
HETATM   14  C   UNL     1      42.768  -9.067  13.274  1.00  0.00     0.037 A 
ENDROOT
BRANCH   7  15
HETATM   15  C   UNL     1      45.016 -13.381   7.665  1.00  0.00     0.277 C 
HETATM   16  N   UNL     1      44.056 -14.374   7.627  1.00  0.00    -0.322 N 
HETATM   17  H   UNL     1      43.455 -14.374   8.448  1.00  0.00     0.169 HD
HETATM   18  O   UNL     1      45.869 -13.157   6.812  1.00  0.00    -0.266 OA
BRANCH  16  19
HETATM   19  C   UNL     1      43.814 -15.324   6.622  1.00  0.00     0.037 A 
HETATM   20  C   UNL     1      44.340 -16.615   6.630  1.00  0.00     0.071 A 
HETATM   21  C   UNL     1      44.050 -17.485   5.580  1.00  0.00     0.118 A 
HETATM   22  F   UNL     1      44.560 -18.723   5.592  1.00  0.00    -0.206 F 
HETATM   23  C   UNL     1      43.242 -17.094   4.519  1.00  0.00     0.042 A 
HETATM   24  C   UNL     1      42.711 -15.808   4.504  1.00  0.00     0.005 A 
HETATM   25  C   UNL     1      42.997 -14.927   5.552  1.00  0.00     0.029 A 
ENDBRANCH  16  19
ENDBRANCH   7  15
BRANCH   1  26
HETATM   26  O   UNL     1      40.862  -7.514  13.125  1.00  0.00    -0.356 OA
HETATM   27  C   UNL     1      39.503  -7.917  13.231  1.00  0.00     0.210 C 
ENDBRANCH   1  26
TORSDOF 3
ENDMDL
MODEL 7
REMARK VINA RESULT:      -8.2      3.317      4.318
REMARK  3 active torsions:
REMARK  status: ('A' for Active; 'I' for Inactive)
REMARK    1  A    between atoms: O_2  and  C_3 
REMARK    2  A    between atoms: C_9  and  C_10 
REMARK       I    between atoms: C_10  and  N_11 
REMARK    3  A    between atoms: N_11  and  C_12 
ROOT
HETATM    1  C   UNL     1      44.665 -20.419   4.019  1.00  0.00     0.068 A 
HETATM    2  C   UNL     1      43.986 -19.440   4.749  1.00  0.00     0.044 A 
HETATM    3  C   UNL     1      43.166 -18.505   4.104  1.00  0.00    -0.043 A 
HETATM    4  C   UNL     1      43.052 -18.541   2.695  1.00  0.00    -0.001 A 
HETATM    5  C   UNL     1      42.173 -17.554   2.092  1.00  0.00     0.069 A 
HETATM    6  C   UNL     1      41.306 -16.749   2.798  1.00  0.00     0.007 A 
HETATM    7  C   UNL     1      40.631 -15.970   1.827  1.00  0.00     0.153 A 
HETATM    8  N   UNL     1      41.084 -16.259   0.583  1.00  0.00    -0.168 NA
HETATM    9  N   UNL     1      42.014 -17.216   0.785  1.00  0.00    -0.276 N 
HETATM   10  H   UNL     1      42.501 -17.592  -0.022  1.00  0.00     0.189 HD
HETATM   11  C   UNL     1      41.183 -16.848   4.278  1.00  0.00     0.048 C 
HETATM   12  C   UNL     1      42.486 -17.401   4.907  1.00  0.00     0.044 C 
HETATM   13  C   UNL     1      43.735 -19.515   1.967  1.00  0.00     0.017 A 
HETATM   14  C   UNL     1      44.538 -20.453   2.629  1.00  0.00     0.037 A 
ENDROOT
BRANCH   7  15
HETATM   15  C   UNL     1      39.559 -14.975   2.042  1.00  0.00     0.277 C 
HETATM   16  N   UNL     1      40.048 -13.822   2.623  1.00  0.00    -0.322 N 
HETATM   17  H   UNL     1      41.048 -13.865   2.809  1.00  0.00     0.169 HD
HETATM   18  O   UNL     1      38.396 -15.194   1.718  1.00  0.00    -0.266 OA
BRANCH  16  19
HETATM   19  C   UNL     1      39.358 -12.643   2.950  1.00  0.00     0.037 A 
HETATM   20  C   UNL     1      38.666 -11.864   2.023  1.00  0.00     0.071 A 
HETATM   21  C   UNL     1      38.020 -10.703   2.443  1.00  0.00     0.118 A 
HETATM   22  F   UNL     1      37.358  -9.958   1.548  1.00  0.00    -0.206 F 
HETATM   23  C   UNL     1      38.047 -10.301   3.773  1.00  0.00     0.042 A 
HETATM   24  C   UNL     1      38.734 -11.073   4.705  1.00  0.00     0.005 A 
HETATM   25  C   UNL     1      39.387 -12.239   4.293  1.00  0.00     0.029 A 
ENDBRANCH  16  19
ENDBRANCH   7  15
BRANCH   1  26
HETATM   26  O   UNL     1      45.419 -21.274   4.777  1.00  0.00    -0.356 OA
HETATM   27  C   UNL     1      44.939 -22.605   4.918  1.00  0.00     0.210 C 
ENDBRANCH   1  26
TORSDOF 3
ENDMDL
MODEL 8
REMARK VINA RESULT:      -8.1      4.397      5.520
REMARK  3 active torsions:
REMARK  status: ('A' for Active; 'I' for Inactive)
REMARK    1  A    between atoms: O_2  and  C_3 
REMARK    2  A    between atoms: C_9  and  C_10 
REMARK       I    between atoms: C_10  and  N_11 
REMARK    3  A    between atoms: N_11  and  C_12 
ROOT
HETATM    1  C   UNL     1      44.339 -21.272   2.917  1.00  0.00     0.068 A 
HETATM    2  C   UNL     1      44.543 -20.481   4.051  1.00  0.00     0.044 A 
HETATM    3  C   UNL     1      44.236 -19.114   4.038  1.00  0.00    -0.043 A 
HETATM    4  C   UNL     1      43.742 -18.530   2.850  1.00  0.00    -0.001 A 
HETATM    5  C   UNL     1      43.429 -17.112   2.909  1.00  0.00     0.069 A 
HETATM    6  C   UNL     1      43.381 -16.373   4.070  1.00  0.00     0.007 A 
HETATM    7  C   UNL     1      43.014 -15.063   3.677  1.00  0.00     0.153 A 
HETATM    8  N   UNL     1      42.873 -14.991   2.331  1.00  0.00    -0.168 NA
HETATM    9  N   UNL     1      43.133 -16.245   1.904  1.00  0.00    -0.276 N 
HETATM   10  H   UNL     1      43.090 -16.433   0.908  1.00  0.00     0.189 HD
HETATM   11  C   UNL     1      43.634 -16.995   5.399  1.00  0.00     0.048 C 
HETATM   12  C   UNL     1      44.527 -18.253   5.262  1.00  0.00     0.044 C 
HETATM   13  C   UNL     1      43.545 -19.318   1.716  1.00  0.00     0.017 A 
HETATM   14  C   UNL     1      43.841 -20.686   1.751  1.00  0.00     0.037 A 
ENDROOT
BRANCH   7  15
HETATM   15  C   UNL     1      42.776 -13.886   4.538  1.00  0.00     0.277 C 
HETATM   16  N   UNL     1      41.438 -13.543   4.567  1.00  0.00    -0.322 N 
HETATM   17  H   UNL     1      40.861 -14.149   3.986  1.00  0.00     0.169 HD
HETATM   18  O   UNL     1      43.687 -13.324   5.137  1.00  0.00    -0.266 OA
BRANCH  16  19
HETATM   19  C   UNL     1      40.810 -12.516   5.289  1.00  0.00     0.037 A 
HETATM   20  C   UNL     1      40.168 -12.705   6.512  1.00  0.00     0.071 A 
HETATM   21  C   UNL     1      39.563 -11.624   7.149  1.00  0.00     0.118 A 
HETATM   22  F   UNL     1      38.946 -11.812   8.323  1.00  0.00    -0.206 F 
HETATM   23  C   UNL     1      39.586 -10.351   6.591  1.00  0.00     0.042 A 
HETATM   24  C   UNL     1      40.226 -10.152   5.372  1.00  0.00     0.005 A 
HETATM   25  C   UNL     1      40.835 -11.231   4.724  1.00  0.00     0.029 A 
ENDBRANCH  16  19
ENDBRANCH   7  15
BRANCH   1  26
HETATM   26  O   UNL     1      44.669 -22.591   3.075  1.00  0.00    -0.356 OA
HETATM   27  C   UNL     1      44.729 -23.085   4.406  1.00  0.00     0.210 C 
ENDBRANCH   1  26
TORSDOF 3
ENDMDL
MODEL 9
REMARK VINA RESULT:      -8.1      3.874      8.342
REMARK  3 active torsions:
REMARK  status: ('A' for Active; 'I' for Inactive)
REMARK    1  A    between atoms: O_2  and  C_3 
REMARK    2  A    between atoms: C_9  and  C_10 
REMARK       I    between atoms: C_10  and  N_11 
REMARK    3  A    between atoms: N_11  and  C_12 
ROOT
HETATM    1  C   UNL     1      38.122 -11.729   1.928  1.00  0.00     0.068 A 
HETATM    2  C   UNL     1      38.622 -12.663   1.017  1.00  0.00     0.044 A 
HETATM    3  C   UNL     1      39.710 -13.481   1.351  1.00  0.00    -0.043 A 
HETATM    4  C   UNL     1      40.321 -13.333   2.617  1.00  0.00    -0.001 A 
HETATM    5  C   UNL     1      41.434 -14.223   2.905  1.00  0.00     0.069 A 
HETATM    6  C   UNL     1      41.780 -15.310   2.134  1.00  0.00     0.007 A 
HETATM    7  C   UNL     1      42.887 -15.905   2.787  1.00  0.00     0.153 A 
HETATM    8  N   UNL     1      43.226 -15.198   3.893  1.00  0.00    -0.168 NA
HETATM    9  N   UNL     1      42.328 -14.191   3.928  1.00  0.00    -0.276 N 
HETATM   10  H   UNL     1      42.390 -13.517   4.684  1.00  0.00     0.189 HD
HETATM   11  C   UNL     1      41.005 -15.681   0.919  1.00  0.00     0.048 C 
HETATM   12  C   UNL     1      40.286 -14.447   0.322  1.00  0.00     0.044 C 
HETATM   13  C   UNL     1      39.826 -12.396   3.524  1.00  0.00     0.017 A 
HETATM   14  C   UNL     1      38.728 -11.599   3.180  1.00  0.00     0.037 A 
ENDROOT
BRANCH   7  15
HETATM   15  C   UNL     1      43.619 -17.130   2.406  1.00  0.00     0.277 C 
HETATM   16  N   UNL     1      43.265 -18.200   3.203  1.00  0.00    -0.322 N 
HETATM   17  H   UNL     1      42.577 -17.955   3.913  1.00  0.00     0.169 HD
HETATM   18  O   UNL     1      44.426 -17.144   1.481  1.00  0.00    -0.266 OA
BRANCH  16  19
HETATM   19  C   UNL     1      43.707 -19.532   3.136  1.00  0.00     0.037 A 
HETATM   20  C   UNL     1      44.435 -20.161   4.146  1.00  0.00     0.071 A 
HETATM   21  C   UNL     1      44.839 -21.484   3.983  1.00  0.00     0.118 A 
HETATM   22  F   UNL     1      45.541 -22.083   4.954  1.00  0.00    -0.206 F 
HETATM   23  C   UNL     1      44.530 -22.198   2.831  1.00  0.00     0.042 A 
HETATM   24  C   UNL     1      43.802 -21.579   1.820  1.00  0.00     0.005 A 
HETATM   25  C   UNL     1      43.393 -20.251   1.973  1.00  0.00     0.029 A 
ENDBRANCH  16  19
ENDBRANCH   7  15
BRANCH   1  26
HETATM   26  O   UNL     1      37.050 -11.009   1.475  1.00  0.00    -0.356 OA
HETATM   27  C   UNL     1      36.228 -11.624   0.492  1.00  0.00     0.210 C 
ENDBRANCH   1  26
TORSDOF 3
ENDMDL
MODEL 10
REMARK VINA RESULT:      -8.0      2.788      3.484
REMARK  3 active torsions:
REMARK  status: ('A' for Active; 'I' for Inactive)
REMARK    1  A    between atoms: O_2  and  C_3 
REMARK    2  A    between atoms: C_9  and  C_10 
REMARK       I    between atoms: C_10  and  N_11 
REMARK    3  A    between atoms: N_11  and  C_12 
ROOT
HETATM    1  C   UNL     1      44.639 -20.339   4.186  1.00  0.00     0.068 A 
HETATM    2  C   UNL     1      43.798 -19.410   4.804  1.00  0.00     0.044 A 
HETATM    3  C   UNL     1      43.071 -18.484   4.045  1.00  0.00    -0.043 A 
HETATM    4  C   UNL     1      43.217 -18.477   2.639  1.00  0.00    -0.001 A 
HETATM    5  C   UNL     1      42.423 -17.502   1.911  1.00  0.00     0.069 A 
HETATM    6  C   UNL     1      41.409 -16.754   2.467  1.00  0.00     0.007 A 
HETATM    7  C   UNL     1      40.891 -15.966   1.410  1.00  0.00     0.153 A 
HETATM    8  N   UNL     1      41.575 -16.196   0.263  1.00  0.00    -0.168 NA
HETATM    9  N   UNL     1      42.492 -17.126   0.607  1.00  0.00    -0.276 N 
HETATM   10  H   UNL     1      43.133 -17.456  -0.106  1.00  0.00     0.189 HD
HETATM   11  C   UNL     1      41.022 -16.906   3.896  1.00  0.00     0.048 C 
HETATM   12  C   UNL     1      42.210 -17.433   4.738  1.00  0.00     0.044 C 
HETATM   13  C   UNL     1      44.062 -19.401   2.023  1.00  0.00     0.017 A 
HETATM   14  C   UNL     1      44.768 -20.330   2.796  1.00  0.00     0.037 A 
ENDROOT
BRANCH   7  15
HETATM   15  C   UNL     1      39.757 -15.019   1.450  1.00  0.00     0.277 C 
HETATM   16  N   UNL     1      39.579 -14.391   0.233  1.00  0.00    -0.322 N 
HETATM   17  H   UNL     1      40.261 -14.681  -0.465  1.00  0.00     0.169 HD
HETATM   18  O   UNL     1      39.084 -14.854   2.462  1.00  0.00    -0.266 OA
BRANCH  16  19
HETATM   19  C   UNL     1      38.597 -13.459  -0.140  1.00  0.00     0.037 A 
HETATM   20  C   UNL     1      37.738 -12.832   0.762  1.00  0.00     0.071 A 
HETATM   21  C   UNL     1      36.788 -11.927   0.295  1.00  0.00     0.118 A 
HETATM   22  F   UNL     1      35.963 -11.330   1.166  1.00  0.00    -0.206 F 
HETATM   23  C   UNL     1      36.676 -11.630  -1.058  1.00  0.00     0.042 A 
HETATM   24  C   UNL     1      37.531 -12.249  -1.965  1.00  0.00     0.005 A 
HETATM   25  C   UNL     1      38.487 -13.160  -1.506  1.00  0.00     0.029 A 
ENDBRANCH  16  19
ENDBRANCH   7  15
BRANCH   1  26
HETATM   26  O   UNL     1      45.276 -21.192   5.047  1.00  0.00    -0.356 OA
HETATM   27  C   UNL     1      45.020 -22.581   4.886  1.00  0.00     0.210 C 
ENDBRANCH   1  26
TORSDOF 3
ENDMDL
