MODEL 1
REMARK VINA RESULT:      -8.8      0.000      0.000
REMARK  4 active torsions:
REMARK  status: ('A' for Active; 'I' for Inactive)
REMARK    1  A    between atoms: C_2  and  C_3 
REMARK    2  A    between atoms: C_3  and  C_4 
REMARK       I    between atoms: C_4  and  N_5 
REMARK    3  A    between atoms: N_5  and  C_6 
REMARK    4  A    between atoms: C_13  and  C_14 
REMARK       I    between atoms: C_14  and  N_15 
ROOT
HETATM    1  C   UNL     1      41.666 -16.821   4.480  1.00  0.00     0.035 A 
HETATM    2  C   UNL     1      42.193 -17.592   5.516  1.00  0.00     0.046 A 
HETATM    3  C   UNL     1      42.853 -16.966   6.598  1.00  0.00     0.030 A 
HETATM    4  C   UNL     1      42.922 -15.581   6.633  1.00  0.00     0.063 A 
HETATM    5  N   UNL     1      43.618 -15.282   7.772  1.00  0.00    -0.277 N 
HETATM    6  H   UNL     1      43.860 -14.361   8.121  1.00  0.00     0.189 HD
HETATM    7  N   UNL     1      44.042 -16.355   8.463  1.00  0.00    -0.168 NA
HETATM    8  C   UNL     1      43.575 -17.404   7.748  1.00  0.00     0.156 A 
HETATM    9  C   UNL     1      42.375 -14.771   5.639  1.00  0.00     0.034 A 
HETATM   10  C   UNL     1      41.767 -15.423   4.556  1.00  0.00     0.032 A 
ENDROOT
BRANCH   1  11
HETATM   11  N   UNL     1      41.140 -17.344   3.289  1.00  0.00    -0.326 N 
HETATM   12  C   UNL     1      41.657 -17.647   2.053  1.00  0.00     0.235 C 
HETATM   13  O   UNL     1      40.863 -17.835   1.129  1.00  0.00    -0.272 OA
HETATM   14  H   UNL     1      40.139 -17.501   3.285  1.00  0.00     0.169 HD
BRANCH  12  15
HETATM   15  C   UNL     1      43.120 -17.952   1.829  1.00  0.00     0.068 A 
HETATM   16  C   UNL     1      44.125 -16.841   1.544  1.00  0.00     0.026 A 
HETATM   17  C   UNL     1      43.640 -17.651   0.399  1.00  0.00     0.026 A 
BRANCH  15  18
HETATM   18  C   UNL     1      43.582 -19.315   2.364  1.00  0.00    -0.040 A 
HETATM   19  C   UNL     1      44.327 -19.391   3.559  1.00  0.00     0.010 A 
HETATM   20  C   UNL     1      44.771 -20.611   4.075  1.00  0.00     0.024 A 
HETATM   21  C   UNL     1      44.484 -21.787   3.392  1.00  0.00     0.034 A 
HETATM   22  C   UNL     1      43.758 -21.747   2.205  1.00  0.00     0.024 A 
HETATM   23 CL   UNL     1      45.030 -23.293   4.016  1.00  0.00    -0.084 Cl
HETATM   24  C   UNL     1      43.311 -20.521   1.697  1.00  0.00     0.010 A 
ENDBRANCH  15  18
ENDBRANCH  12  15
ENDBRANCH   1  11
BRANCH   8  25
HETATM   25  C   UNL     1      43.851 -18.791   8.147  1.00  0.00     0.270 C 
HETATM   26  N   UNL     1      44.310 -18.926   9.429  1.00  0.00    -0.365 N 
HETATM   27  H   UNL     1      44.445 -18.090   9.988  1.00  0.00     0.159 HD
HETATM   28  H   UNL     1      44.569 -19.835   9.776  1.00  0.00     0.159 HD
HETATM   29  O   UNL     1      43.709 -19.763   7.413  1.00  0.00    -0.266 OA
ENDBRANCH   8  25
TORSDOF 4
ENDMDL
MODEL 2
REMARK VINA RESULT:      -8.4      2.884      4.512
REMARK  4 active torsions:
REMARK  status: ('A' for Active; 'I' for Inactive)
REMARK    1  A    between atoms: C_2  and  C_3 
REMARK    2  A    between atoms: C_3  and  C_4 
REMARK       I    between atoms: C_4  and  N_5 
REMARK    3  A    between atoms: N_5  and  C_6 
REMARK    4  A    between atoms: C_13  and  C_14 
REMARK       I    between atoms: C_14  and  N_15 
ROOT
HETATM    1  C   UNL     1      40.630 -16.150   3.753  1.00  0.00     0.035 A 
HETATM    2  C   UNL     1      40.213 -14.840   3.517  1.00  0.00     0.046 A 
HETATM    3  C   UNL     1      40.014 -13.955   4.601  1.00  0.00     0.030 A 
HETATM    4  C   UNL     1      40.285 -14.396   5.887  1.00  0.00     0.063 A 
HETATM    5  N   UNL     1      39.989 -13.338   6.702  1.00  0.00    -0.277 N 
HETATM    6  H   UNL     1      40.067 -13.300   7.713  1.00  0.00     0.189 HD
HETATM    7  N   UNL     1      39.511 -12.258   6.060  1.00  0.00    -0.168 NA
HETATM    8  C   UNL     1      39.522 -12.625   4.758  1.00  0.00     0.156 A 
HETATM    9  C   UNL     1      40.741 -15.684   6.165  1.00  0.00     0.034 A 
HETATM   10  C   UNL     1      40.885 -16.553   5.073  1.00  0.00     0.032 A 
ENDROOT
BRANCH   1  11
HETATM   11  N   UNL     1      40.701 -17.150   2.771  1.00  0.00    -0.326 N 
HETATM   12  C   UNL     1      41.703 -17.670   1.988  1.00  0.00     0.235 C 
HETATM   13  O   UNL     1      41.375 -18.358   1.019  1.00  0.00    -0.272 OA
HETATM   14  H   UNL     1      39.817 -17.577   2.518  1.00  0.00     0.169 HD
BRANCH  12  15
HETATM   15  C   UNL     1      43.162 -17.603   2.373  1.00  0.00     0.068 A 
HETATM   16  C   UNL     1      43.887 -16.267   2.496  1.00  0.00     0.026 A 
HETATM   17  C   UNL     1      44.107 -17.067   1.266  1.00  0.00     0.026 A 
BRANCH  15  18
HETATM   18  C   UNL     1      43.701 -18.860   3.071  1.00  0.00    -0.040 A 
HETATM   19  C   UNL     1      43.977 -18.839   4.454  1.00  0.00     0.010 A 
HETATM   20  C   UNL     1      44.475 -19.960   5.124  1.00  0.00     0.024 A 
HETATM   21  C   UNL     1      44.718 -21.128   4.413  1.00  0.00     0.034 A 
HETATM   22  C   UNL     1      44.465 -21.181   3.045  1.00  0.00     0.024 A 
HETATM   23 CL   UNL     1      45.335 -22.512   5.227  1.00  0.00    -0.084 Cl
HETATM   24  C   UNL     1      43.960 -20.056   2.382  1.00  0.00     0.010 A 
ENDBRANCH  15  18
ENDBRANCH  12  15
ENDBRANCH   1  11
BRANCH   8  25
HETATM   25  C   UNL     1      39.035 -11.728   3.702  1.00  0.00     0.270 C 
HETATM   26  N   UNL     1      37.978 -10.943   4.074  1.00  0.00    -0.365 N 
HETATM   27  H   UNL     1      37.603 -11.045   5.011  1.00  0.00     0.159 HD
HETATM   28  H   UNL     1      37.549 -10.328   3.402  1.00  0.00     0.159 HD
HETATM   29  O   UNL     1      39.502 -11.676   2.568  1.00  0.00    -0.266 OA
ENDBRANCH   8  25
TORSDOF 4
ENDMDL
MODEL 3
REMARK VINA RESULT:      -8.2      2.007      2.905
REMARK  4 active torsions:
REMARK  status: ('A' for Active; 'I' for Inactive)
REMARK    1  A    between atoms: C_2  and  C_3 
REMARK    2  A    between atoms: C_3  and  C_4 
REMARK       I    between atoms: C_4  and  N_5 
REMARK    3  A    between atoms: N_5  and  C_6 
REMARK    4  A    between atoms: C_13  and  C_14 
REMARK       I    between atoms: C_14  and  N_15 
ROOT
HETATM    1  C   UNL     1      40.834 -14.850   4.525  1.00  0.00     0.035 A 
HETATM    2  C   UNL     1      41.391 -15.754   5.429  1.00  0.00     0.046 A 
HETATM    3  C   UNL     1      42.499 -15.371   6.220  1.00  0.00     0.030 A 
HETATM    4  C   UNL     1      42.985 -14.077   6.113  1.00  0.00     0.063 A 
HETATM    5  N   UNL     1      44.045 -14.017   6.976  1.00  0.00    -0.277 N 
HETATM    6  H   UNL     1      44.644 -13.219   7.160  1.00  0.00     0.189 HD
HETATM    7  N   UNL     1      44.315 -15.173   7.607  1.00  0.00    -0.168 NA
HETATM    8  C   UNL     1      43.366 -16.020   7.149  1.00  0.00     0.156 A 
HETATM    9  C   UNL     1      42.435 -13.130   5.251  1.00  0.00     0.034 A 
HETATM   10  C   UNL     1      41.366 -13.554   4.447  1.00  0.00     0.032 A 
ENDROOT
BRANCH   1  11
HETATM   11  N   UNL     1      39.846 -15.176   3.583  1.00  0.00    -0.326 N 
HETATM   12  C   UNL     1      39.772 -15.160   2.211  1.00  0.00     0.235 C 
HETATM   13  O   UNL     1      38.655 -15.245   1.695  1.00  0.00    -0.272 OA
HETATM   14  H   UNL     1      38.946 -15.441   3.967  1.00  0.00     0.169 HD
BRANCH  12  15
HETATM   15  C   UNL     1      40.993 -15.246   1.324  1.00  0.00     0.068 A 
HETATM   16  C   UNL     1      41.497 -14.031   0.553  1.00  0.00     0.026 A 
HETATM   17  C   UNL     1      40.716 -15.051  -0.189  1.00  0.00     0.026 A 
BRANCH  15  18
HETATM   18  C   UNL     1      41.920 -16.433   1.621  1.00  0.00    -0.040 A 
HETATM   19  C   UNL     1      41.434 -17.753   1.527  1.00  0.00     0.010 A 
HETATM   20  C   UNL     1      42.245 -18.859   1.796  1.00  0.00     0.024 A 
HETATM   21  C   UNL     1      43.566 -18.661   2.178  1.00  0.00     0.034 A 
HETATM   22  C   UNL     1      44.076 -17.370   2.289  1.00  0.00     0.024 A 
HETATM   23 CL   UNL     1      44.571 -20.015   2.515  1.00  0.00    -0.084 Cl
HETATM   24  C   UNL     1      43.259 -16.267   2.012  1.00  0.00     0.010 A 
ENDBRANCH  15  18
ENDBRANCH  12  15
ENDBRANCH   1  11
BRANCH   8  25
HETATM   25  C   UNL     1      43.321 -17.426   7.571  1.00  0.00     0.270 C 
HETATM   26  N   UNL     1      43.524 -17.618   8.911  1.00  0.00    -0.365 N 
HETATM   27  H   UNL     1      43.706 -16.809   9.495  1.00  0.00     0.159 HD
HETATM   28  H   UNL     1      43.555 -18.553   9.284  1.00  0.00     0.159 HD
HETATM   29  O   UNL     1      43.137 -18.371   6.811  1.00  0.00    -0.266 OA
ENDBRANCH   8  25
TORSDOF 4
ENDMDL
MODEL 4
REMARK VINA RESULT:      -8.1      2.582      5.815
REMARK  4 active torsions:
REMARK  status: ('A' for Active; 'I' for Inactive)
REMARK    1  A    between atoms: C_2  and  C_3 
REMARK    2  A    between atoms: C_3  and  C_4 
REMARK       I    between atoms: C_4  and  N_5 
REMARK    3  A    between atoms: N_5  and  C_6 
REMARK    4  A    between atoms: C_13  and  C_14 
REMARK       I    between atoms: C_14  and  N_15 
ROOT
HETATM    1  C   UNL     1      42.424 -14.371   4.303  1.00  0.00     0.035 A 
HETATM    2  C   UNL     1      42.326 -14.693   2.950  1.00  0.00     0.046 A 
HETATM    3  C   UNL     1      41.115 -14.471   2.255  1.00  0.00     0.030 A 
HETATM    4  C   UNL     1      40.052 -13.889   2.928  1.00  0.00     0.063 A 
HETATM    5  N   UNL     1      39.038 -13.819   2.012  1.00  0.00    -0.277 N 
HETATM    6  H   UNL     1      38.105 -13.448   2.154  1.00  0.00     0.189 HD
HETATM    7  N   UNL     1      39.338 -14.342   0.810  1.00  0.00    -0.168 NA
HETATM    8  C   UNL     1      40.621 -14.749   0.946  1.00  0.00     0.156 A 
HETATM    9  C   UNL     1      40.118 -13.516   4.270  1.00  0.00     0.034 A 
HETATM   10  C   UNL     1      41.318 -13.790   4.943  1.00  0.00     0.032 A 
ENDROOT
BRANCH   1  11
HETATM   11  N   UNL     1      43.517 -14.697   5.121  1.00  0.00    -0.326 N 
HETATM   12  C   UNL     1      43.751 -15.638   6.095  1.00  0.00     0.235 C 
HETATM   13  O   UNL     1      44.735 -15.479   6.821  1.00  0.00    -0.272 OA
HETATM   14  H   UNL     1      44.322 -14.088   5.038  1.00  0.00     0.169 HD
BRANCH  12  15
HETATM   15  C   UNL     1      42.985 -16.937   6.179  1.00  0.00     0.068 A 
HETATM   16  C   UNL     1      41.597 -16.999   6.807  1.00  0.00     0.026 A 
HETATM   17  C   UNL     1      42.749 -17.465   7.618  1.00  0.00     0.026 A 
BRANCH  15  18
HETATM   18  C   UNL     1      43.460 -18.027   5.207  1.00  0.00    -0.040 A 
HETATM   19  C   UNL     1      42.830 -18.183   3.955  1.00  0.00     0.010 A 
HETATM   20  C   UNL     1      43.229 -19.167   3.047  1.00  0.00     0.024 A 
HETATM   21  C   UNL     1      44.266 -20.028   3.383  1.00  0.00     0.034 A 
HETATM   22  C   UNL     1      44.904 -19.908   4.615  1.00  0.00     0.024 A 
HETATM   23 CL   UNL     1      44.761 -21.245   2.273  1.00  0.00    -0.084 Cl
HETATM   24  C   UNL     1      44.504 -18.915   5.517  1.00  0.00     0.010 A 
ENDBRANCH  15  18
ENDBRANCH  12  15
ENDBRANCH   1  11
BRANCH   8  25
HETATM   25  C   UNL     1      41.335 -15.420  -0.148  1.00  0.00     0.270 C 
HETATM   26  N   UNL     1      41.686 -14.594  -1.180  1.00  0.00    -0.365 N 
HETATM   27  H   UNL     1      41.421 -13.616  -1.132  1.00  0.00     0.159 HD
HETATM   28  H   UNL     1      42.140 -14.974  -1.995  1.00  0.00     0.159 HD
HETATM   29  O   UNL     1      41.594 -16.619  -0.173  1.00  0.00    -0.266 OA
ENDBRANCH   8  25
TORSDOF 4
ENDMDL
MODEL 5
REMARK VINA RESULT:      -8.1      2.959      5.180
REMARK  4 active torsions:
REMARK  status: ('A' for Active; 'I' for Inactive)
REMARK    1  A    between atoms: C_2  and  C_3 
REMARK    2  A    between atoms: C_3  and  C_4 
REMARK       I    between atoms: C_4  and  N_5 
REMARK    3  A    between atoms: N_5  and  C_6 
REMARK    4  A    between atoms: C_13  and  C_14 
REMARK       I    between atoms: C_14  and  N_15 
ROOT
HETATM    1  C   UNL     1      43.836 -18.260   1.983  1.00  0.00     0.035 A 
HETATM    2  C   UNL     1      44.105 -18.187   3.350  1.00  0.00     0.046 A 
HETATM    3  C   UNL     1      44.304 -19.371   4.096  1.00  0.00     0.030 A 
HETATM    4  C   UNL     1      44.274 -20.592   3.439  1.00  0.00     0.063 A 
HETATM    5  N   UNL     1      44.483 -21.531   4.412  1.00  0.00    -0.277 N 
HETATM    6  H   UNL     1      44.524 -22.538   4.295  1.00  0.00     0.189 HD
HETATM    7  N   UNL     1      44.607 -21.028   5.653  1.00  0.00    -0.168 NA
HETATM    8  C   UNL     1      44.500 -19.692   5.472  1.00  0.00     0.156 A 
HETATM    9  C   UNL     1      44.047 -20.709   2.069  1.00  0.00     0.034 A 
HETATM   10  C   UNL     1      43.808 -19.519   1.364  1.00  0.00     0.032 A 
ENDROOT
BRANCH   1  11
HETATM   11  N   UNL     1      43.464 -17.166   1.188  1.00  0.00    -0.326 N 
HETATM   12  C   UNL     1      42.368 -16.338   1.129  1.00  0.00     0.235 C 
HETATM   13  O   UNL     1      42.230 -15.640   0.122  1.00  0.00    -0.272 OA
HETATM   14  H   UNL     1      44.104 -16.933   0.437  1.00  0.00     0.169 HD
BRANCH  12  15
HETATM   15  C   UNL     1      41.456 -16.103   2.310  1.00  0.00     0.068 A 
HETATM   16  C   UNL     1      40.125 -16.837   2.440  1.00  0.00     0.026 A 
HETATM   17  C   UNL     1      40.101 -15.431   1.965  1.00  0.00     0.026 A 
BRANCH  15  18
HETATM   18  C   UNL     1      42.140 -15.487   3.538  1.00  0.00    -0.040 A 
HETATM   19  C   UNL     1      43.081 -14.449   3.379  1.00  0.00     0.010 A 
HETATM   20  C   UNL     1      43.730 -13.868   4.472  1.00  0.00     0.024 A 
HETATM   21  C   UNL     1      43.455 -14.327   5.754  1.00  0.00     0.034 A 
HETATM   22  C   UNL     1      42.537 -15.357   5.946  1.00  0.00     0.024 A 
HETATM   23 CL   UNL     1      44.251 -13.622   7.105  1.00  0.00    -0.084 Cl
HETATM   24  C   UNL     1      41.886 -15.930   4.847  1.00  0.00     0.010 A 
ENDBRANCH  15  18
ENDBRANCH  12  15
ENDBRANCH   1  11
BRANCH   8  25
HETATM   25  C   UNL     1      44.548 -18.757   6.604  1.00  0.00     0.270 C 
HETATM   26  N   UNL     1      43.653 -19.034   7.601  1.00  0.00    -0.365 N 
HETATM   27  H   UNL     1      43.026 -19.824   7.486  1.00  0.00     0.159 HD
HETATM   28  H   UNL     1      43.583 -18.421   8.397  1.00  0.00     0.159 HD
HETATM   29  O   UNL     1      45.301 -17.791   6.671  1.00  0.00    -0.266 OA
ENDBRANCH   8  25
TORSDOF 4
ENDMDL
MODEL 6
REMARK VINA RESULT:      -8.0      3.325      6.211
REMARK  4 active torsions:
REMARK  status: ('A' for Active; 'I' for Inactive)
REMARK    1  A    between atoms: C_2  and  C_3 
REMARK    2  A    between atoms: C_3  and  C_4 
REMARK       I    between atoms: C_4  and  N_5 
REMARK    3  A    between atoms: N_5  and  C_6 
REMARK    4  A    between atoms: C_13  and  C_14 
REMARK       I    between atoms: C_14  and  N_15 
ROOT
HETATM    1  C   UNL     1      40.584 -15.680   2.944  1.00  0.00     0.035 A 
HETATM    2  C   UNL     1      40.850 -14.482   2.282  1.00  0.00     0.046 A 
HETATM    3  C   UNL     1      41.150 -14.488   0.901  1.00  0.00     0.030 A 
HETATM    4  C   UNL     1      41.128 -15.692   0.214  1.00  0.00     0.063 A 
HETATM    5  N   UNL     1      41.466 -15.380  -1.074  1.00  0.00    -0.277 N 
HETATM    6  H   UNL     1      41.550 -16.016  -1.860  1.00  0.00     0.189 HD
HETATM    7  N   UNL     1      41.744 -14.080  -1.277  1.00  0.00    -0.168 NA
HETATM    8  C   UNL     1      41.552 -13.516  -0.063  1.00  0.00     0.156 A 
HETATM    9  C   UNL     1      40.829 -16.908   0.827  1.00  0.00     0.034 A 
HETATM   10  C   UNL     1      40.580 -16.875   2.207  1.00  0.00     0.032 A 
ENDROOT
BRANCH   1  11
HETATM   11  N   UNL     1      40.436 -15.804   4.334  1.00  0.00    -0.326 N 
HETATM   12  C   UNL     1      41.225 -16.280   5.353  1.00  0.00     0.235 C 
HETATM   13  O   UNL     1      40.686 -16.505   6.439  1.00  0.00    -0.272 OA
HETATM   14  H   UNL     1      39.530 -15.538   4.703  1.00  0.00     0.169 HD
BRANCH  12  15
HETATM   15  C   UNL     1      42.731 -16.345   5.261  1.00  0.00     0.068 A 
HETATM   16  C   UNL     1      43.618 -15.572   6.232  1.00  0.00     0.026 A 
HETATM   17  C   UNL     1      43.421 -15.011   4.872  1.00  0.00     0.026 A 
BRANCH  15  18
HETATM   18  C   UNL     1      43.276 -17.554   4.487  1.00  0.00    -0.040 A 
HETATM   19  C   UNL     1      43.473 -18.786   5.145  1.00  0.00     0.010 A 
HETATM   20  C   UNL     1      43.974 -19.907   4.478  1.00  0.00     0.024 A 
HETATM   21  C   UNL     1      44.300 -19.811   3.131  1.00  0.00     0.034 A 
HETATM   22  C   UNL     1      44.126 -18.608   2.452  1.00  0.00     0.024 A 
HETATM   23 CL   UNL     1      44.921 -21.184   2.301  1.00  0.00    -0.084 Cl
HETATM   24  C   UNL     1      43.618 -17.490   3.126  1.00  0.00     0.010 A 
ENDBRANCH  15  18
ENDBRANCH  12  15
ENDBRANCH   1  11
BRANCH   8  25
HETATM   25  C   UNL     1      41.787 -12.084   0.166  1.00  0.00     0.270 C 
HETATM   26  N   UNL     1      40.649 -11.354   0.378  1.00  0.00    -0.365 N 
HETATM   27  H   UNL     1      39.753 -11.830   0.343  1.00  0.00     0.159 HD
HETATM   28  H   UNL     1      40.708 -10.356   0.500  1.00  0.00     0.159 HD
HETATM   29  O   UNL     1      42.893 -11.554   0.156  1.00  0.00    -0.266 OA
ENDBRANCH   8  25
TORSDOF 4
ENDMDL
MODEL 7
REMARK VINA RESULT:      -7.9      3.069      5.044
REMARK  4 active torsions:
REMARK  status: ('A' for Active; 'I' for Inactive)
REMARK    1  A    between atoms: C_2  and  C_3 
REMARK    2  A    between atoms: C_3  and  C_4 
REMARK       I    between atoms: C_4  and  N_5 
REMARK    3  A    between atoms: N_5  and  C_6 
REMARK    4  A    between atoms: C_13  and  C_14 
REMARK       I    between atoms: C_14  and  N_15 
ROOT
HETATM    1  C   UNL     1      41.471 -17.520   2.740  1.00  0.00     0.035 A 
HETATM    2  C   UNL     1      41.859 -17.567   4.078  1.00  0.00     0.046 A 
HETATM    3  C   UNL     1      42.959 -18.366   4.468  1.00  0.00     0.030 A 
HETATM    4  C   UNL     1      43.665 -19.057   3.496  1.00  0.00     0.063 A 
HETATM    5  N   UNL     1      44.642 -19.736   4.171  1.00  0.00    -0.277 N 
HETATM    6  H   UNL     1      45.349 -20.348   3.779  1.00  0.00     0.189 HD
HETATM    7  N   UNL     1      44.608 -19.575   5.506  1.00  0.00    -0.168 NA
HETATM    8  C   UNL     1      43.572 -18.730   5.704  1.00  0.00     0.156 A 
HETATM    9  C   UNL     1      43.336 -19.009   2.142  1.00  0.00     0.034 A 
HETATM   10  C   UNL     1      42.212 -18.243   1.793  1.00  0.00     0.032 A 
ENDROOT
BRANCH   1  11
HETATM   11  N   UNL     1      40.305 -16.894   2.273  1.00  0.00    -0.326 N 
HETATM   12  C   UNL     1      39.887 -15.590   2.153  1.00  0.00     0.235 C 
HETATM   13  O   UNL     1      38.686 -15.389   1.960  1.00  0.00    -0.272 OA
HETATM   14  H   UNL     1      39.554 -17.517   1.998  1.00  0.00     0.169 HD
BRANCH  12  15
HETATM   15  C   UNL     1      40.847 -14.429   2.049  1.00  0.00     0.068 A 
HETATM   16  C   UNL     1      40.613 -13.295   1.056  1.00  0.00     0.026 A 
HETATM   17  C   UNL     1      41.614 -14.333   0.704  1.00  0.00     0.026 A 
BRANCH  15  18
HETATM   18  C   UNL     1      41.750 -14.229   3.274  1.00  0.00    -0.040 A 
HETATM   19  C   UNL     1      41.181 -14.063   4.554  1.00  0.00     0.010 A 
HETATM   20  C   UNL     1      41.970 -13.872   5.692  1.00  0.00     0.024 A 
HETATM   21  C   UNL     1      43.353 -13.832   5.567  1.00  0.00     0.034 A 
HETATM   22  C   UNL     1      43.947 -13.984   4.317  1.00  0.00     0.024 A 
HETATM   23 CL   UNL     1      44.331 -13.593   6.961  1.00  0.00    -0.084 Cl
HETATM   24  C   UNL     1      43.151 -14.182   3.182  1.00  0.00     0.010 A 
ENDBRANCH  15  18
ENDBRANCH  12  15
ENDBRANCH   1  11
BRANCH   8  25
HETATM   25  C   UNL     1      43.164 -18.315   7.053  1.00  0.00     0.270 C 
HETATM   26  N   UNL     1      43.646 -19.111   8.055  1.00  0.00    -0.365 N 
HETATM   27  H   UNL     1      44.212 -19.916   7.808  1.00  0.00     0.159 HD
HETATM   28  H   UNL     1      43.382 -18.930   9.010  1.00  0.00     0.159 HD
HETATM   29  O   UNL     1      42.441 -17.353   7.292  1.00  0.00    -0.266 OA
ENDBRANCH   8  25
TORSDOF 4
ENDMDL
MODEL 8
REMARK VINA RESULT:      -7.8      2.774      5.634
REMARK  4 active torsions:
REMARK  status: ('A' for Active; 'I' for Inactive)
REMARK    1  A    between atoms: C_2  and  C_3 
REMARK    2  A    between atoms: C_3  and  C_4 
REMARK       I    between atoms: C_4  and  N_5 
REMARK    3  A    between atoms: N_5  and  C_6 
REMARK    4  A    between atoms: C_13  and  C_14 
REMARK       I    between atoms: C_14  and  N_15 
ROOT
HETATM    1  C   UNL     1      41.188 -14.750   4.628  1.00  0.00     0.035 A 
HETATM    2  C   UNL     1      41.170 -15.102   3.278  1.00  0.00     0.046 A 
HETATM    3  C   UNL     1      41.539 -14.155   2.295  1.00  0.00     0.030 A 
HETATM    4  C   UNL     1      41.961 -12.898   2.698  1.00  0.00     0.063 A 
HETATM    5  N   UNL     1      42.231 -12.219   1.542  1.00  0.00    -0.277 N 
HETATM    6  H   UNL     1      42.563 -11.264   1.452  1.00  0.00     0.189 HD
HETATM    7  N   UNL     1      41.984 -12.914   0.418  1.00  0.00    -0.168 NA
HETATM    8  C   UNL     1      41.556 -14.115   0.869  1.00  0.00     0.156 A 
HETATM    9  C   UNL     1      42.031 -12.516   4.037  1.00  0.00     0.034 A 
HETATM   10  C   UNL     1      41.615 -13.462   4.987  1.00  0.00     0.032 A 
ENDROOT
BRANCH   1  11
HETATM   11  N   UNL     1      40.689 -15.552   5.665  1.00  0.00    -0.326 N 
HETATM   12  C   UNL     1      41.150 -16.655   6.343  1.00  0.00     0.235 C 
HETATM   13  O   UNL     1      40.339 -17.294   7.018  1.00  0.00    -0.272 OA
HETATM   14  H   UNL     1      39.752 -15.329   5.979  1.00  0.00     0.169 HD
BRANCH  12  15
HETATM   15  C   UNL     1      42.618 -16.993   6.457  1.00  0.00     0.068 A 
HETATM   16  C   UNL     1      43.390 -16.741   7.747  1.00  0.00     0.026 A 
HETATM   17  C   UNL     1      43.557 -15.773   6.636  1.00  0.00     0.026 A 
BRANCH  15  18
HETATM   18  C   UNL     1      43.128 -18.000   5.416  1.00  0.00    -0.040 A 
HETATM   19  C   UNL     1      44.072 -18.982   5.784  1.00  0.00     0.010 A 
HETATM   20  C   UNL     1      44.565 -19.911   4.865  1.00  0.00     0.024 A 
HETATM   21  C   UNL     1      44.128 -19.867   3.547  1.00  0.00     0.034 A 
HETATM   22  C   UNL     1      43.204 -18.905   3.147  1.00  0.00     0.024 A 
HETATM   23 CL   UNL     1      44.733 -21.004   2.407  1.00  0.00    -0.084 Cl
HETATM   24  C   UNL     1      42.709 -17.981   4.076  1.00  0.00     0.010 A 
ENDBRANCH  15  18
ENDBRANCH  12  15
ENDBRANCH   1  11
BRANCH   8  25
HETATM   25  C   UNL     1      41.140 -15.180  -0.054  1.00  0.00     0.270 C 
HETATM   26  N   UNL     1      40.119 -14.829  -0.894  1.00  0.00    -0.365 N 
HETATM   27  H   UNL     1      39.719 -13.900  -0.811  1.00  0.00     0.159 HD
HETATM   28  H   UNL     1      39.738 -15.509  -1.531  1.00  0.00     0.159 HD
HETATM   29  O   UNL     1      41.634 -16.303  -0.082  1.00  0.00    -0.266 OA
ENDBRANCH   8  25
TORSDOF 4
ENDMDL
MODEL 9
REMARK VINA RESULT:      -7.8      3.410      5.595
REMARK  4 active torsions:
REMARK  status: ('A' for Active; 'I' for Inactive)
REMARK    1  A    between atoms: C_2  and  C_3 
REMARK    2  A    between atoms: C_3  and  C_4 
REMARK       I    between atoms: C_4  and  N_5 
REMARK    3  A    between atoms: N_5  and  C_6 
REMARK    4  A    between atoms: C_13  and  C_14 
REMARK       I    between atoms: C_14  and  N_15 
ROOT
HETATM    1  C   UNL     1      41.421 -16.969   5.633  1.00  0.00     0.035 A 
HETATM    2  C   UNL     1      41.907 -17.720   4.563  1.00  0.00     0.046 A 
HETATM    3  C   UNL     1      43.022 -18.569   4.744  1.00  0.00     0.030 A 
HETATM    4  C   UNL     1      43.589 -18.675   6.005  1.00  0.00     0.063 A 
HETATM    5  N   UNL     1      44.636 -19.544   5.859  1.00  0.00    -0.277 N 
HETATM    6  H   UNL     1      45.279 -19.857   6.578  1.00  0.00     0.189 HD
HETATM    7  N   UNL     1      44.824 -19.982   4.602  1.00  0.00    -0.168 NA
HETATM    8  C   UNL     1      43.832 -19.388   3.901  1.00  0.00     0.156 A 
HETATM    9  C   UNL     1      43.112 -17.973   7.111  1.00  0.00     0.034 A 
HETATM   10  C   UNL     1      42.032 -17.104   6.889  1.00  0.00     0.032 A 
ENDROOT
BRANCH   1  11
HETATM   11  N   UNL     1      40.431 -15.981   5.525  1.00  0.00    -0.326 N 
HETATM   12  C   UNL     1      40.414 -14.665   5.128  1.00  0.00     0.235 C 
HETATM   13  O   UNL     1      39.422 -13.991   5.416  1.00  0.00    -0.272 OA
HETATM   14  H   UNL     1      39.510 -16.246   5.855  1.00  0.00     0.169 HD
BRANCH  12  15
HETATM   15  C   UNL     1      41.448 -14.078   4.196  1.00  0.00     0.068 A 
HETATM   16  C   UNL     1      42.786 -13.568   4.720  1.00  0.00     0.026 A 
HETATM   17  C   UNL     1      41.736 -12.569   4.406  1.00  0.00     0.026 A 
BRANCH  15  18
HETATM   18  C   UNL     1      41.273 -14.459   2.719  1.00  0.00    -0.040 A 
HETATM   19  C   UNL     1      42.298 -15.148   2.039  1.00  0.00     0.010 A 
HETATM   20  C   UNL     1      42.179 -15.507   0.694  1.00  0.00     0.024 A 
HETATM   21  C   UNL     1      41.027 -15.169  -0.004  1.00  0.00     0.034 A 
HETATM   22  C   UNL     1      39.998 -14.480   0.634  1.00  0.00     0.024 A 
HETATM   23 CL   UNL     1      40.872 -15.601  -1.662  1.00  0.00    -0.084 Cl
HETATM   24  C   UNL     1      40.122 -14.130   1.984  1.00  0.00     0.010 A 
ENDBRANCH  15  18
ENDBRANCH  12  15
ENDBRANCH   1  11
BRANCH   8  25
HETATM   25  C   UNL     1      43.694 -19.578   2.451  1.00  0.00     0.270 C 
HETATM   26  N   UNL     1      43.997 -18.470   1.707  1.00  0.00    -0.365 N 
HETATM   27  H   UNL     1      44.265 -17.619   2.190  1.00  0.00     0.159 HD
HETATM   28  H   UNL     1      43.889 -18.493   0.706  1.00  0.00     0.159 HD
HETATM   29  O   UNL     1      43.325 -20.621   1.922  1.00  0.00    -0.266 OA
ENDBRANCH   8  25
TORSDOF 4
ENDMDL
MODEL 10
REMARK VINA RESULT:      -7.8      4.013      5.865
REMARK  4 active torsions:
REMARK  status: ('A' for Active; 'I' for Inactive)
REMARK    1  A    between atoms: C_2  and  C_3 
REMARK    2  A    between atoms: C_3  and  C_4 
REMARK       I    between atoms: C_4  and  N_5 
REMARK    3  A    between atoms: N_5  and  C_6 
REMARK    4  A    between atoms: C_13  and  C_14 
REMARK       I    between atoms: C_14  and  N_15 
ROOT
HETATM    1  C   UNL     1      42.037 -17.573   3.105  1.00  0.00     0.035 A 
HETATM    2  C   UNL     1      42.532 -18.099   4.298  1.00  0.00     0.046 A 
HETATM    3  C   UNL     1      43.527 -19.103   4.269  1.00  0.00     0.030 A 
HETATM    4  C   UNL     1      44.029 -19.517   3.045  1.00  0.00     0.063 A 
HETATM    5  N   UNL     1      44.947 -20.487   3.340  1.00  0.00    -0.277 N 
HETATM    6  H   UNL     1      45.514 -21.016   2.686  1.00  0.00     0.189 HD
HETATM    7  N   UNL     1      45.058 -20.768   4.650  1.00  0.00    -0.168 NA
HETATM    8  C   UNL     1      44.185 -19.918   5.238  1.00  0.00     0.156 A 
HETATM    9  C   UNL     1      43.590 -18.992   1.830  1.00  0.00     0.034 A 
HETATM   10  C   UNL     1      42.571 -18.029   1.890  1.00  0.00     0.032 A 
ENDROOT
BRANCH   1  11
HETATM   11  N   UNL     1      40.944 -16.698   3.016  1.00  0.00    -0.326 N 
HETATM   12  C   UNL     1      40.800 -15.339   2.870  1.00  0.00     0.235 C 
HETATM   13  O   UNL     1      39.693 -14.851   3.107  1.00  0.00    -0.272 OA
HETATM   14  H   UNL     1      40.032 -17.124   3.132  1.00  0.00     0.169 HD
BRANCH  12  15
HETATM   15  C   UNL     1      41.864 -14.465   2.250  1.00  0.00     0.068 A 
HETATM   16  C   UNL     1      43.223 -14.280   2.916  1.00  0.00     0.026 A 
HETATM   17  C   UNL     1      42.223 -13.194   3.064  1.00  0.00     0.026 A 
BRANCH  15  18
HETATM   18  C   UNL     1      41.676 -14.188   0.752  1.00  0.00    -0.040 A 
HETATM   19  C   UNL     1      41.258 -15.222  -0.112  1.00  0.00     0.010 A 
HETATM   20  C   UNL     1      41.082 -15.012  -1.482  1.00  0.00     0.024 A 
HETATM   21  C   UNL     1      41.336 -13.756  -2.019  1.00  0.00     0.034 A 
HETATM   22  C   UNL     1      41.758 -12.715  -1.196  1.00  0.00     0.024 A 
HETATM   23 CL   UNL     1      41.127 -13.488  -3.705  1.00  0.00    -0.084 Cl
HETATM   24  C   UNL     1      41.926 -12.931   0.177  1.00  0.00     0.010 A 
ENDBRANCH  15  18
ENDBRANCH  12  15
ENDBRANCH   1  11
BRANCH   8  25
HETATM   25  C   UNL     1      43.969 -19.921   6.691  1.00  0.00     0.270 C 
HETATM   26  N   UNL     1      43.565 -21.126   7.197  1.00  0.00    -0.365 N 
HETATM   27  H   UNL     1      43.428 -21.901   6.556  1.00  0.00     0.159 HD
HETATM   28  H   UNL     1      43.350 -21.212   8.177  1.00  0.00     0.159 HD
HETATM   29  O   UNL     1      44.111 -18.939   7.413  1.00  0.00    -0.266 OA
ENDBRANCH   8  25
TORSDOF 4
ENDMDL
