MODEL 1
REMARK VINA RESULT:      -8.5      0.000      0.000
REMARK  6 active torsions:
REMARK  status: ('A' for Active; 'I' for Inactive)
REMARK    1  A    between atoms: C_2  and  O_3 
REMARK    2  A    between atoms: O_3  and  C_4 
REMARK    3  A    between atoms: C_5  and  O_6 
REMARK    4  A    between atoms: C_10  and  C_11 
REMARK    5  A    between atoms: C_20  and  C_21 
REMARK       I    between atoms: C_21  and  N_22 
REMARK    6  A    between atoms: N_22  and  C_23 
ROOT
HETATM    1  C   UNL     1      41.696 -14.214   3.791  1.00  0.00     0.202 A 
HETATM    2  N   UNL     1      41.289 -13.050   4.587  1.00  0.00    -0.084 N 
HETATM    3  C   UNL     1      40.678 -13.130   5.805  1.00  0.00     0.725 A 
HETATM    4  N   UNL     1      40.506 -11.927   6.288  1.00  0.00    -0.054 NA
HETATM    5  C   UNL     1      41.088 -11.132   5.334  1.00  0.00     0.275 A 
HETATM    6  N   UNL     1      41.622 -11.775   4.289  1.00  0.00    -0.149 NA
HETATM    7  N   UNL     1      40.395 -14.341   6.319  1.00  0.00    -0.192 N 
HETATM    8  C   UNL     1      40.741 -15.538   5.702  1.00  0.00     0.037 A 
HETATM    9  C   UNL     1      40.390 -16.788   6.473  1.00  0.00     0.070 C 
HETATM   10  C   UNL     1      41.371 -15.527   4.498  1.00  0.00     0.062 A 
HETATM   11  H   UNL     1      39.951 -14.389   7.232  1.00  0.00     0.184 HD
ENDROOT
BRANCH   1  12
HETATM   12  C   UNL     1      41.131 -14.103   2.375  1.00  0.00    -0.024 A 
HETATM   13  C   UNL     1      39.736 -14.119   2.189  1.00  0.00     0.031 A 
HETATM   14  C   UNL     1      39.187 -14.020   0.909  1.00  0.00     0.047 A 
HETATM   15  C   UNL     1      40.028 -13.904  -0.194  1.00  0.00     0.116 A 
HETATM   16 BR   UNL     1      37.302 -14.044   0.727  1.00  0.00    -0.048 Br
HETATM   17  C   UNL     1      41.420 -13.893  -0.036  1.00  0.00     0.103 A 
HETATM   18  C   UNL     1      41.968 -14.009   1.245  1.00  0.00     0.049 A 
BRANCH  15  19
HETATM   19  O   UNL     1      39.507 -13.796  -1.459  1.00  0.00    -0.357 OA
HETATM   20  H   UNL     1      40.281 -13.759  -2.055  1.00  0.00     0.218 HD
ENDBRANCH  15  19
BRANCH  17  21
HETATM   21  O   UNL     1      42.131 -13.770  -1.203  1.00  0.00    -0.349 OA
BRANCH  21  22
HETATM   22  C   UNL     1      42.621 -12.468  -1.530  1.00  0.00     0.171 C 
HETATM   23  C   UNL     1      42.515 -12.296  -3.034  1.00  0.00     0.034 C 
ENDBRANCH  21  22
ENDBRANCH  17  21
ENDBRANCH   1  12
BRANCH  10  24
HETATM   24  C   UNL     1      41.650 -16.809   3.780  1.00  0.00     0.256 C 
HETATM   25  N   UNL     1      42.890 -17.352   4.042  1.00  0.00    -0.323 N 
HETATM   26  H   UNL     1      43.521 -16.856   4.652  1.00  0.00     0.169 HD
HETATM   27  O   UNL     1      40.812 -17.250   3.000  1.00  0.00    -0.267 OA
BRANCH  25  28
HETATM   28  C   UNL     1      43.418 -18.549   3.509  1.00  0.00     0.035 A 
HETATM   29  C   UNL     1      43.125 -19.033   2.232  1.00  0.00     0.029 A 
HETATM   30  C   UNL     1      43.679 -20.238   1.786  1.00  0.00     0.002 A 
HETATM   31  C   UNL     1      44.536 -20.964   2.609  1.00  0.00     0.000 A 
HETATM   32  C   UNL     1      44.836 -20.490   3.882  1.00  0.00     0.002 A 
HETATM   33  C   UNL     1      44.274 -19.293   4.333  1.00  0.00     0.029 A 
ENDBRANCH  25  28
ENDBRANCH  10  24
TORSDOF 6
ENDMDL
MODEL 2
REMARK VINA RESULT:      -7.9      1.582      2.331
REMARK  6 active torsions:
REMARK  status: ('A' for Active; 'I' for Inactive)
REMARK    1  A    between atoms: C_2  and  O_3 
REMARK    2  A    between atoms: O_3  and  C_4 
REMARK    3  A    between atoms: C_5  and  O_6 
REMARK    4  A    between atoms: C_10  and  C_11 
REMARK    5  A    between atoms: C_20  and  C_21 
REMARK       I    between atoms: C_21  and  N_22 
REMARK    6  A    between atoms: N_22  and  C_23 
ROOT
HETATM    1  C   UNL     1      41.295 -14.175   3.628  1.00  0.00     0.202 A 
HETATM    2  N   UNL     1      40.931 -12.991   4.417  1.00  0.00    -0.084 N 
HETATM    3  C   UNL     1      40.518 -13.035   5.717  1.00  0.00     0.725 A 
HETATM    4  N   UNL     1      40.336 -11.817   6.158  1.00  0.00    -0.054 NA
HETATM    5  C   UNL     1      40.710 -11.047   5.088  1.00  0.00     0.275 A 
HETATM    6  N   UNL     1      41.125 -11.719   4.006  1.00  0.00    -0.149 NA
HETATM    7  N   UNL     1      40.401 -14.227   6.329  1.00  0.00    -0.192 N 
HETATM    8  C   UNL     1      40.733 -15.436   5.729  1.00  0.00     0.037 A 
HETATM    9  C   UNL     1      40.592 -16.656   6.607  1.00  0.00     0.070 C 
HETATM   10  C   UNL     1      41.173 -15.459   4.443  1.00  0.00     0.062 A 
HETATM   11  H   UNL     1      40.104 -14.246   7.302  1.00  0.00     0.184 HD
ENDROOT
BRANCH   1  12
HETATM   12  C   UNL     1      40.517 -14.186   2.313  1.00  0.00    -0.024 A 
HETATM   13  C   UNL     1      41.156 -14.631   1.141  1.00  0.00     0.031 A 
HETATM   14  C   UNL     1      40.475 -14.655  -0.078  1.00  0.00     0.047 A 
HETATM   15  C   UNL     1      39.149 -14.233  -0.134  1.00  0.00     0.116 A 
HETATM   16 BR   UNL     1      41.392 -15.267  -1.618  1.00  0.00    -0.048 Br
HETATM   17  C   UNL     1      38.493 -13.779   1.018  1.00  0.00     0.103 A 
HETATM   18  C   UNL     1      39.182 -13.741   2.233  1.00  0.00     0.049 A 
BRANCH  15  19
HETATM   19  O   UNL     1      38.460 -14.257  -1.321  1.00  0.00    -0.357 OA
HETATM   20  H   UNL     1      37.598 -13.839  -1.127  1.00  0.00     0.218 HD
ENDBRANCH  15  19
BRANCH  17  21
HETATM   21  O   UNL     1      37.189 -13.397   0.824  1.00  0.00    -0.349 OA
BRANCH  21  22
HETATM   22  C   UNL     1      36.903 -12.000   0.919  1.00  0.00     0.171 C 
HETATM   23  C   UNL     1      36.568 -11.498  -0.473  1.00  0.00     0.034 C 
ENDBRANCH  21  22
ENDBRANCH  17  21
ENDBRANCH   1  12
BRANCH  10  24
HETATM   24  C   UNL     1      41.430 -16.764   3.757  1.00  0.00     0.256 C 
HETATM   25  N   UNL     1      42.709 -17.252   3.921  1.00  0.00    -0.323 N 
HETATM   26  H   UNL     1      43.376 -16.708   4.446  1.00  0.00     0.169 HD
HETATM   27  O   UNL     1      40.540 -17.267   3.081  1.00  0.00    -0.267 OA
BRANCH  25  28
HETATM   28  C   UNL     1      43.229 -18.455   3.391  1.00  0.00     0.035 A 
HETATM   29  C   UNL     1      42.907 -18.957   2.128  1.00  0.00     0.029 A 
HETATM   30  C   UNL     1      43.454 -20.166   1.685  1.00  0.00     0.002 A 
HETATM   31  C   UNL     1      44.333 -20.878   2.497  1.00  0.00     0.000 A 
HETATM   32  C   UNL     1      44.662 -20.386   3.756  1.00  0.00     0.002 A 
HETATM   33  C   UNL     1      44.107 -19.185   4.204  1.00  0.00     0.029 A 
ENDBRANCH  25  28
ENDBRANCH  10  24
TORSDOF 6
ENDMDL
MODEL 3
REMARK VINA RESULT:      -7.8      2.803      3.532
REMARK  6 active torsions:
REMARK  status: ('A' for Active; 'I' for Inactive)
REMARK    1  A    between atoms: C_2  and  O_3 
REMARK    2  A    between atoms: O_3  and  C_4 
REMARK    3  A    between atoms: C_5  and  O_6 
REMARK    4  A    between atoms: C_10  and  C_11 
REMARK    5  A    between atoms: C_20  and  C_21 
REMARK       I    between atoms: C_21  and  N_22 
REMARK    6  A    between atoms: N_22  and  C_23 
ROOT
HETATM    1  C   UNL     1      43.994 -15.666   5.378  1.00  0.00     0.202 A 
HETATM    2  N   UNL     1      44.277 -14.626   6.375  1.00  0.00    -0.084 N 
HETATM    3  C   UNL     1      44.231 -14.826   7.725  1.00  0.00     0.725 A 
HETATM    4  N   UNL     1      44.598 -13.732   8.341  1.00  0.00    -0.054 NA
HETATM    5  C   UNL     1      44.917 -12.893   7.305  1.00  0.00     0.275 A 
HETATM    6  N   UNL     1      44.778 -13.407   6.077  1.00  0.00    -0.149 NA
HETATM    7  N   UNL     1      43.880 -16.035   8.198  1.00  0.00    -0.192 N 
HETATM    8  C   UNL     1      43.610 -17.130   7.385  1.00  0.00     0.037 A 
HETATM    9  C   UNL     1      43.296 -18.416   8.113  1.00  0.00     0.070 C 
HETATM   10  C   UNL     1      43.661 -17.003   6.033  1.00  0.00     0.062 A 
HETATM   11  H   UNL     1      43.860 -16.176   9.205  1.00  0.00     0.184 HD
ENDROOT
BRANCH   1  12
HETATM   12  C   UNL     1      42.943 -15.168   4.387  1.00  0.00    -0.024 A 
HETATM   13  C   UNL     1      41.919 -14.317   4.842  1.00  0.00     0.031 A 
HETATM   14  C   UNL     1      40.943 -13.844   3.963  1.00  0.00     0.047 A 
HETATM   15  C   UNL     1      40.983 -14.219   2.622  1.00  0.00     0.116 A 
HETATM   16 BR   UNL     1      39.593 -12.699   4.637  1.00  0.00    -0.048 Br
HETATM   17  C   UNL     1      41.988 -15.071   2.146  1.00  0.00     0.103 A 
HETATM   18  C   UNL     1      42.954 -15.556   3.032  1.00  0.00     0.049 A 
BRANCH  15  19
HETATM   19  O   UNL     1      40.037 -13.757   1.741  1.00  0.00    -0.357 OA
HETATM   20  H   UNL     1      40.503 -13.665   0.887  1.00  0.00     0.218 HD
ENDBRANCH  15  19
BRANCH  17  21
HETATM   21  O   UNL     1      41.913 -15.357   0.807  1.00  0.00    -0.349 OA
BRANCH  21  22
HETATM   22  C   UNL     1      42.103 -16.721   0.425  1.00  0.00     0.171 C 
HETATM   23  C   UNL     1      40.972 -17.534   1.027  1.00  0.00     0.034 C 
ENDBRANCH  21  22
ENDBRANCH  17  21
ENDBRANCH   1  12
BRANCH  10  24
HETATM   24  C   UNL     1      43.268 -18.147   5.152  1.00  0.00     0.256 C 
HETATM   25  N   UNL     1      44.328 -18.817   4.580  1.00  0.00    -0.323 N 
HETATM   26  H   UNL     1      45.266 -18.491   4.758  1.00  0.00     0.169 HD
HETATM   27  O   UNL     1      42.077 -18.373   4.964  1.00  0.00    -0.267 OA
BRANCH  25  28
HETATM   28  C   UNL     1      44.256 -19.930   3.712  1.00  0.00     0.035 A 
HETATM   29  C   UNL     1      44.699 -21.212   4.045  1.00  0.00     0.029 A 
HETATM   30  C   UNL     1      44.606 -22.257   3.119  1.00  0.00     0.002 A 
HETATM   31  C   UNL     1      44.061 -22.031   1.857  1.00  0.00     0.000 A 
HETATM   32  C   UNL     1      43.616 -20.758   1.516  1.00  0.00     0.002 A 
HETATM   33  C   UNL     1      43.720 -19.711   2.436  1.00  0.00     0.029 A 
ENDBRANCH  25  28
ENDBRANCH  10  24
TORSDOF 6
ENDMDL
MODEL 4
REMARK VINA RESULT:      -7.8      2.801      3.924
REMARK  6 active torsions:
REMARK  status: ('A' for Active; 'I' for Inactive)
REMARK    1  A    between atoms: C_2  and  O_3 
REMARK    2  A    between atoms: O_3  and  C_4 
REMARK    3  A    between atoms: C_5  and  O_6 
REMARK    4  A    between atoms: C_10  and  C_11 
REMARK    5  A    between atoms: C_20  and  C_21 
REMARK       I    between atoms: C_21  and  N_22 
REMARK    6  A    between atoms: N_22  and  C_23 
ROOT
HETATM    1  C   UNL     1      43.716 -15.720   5.328  1.00  0.00     0.202 A 
HETATM    2  N   UNL     1      43.998 -14.688   6.333  1.00  0.00    -0.084 N 
HETATM    3  C   UNL     1      44.115 -14.934   7.671  1.00  0.00     0.725 A 
HETATM    4  N   UNL     1      44.434 -13.828   8.292  1.00  0.00    -0.054 NA
HETATM    5  C   UNL     1      44.556 -12.928   7.266  1.00  0.00     0.275 A 
HETATM    6  N   UNL     1      44.340 -13.415   6.037  1.00  0.00    -0.149 NA
HETATM    7  N   UNL     1      43.938 -16.187   8.126  1.00  0.00    -0.192 N 
HETATM    8  C   UNL     1      43.694 -17.278   7.300  1.00  0.00     0.037 A 
HETATM    9  C   UNL     1      43.589 -18.611   8.001  1.00  0.00     0.070 C 
HETATM   10  C   UNL     1      43.589 -17.104   5.957  1.00  0.00     0.062 A 
HETATM   11  H   UNL     1      44.039 -16.360   9.123  1.00  0.00     0.184 HD
ENDROOT
BRANCH   1  12
HETATM   12  C   UNL     1      42.522 -15.303   4.471  1.00  0.00    -0.024 A 
HETATM   13  C   UNL     1      42.569 -15.511   3.080  1.00  0.00     0.031 A 
HETATM   14  C   UNL     1      41.495 -15.142   2.267  1.00  0.00     0.047 A 
HETATM   15  C   UNL     1      40.366 -14.562   2.840  1.00  0.00     0.116 A 
HETATM   16 BR   UNL     1      41.620 -15.452   0.403  1.00  0.00    -0.048 Br
HETATM   17  C   UNL     1      40.297 -14.338   4.221  1.00  0.00     0.103 A 
HETATM   18  C   UNL     1      41.381 -14.693   5.029  1.00  0.00     0.049 A 
BRANCH  15  19
HETATM   19  O   UNL     1      39.296 -14.201   2.059  1.00  0.00    -0.357 OA
HETATM   20  H   UNL     1      39.640 -13.516   1.452  1.00  0.00     0.218 HD
ENDBRANCH  15  19
BRANCH  17  21
HETATM   21  O   UNL     1      39.129 -13.763   4.653  1.00  0.00    -0.349 OA
BRANCH  21  22
HETATM   22  C   UNL     1      39.232 -12.492   5.296  1.00  0.00     0.171 C 
HETATM   23  C   UNL     1      38.737 -11.438   4.323  1.00  0.00     0.034 C 
ENDBRANCH  21  22
ENDBRANCH  17  21
ENDBRANCH   1  12
BRANCH  10  24
HETATM   24  C   UNL     1      43.221 -18.255   5.073  1.00  0.00     0.256 C 
HETATM   25  N   UNL     1      44.293 -18.870   4.461  1.00  0.00    -0.323 N 
HETATM   26  H   UNL     1      45.219 -18.503   4.615  1.00  0.00     0.169 HD
HETATM   27  O   UNL     1      42.037 -18.532   4.918  1.00  0.00    -0.267 OA
BRANCH  25  28
HETATM   28  C   UNL     1      44.244 -19.974   3.581  1.00  0.00     0.035 A 
HETATM   29  C   UNL     1      43.763 -19.911   2.272  1.00  0.00     0.029 A 
HETATM   30  C   UNL     1      43.734 -21.057   1.471  1.00  0.00     0.002 A 
HETATM   31  C   UNL     1      44.193 -22.274   1.969  1.00  0.00     0.000 A 
HETATM   32  C   UNL     1      44.675 -22.348   3.272  1.00  0.00     0.002 A 
HETATM   33  C   UNL     1      44.693 -21.206   4.077  1.00  0.00     0.029 A 
ENDBRANCH  25  28
ENDBRANCH  10  24
TORSDOF 6
ENDMDL
MODEL 5
REMARK VINA RESULT:      -7.8      3.042      6.599
REMARK  6 active torsions:
REMARK  status: ('A' for Active; 'I' for Inactive)
REMARK    1  A    between atoms: C_2  and  O_3 
REMARK    2  A    between atoms: O_3  and  C_4 
REMARK    3  A    between atoms: C_5  and  O_6 
REMARK    4  A    between atoms: C_10  and  C_11 
REMARK    5  A    between atoms: C_20  and  C_21 
REMARK       I    between atoms: C_21  and  N_22 
REMARK    6  A    between atoms: N_22  and  C_23 
ROOT
HETATM    1  C   UNL     1      42.332 -16.092   5.761  1.00  0.00     0.202 A 
HETATM    2  N   UNL     1      43.050 -17.285   6.224  1.00  0.00    -0.084 N 
HETATM    3  C   UNL     1      44.271 -17.255   6.836  1.00  0.00     0.725 A 
HETATM    4  N   UNL     1      44.612 -18.467   7.189  1.00  0.00    -0.054 NA
HETATM    5  C   UNL     1      43.523 -19.211   6.814  1.00  0.00     0.275 A 
HETATM    6  N   UNL     1      42.517 -18.526   6.255  1.00  0.00    -0.149 NA
HETATM    7  N   UNL     1      44.888 -16.073   7.011  1.00  0.00    -0.192 N 
HETATM    8  C   UNL     1      44.328 -14.852   6.653  1.00  0.00     0.037 A 
HETATM    9  C   UNL     1      45.155 -13.635   6.992  1.00  0.00     0.070 C 
HETATM   10  C   UNL     1      43.106 -14.812   6.061  1.00  0.00     0.062 A 
HETATM   11  H   UNL     1      45.792 -16.062   7.478  1.00  0.00     0.184 HD
ENDROOT
BRANCH   1  12
HETATM   12  C   UNL     1      41.931 -16.259   4.296  1.00  0.00    -0.024 A 
HETATM   13  C   UNL     1      42.848 -16.830   3.394  1.00  0.00     0.031 A 
HETATM   14  C   UNL     1      42.515 -16.997   2.049  1.00  0.00     0.047 A 
HETATM   15  C   UNL     1      41.262 -16.594   1.595  1.00  0.00     0.116 A 
HETATM   16 BR   UNL     1      43.793 -17.776   0.887  1.00  0.00    -0.048 Br
HETATM   17  C   UNL     1      40.334 -16.016   2.471  1.00  0.00     0.103 A 
HETATM   18  C   UNL     1      40.677 -15.835   3.813  1.00  0.00     0.049 A 
BRANCH  15  19
HETATM   19  O   UNL     1      40.912 -16.758   0.277  1.00  0.00    -0.357 OA
HETATM   20  H   UNL     1      41.752 -16.929  -0.193  1.00  0.00     0.218 HD
ENDBRANCH  15  19
BRANCH  17  21
HETATM   21  O   UNL     1      39.138 -15.668   1.895  1.00  0.00    -0.349 OA
BRANCH  21  22
HETATM   22  C   UNL     1      38.876 -14.272   1.741  1.00  0.00     0.171 C 
HETATM   23  C   UNL     1      37.653 -14.123   0.855  1.00  0.00     0.034 C 
ENDBRANCH  21  22
ENDBRANCH  17  21
ENDBRANCH   1  12
BRANCH  10  24
HETATM   24  C   UNL     1      42.544 -13.512   5.578  1.00  0.00     0.256 C 
HETATM   25  N   UNL     1      41.424 -13.084   6.260  1.00  0.00    -0.323 N 
HETATM   26  H   UNL     1      41.048 -13.665   6.993  1.00  0.00     0.169 HD
HETATM   27  O   UNL     1      43.064 -12.960   4.614  1.00  0.00    -0.267 OA
BRANCH  25  28
HETATM   28  C   UNL     1      40.690 -11.901   6.022  1.00  0.00     0.035 A 
HETATM   29  C   UNL     1      40.886 -10.706   6.718  1.00  0.00     0.029 A 
HETATM   30  C   UNL     1      40.103  -9.582   6.432  1.00  0.00     0.002 A 
HETATM   31  C   UNL     1      39.125  -9.641   5.442  1.00  0.00     0.000 A 
HETATM   32  C   UNL     1      38.923 -10.826   4.741  1.00  0.00     0.002 A 
HETATM   33  C   UNL     1      39.696 -11.953   5.035  1.00  0.00     0.029 A 
ENDBRANCH  25  28
ENDBRANCH  10  24
TORSDOF 6
ENDMDL
MODEL 6
REMARK VINA RESULT:      -7.6      1.277      1.579
REMARK  6 active torsions:
REMARK  status: ('A' for Active; 'I' for Inactive)
REMARK    1  A    between atoms: C_2  and  O_3 
REMARK    2  A    between atoms: O_3  and  C_4 
REMARK    3  A    between atoms: C_5  and  O_6 
REMARK    4  A    between atoms: C_10  and  C_11 
REMARK    5  A    between atoms: C_20  and  C_21 
REMARK       I    between atoms: C_21  and  N_22 
REMARK    6  A    between atoms: N_22  and  C_23 
ROOT
HETATM    1  C   UNL     1      41.459 -13.153   4.194  1.00  0.00     0.202 A 
HETATM    2  N   UNL     1      40.487 -12.352   4.948  1.00  0.00    -0.084 N 
HETATM    3  C   UNL     1      39.798 -12.808   6.035  1.00  0.00     0.725 A 
HETATM    4  N   UNL     1      39.064 -11.842   6.524  1.00  0.00    -0.054 NA
HETATM    5  C   UNL     1      39.386 -10.780   5.719  1.00  0.00     0.275 A 
HETATM    6  N   UNL     1      40.288 -11.029   4.762  1.00  0.00    -0.149 NA
HETATM    7  N   UNL     1      39.982 -14.076   6.445  1.00  0.00    -0.192 N 
HETATM    8  C   UNL     1      40.888 -14.951   5.855  1.00  0.00     0.037 A 
HETATM    9  C   UNL     1      40.992 -16.310   6.504  1.00  0.00     0.070 C 
HETATM   10  C   UNL     1      41.621 -14.551   4.784  1.00  0.00     0.062 A 
HETATM   11  H   UNL     1      39.472 -14.401   7.263  1.00  0.00     0.184 HD
ENDROOT
BRANCH   1  12
HETATM   12  C   UNL     1      41.113 -13.131   2.706  1.00  0.00    -0.024 A 
HETATM   13  C   UNL     1      39.821 -13.509   2.296  1.00  0.00     0.031 A 
HETATM   14  C   UNL     1      39.471 -13.501   0.944  1.00  0.00     0.047 A 
HETATM   15  C   UNL     1      40.411 -13.113  -0.008  1.00  0.00     0.116 A 
HETATM   16 BR   UNL     1      37.715 -14.019   0.458  1.00  0.00    -0.048 Br
HETATM   17  C   UNL     1      41.705 -12.739   0.374  1.00  0.00     0.103 A 
HETATM   18  C   UNL     1      42.058 -12.765   1.727  1.00  0.00     0.049 A 
BRANCH  15  19
HETATM   19  O   UNL     1      40.083 -13.090  -1.341  1.00  0.00    -0.357 OA
HETATM   20  H   UNL     1      40.918 -13.275  -1.815  1.00  0.00     0.218 HD
ENDBRANCH  15  19
BRANCH  17  21
HETATM   21  O   UNL     1      42.529 -12.377  -0.662  1.00  0.00    -0.349 OA
BRANCH  21  22
HETATM   22  C   UNL     1      42.842 -10.989  -0.785  1.00  0.00     0.171 C 
HETATM   23  C   UNL     1      42.545 -10.571  -2.214  1.00  0.00     0.034 C 
ENDBRANCH  21  22
ENDBRANCH  17  21
ENDBRANCH   1  12
BRANCH  10  24
HETATM   24  C   UNL     1      42.518 -15.519   4.079  1.00  0.00     0.256 C 
HETATM   25  N   UNL     1      42.081 -16.826   4.106  1.00  0.00    -0.323 N 
HETATM   26  H   UNL     1      41.233 -17.048   4.605  1.00  0.00     0.169 HD
HETATM   27  O   UNL     1      43.565 -15.112   3.587  1.00  0.00    -0.267 OA
BRANCH  25  28
HETATM   28  C   UNL     1      42.721 -17.944   3.525  1.00  0.00     0.035 A 
HETATM   29  C   UNL     1      43.644 -18.752   4.192  1.00  0.00     0.029 A 
HETATM   30  C   UNL     1      44.246 -19.831   3.538  1.00  0.00     0.002 A 
HETATM   31  C   UNL     1      43.924 -20.118   2.214  1.00  0.00     0.000 A 
HETATM   32  C   UNL     1      43.004 -19.321   1.539  1.00  0.00     0.002 A 
HETATM   33  C   UNL     1      42.411 -18.235   2.189  1.00  0.00     0.029 A 
ENDBRANCH  25  28
ENDBRANCH  10  24
TORSDOF 6
ENDMDL
MODEL 7
REMARK VINA RESULT:      -7.6      1.841      2.720
REMARK  6 active torsions:
REMARK  status: ('A' for Active; 'I' for Inactive)
REMARK    1  A    between atoms: C_2  and  O_3 
REMARK    2  A    between atoms: O_3  and  C_4 
REMARK    3  A    between atoms: C_5  and  O_6 
REMARK    4  A    between atoms: C_10  and  C_11 
REMARK    5  A    between atoms: C_20  and  C_21 
REMARK       I    between atoms: C_21  and  N_22 
REMARK    6  A    between atoms: N_22  and  C_23 
ROOT
HETATM    1  C   UNL     1      41.484 -13.103   4.109  1.00  0.00     0.202 A 
HETATM    2  N   UNL     1      40.516 -12.297   4.862  1.00  0.00    -0.084 N 
HETATM    3  C   UNL     1      39.835 -12.743   5.959  1.00  0.00     0.725 A 
HETATM    4  N   UNL     1      39.103 -11.774   6.443  1.00  0.00    -0.054 NA
HETATM    5  C   UNL     1      39.417 -10.719   5.626  1.00  0.00     0.275 A 
HETATM    6  N   UNL     1      40.313 -10.976   4.664  1.00  0.00    -0.149 NA
HETATM    7  N   UNL     1      40.025 -14.006   6.379  1.00  0.00    -0.192 N 
HETATM    8  C   UNL     1      40.928 -14.886   5.792  1.00  0.00     0.037 A 
HETATM    9  C   UNL     1      41.039 -16.238   6.453  1.00  0.00     0.070 C 
HETATM   10  C   UNL     1      41.653 -14.495   4.711  1.00  0.00     0.062 A 
HETATM   11  H   UNL     1      39.522 -14.325   7.204  1.00  0.00     0.184 HD
ENDROOT
BRANCH   1  12
HETATM   12  C   UNL     1      41.127 -13.096   2.624  1.00  0.00    -0.024 A 
HETATM   13  C   UNL     1      41.963 -12.414   1.719  1.00  0.00     0.031 A 
HETATM   14  C   UNL     1      41.666 -12.388   0.355  1.00  0.00     0.047 A 
HETATM   15  C   UNL     1      40.532 -13.045  -0.115  1.00  0.00     0.116 A 
HETATM   16 BR   UNL     1      42.832 -11.454  -0.809  1.00  0.00    -0.048 Br
HETATM   17  C   UNL     1      39.681 -13.725   0.765  1.00  0.00     0.103 A 
HETATM   18  C   UNL     1      39.971 -13.735   2.132  1.00  0.00     0.049 A 
BRANCH  15  19
HETATM   19  O   UNL     1      40.228 -13.038  -1.454  1.00  0.00    -0.357 OA
HETATM   20  H   UNL     1      40.640 -12.225  -1.808  1.00  0.00     0.218 HD
ENDBRANCH  15  19
BRANCH  17  21
HETATM   21  O   UNL     1      38.603 -14.330   0.170  1.00  0.00    -0.349 OA
BRANCH  21  22
HETATM   22  C   UNL     1      37.320 -14.082   0.748  1.00  0.00     0.171 C 
HETATM   23  C   UNL     1      36.983 -12.620   0.521  1.00  0.00     0.034 C 
ENDBRANCH  21  22
ENDBRANCH  17  21
ENDBRANCH   1  12
BRANCH  10  24
HETATM   24  C   UNL     1      42.547 -15.468   4.009  1.00  0.00     0.256 C 
HETATM   25  N   UNL     1      42.115 -16.777   4.057  1.00  0.00    -0.323 N 
HETATM   26  H   UNL     1      41.274 -16.995   4.568  1.00  0.00     0.169 HD
HETATM   27  O   UNL     1      43.587 -15.063   3.502  1.00  0.00    -0.267 OA
BRANCH  25  28
HETATM   28  C   UNL     1      42.754 -17.899   3.484  1.00  0.00     0.035 A 
HETATM   29  C   UNL     1      43.677 -18.703   4.157  1.00  0.00     0.029 A 
HETATM   30  C   UNL     1      44.278 -19.788   3.509  1.00  0.00     0.002 A 
HETATM   31  C   UNL     1      43.954 -20.084   2.188  1.00  0.00     0.000 A 
HETATM   32  C   UNL     1      43.035 -19.291   1.508  1.00  0.00     0.002 A 
HETATM   33  C   UNL     1      42.444 -18.199   2.150  1.00  0.00     0.029 A 
ENDBRANCH  25  28
ENDBRANCH  10  24
TORSDOF 6
ENDMDL
MODEL 8
REMARK VINA RESULT:      -7.6      2.710      6.637
REMARK  6 active torsions:
REMARK  status: ('A' for Active; 'I' for Inactive)
REMARK    1  A    between atoms: C_2  and  O_3 
REMARK    2  A    between atoms: O_3  and  C_4 
REMARK    3  A    between atoms: C_5  and  O_6 
REMARK    4  A    between atoms: C_10  and  C_11 
REMARK    5  A    between atoms: C_20  and  C_21 
REMARK       I    between atoms: C_21  and  N_22 
REMARK    6  A    between atoms: N_22  and  C_23 
ROOT
HETATM    1  C   UNL     1      42.345 -16.256   5.836  1.00  0.00     0.202 A 
HETATM    2  N   UNL     1      43.080 -17.407   6.373  1.00  0.00    -0.084 N 
HETATM    3  C   UNL     1      44.293 -17.320   6.993  1.00  0.00     0.725 A 
HETATM    4  N   UNL     1      44.652 -18.504   7.417  1.00  0.00    -0.054 NA
HETATM    5  C   UNL     1      43.581 -19.287   7.075  1.00  0.00     0.275 A 
HETATM    6  N   UNL     1      42.569 -18.654   6.468  1.00  0.00    -0.149 NA
HETATM    7  N   UNL     1      44.887 -16.119   7.107  1.00  0.00    -0.192 N 
HETATM    8  C   UNL     1      44.309 -14.931   6.675  1.00  0.00     0.037 A 
HETATM    9  C   UNL     1      45.110 -13.681   6.953  1.00  0.00     0.070 C 
HETATM   10  C   UNL     1      43.092 -14.946   6.071  1.00  0.00     0.062 A 
HETATM   11  H   UNL     1      45.786 -16.064   7.581  1.00  0.00     0.184 HD
ENDROOT
BRANCH   1  12
HETATM   12  C   UNL     1      41.963 -16.512   4.378  1.00  0.00    -0.024 A 
HETATM   13  C   UNL     1      40.869 -15.823   3.823  1.00  0.00     0.031 A 
HETATM   14  C   UNL     1      40.494 -16.033   2.495  1.00  0.00     0.047 A 
HETATM   15  C   UNL     1      41.210 -16.934   1.712  1.00  0.00     0.116 A 
HETATM   16 BR   UNL     1      39.013 -15.072   1.808  1.00  0.00    -0.048 Br
HETATM   17  C   UNL     1      42.298 -17.638   2.243  1.00  0.00     0.103 A 
HETATM   18  C   UNL     1      42.661 -17.438   3.577  1.00  0.00     0.049 A 
BRANCH  15  19
HETATM   19  O   UNL     1      40.861 -17.148   0.401  1.00  0.00    -0.357 OA
HETATM   20  H   UNL     1      40.816 -18.120   0.301  1.00  0.00     0.218 HD
ENDBRANCH  15  19
BRANCH  17  21
HETATM   21  O   UNL     1      42.916 -18.491   1.363  1.00  0.00    -0.349 OA
BRANCH  21  22
HETATM   22  C   UNL     1      43.984 -19.289   1.877  1.00  0.00     0.171 C 
HETATM   23  C   UNL     1      43.534 -20.738   1.855  1.00  0.00     0.034 C 
ENDBRANCH  21  22
ENDBRANCH  17  21
ENDBRANCH   1  12
BRANCH  10  24
HETATM   24  C   UNL     1      42.512 -13.686   5.509  1.00  0.00     0.256 C 
HETATM   25  N   UNL     1      41.382 -13.239   6.159  1.00  0.00    -0.323 N 
HETATM   26  H   UNL     1      41.011 -13.781   6.924  1.00  0.00     0.169 HD
HETATM   27  O   UNL     1      43.029 -13.183   4.517  1.00  0.00    -0.267 OA
BRANCH  25  28
HETATM   28  C   UNL     1      40.630 -12.083   5.849  1.00  0.00     0.035 A 
HETATM   29  C   UNL     1      40.830 -10.836   6.446  1.00  0.00     0.029 A 
HETATM   30  C   UNL     1      40.029  -9.745   6.093  1.00  0.00     0.002 A 
HETATM   31  C   UNL     1      39.029  -9.888   5.135  1.00  0.00     0.000 A 
HETATM   32  C   UNL     1      38.823 -11.126   4.533  1.00  0.00     0.002 A 
HETATM   33  C   UNL     1      39.614 -12.219   4.894  1.00  0.00     0.029 A 
ENDBRANCH  25  28
ENDBRANCH  10  24
TORSDOF 6
ENDMDL
MODEL 9
REMARK VINA RESULT:      -7.1      3.617      8.039
REMARK  6 active torsions:
REMARK  status: ('A' for Active; 'I' for Inactive)
REMARK    1  A    between atoms: C_2  and  O_3 
REMARK    2  A    between atoms: O_3  and  C_4 
REMARK    3  A    between atoms: C_5  and  O_6 
REMARK    4  A    between atoms: C_10  and  C_11 
REMARK    5  A    between atoms: C_20  and  C_21 
REMARK       I    between atoms: C_21  and  N_22 
REMARK    6  A    between atoms: N_22  and  C_23 
ROOT
HETATM    1  C   UNL     1      42.422 -15.175   3.142  1.00  0.00     0.202 A 
HETATM    2  N   UNL     1      42.844 -16.225   2.206  1.00  0.00    -0.084 N 
HETATM    3  C   UNL     1      42.015 -16.821   1.300  1.00  0.00     0.725 A 
HETATM    4  N   UNL     1      42.700 -17.663   0.570  1.00  0.00    -0.054 NA
HETATM    5  C   UNL     1      43.978 -17.502   1.039  1.00  0.00     0.275 A 
HETATM    6  N   UNL     1      44.128 -16.599   2.016  1.00  0.00    -0.149 NA
HETATM    7  N   UNL     1      40.719 -16.463   1.260  1.00  0.00    -0.192 N 
HETATM    8  C   UNL     1      40.172 -15.466   2.060  1.00  0.00     0.037 A 
HETATM    9  C   UNL     1      38.711 -15.170   1.817  1.00  0.00     0.070 C 
HETATM   10  C   UNL     1      40.949 -14.818   2.966  1.00  0.00     0.062 A 
HETATM   11  H   UNL     1      40.113 -16.906   0.574  1.00  0.00     0.184 HD
ENDROOT
BRANCH   1  12
HETATM   12  C   UNL     1      42.814 -15.557   4.568  1.00  0.00    -0.024 A 
HETATM   13  C   UNL     1      43.418 -14.593   5.397  1.00  0.00     0.031 A 
HETATM   14  C   UNL     1      43.788 -14.909   6.705  1.00  0.00     0.047 A 
HETATM   15  C   UNL     1      43.556 -16.192   7.196  1.00  0.00     0.116 A 
HETATM   16 BR   UNL     1      44.594 -13.565   7.769  1.00  0.00    -0.048 Br
HETATM   17  C   UNL     1      42.963 -17.171   6.389  1.00  0.00     0.103 A 
HETATM   18  C   UNL     1      42.609 -16.857   5.074  1.00  0.00     0.049 A 
BRANCH  15  19
HETATM   19  O   UNL     1      43.906 -16.519   8.482  1.00  0.00    -0.357 OA
HETATM   20  H   UNL     1      44.856 -16.301   8.556  1.00  0.00     0.218 HD
ENDBRANCH  15  19
BRANCH  17  21
HETATM   21  O   UNL     1      42.791 -18.390   6.996  1.00  0.00    -0.349 OA
BRANCH  21  22
HETATM   22  C   UNL     1      43.642 -19.453   6.567  1.00  0.00     0.171 C 
HETATM   23  C   UNL     1      43.610 -20.533   7.634  1.00  0.00     0.034 C 
ENDBRANCH  21  22
ENDBRANCH  17  21
ENDBRANCH   1  12
BRANCH  10  24
HETATM   24  C   UNL     1      40.344 -13.819   3.903  1.00  0.00     0.256 C 
HETATM   25  N   UNL     1      40.561 -12.503   3.552  1.00  0.00    -0.323 N 
HETATM   26  H   UNL     1      41.117 -12.301   2.736  1.00  0.00     0.169 HD
HETATM   27  O   UNL     1      39.762 -14.219   4.905  1.00  0.00    -0.267 OA
BRANCH  25  28
HETATM   28  C   UNL     1      40.108 -11.359   4.246  1.00  0.00     0.035 A 
HETATM   29  C   UNL     1      40.774 -10.788   5.332  1.00  0.00     0.029 A 
HETATM   30  C   UNL     1      40.248  -9.662   5.975  1.00  0.00     0.002 A 
HETATM   31  C   UNL     1      39.057  -9.092   5.531  1.00  0.00     0.000 A 
HETATM   32  C   UNL     1      38.386  -9.652   4.448  1.00  0.00     0.002 A 
HETATM   33  C   UNL     1      38.905 -10.784   3.813  1.00  0.00     0.029 A 
ENDBRANCH  25  28
ENDBRANCH  10  24
TORSDOF 6
ENDMDL
MODEL 10
REMARK VINA RESULT:      -7.1      2.872      5.778
REMARK  6 active torsions:
REMARK  status: ('A' for Active; 'I' for Inactive)
REMARK    1  A    between atoms: C_2  and  O_3 
REMARK    2  A    between atoms: O_3  and  C_4 
REMARK    3  A    between atoms: C_5  and  O_6 
REMARK    4  A    between atoms: C_10  and  C_11 
REMARK    5  A    between atoms: C_20  and  C_21 
REMARK       I    between atoms: C_21  and  N_22 
REMARK    6  A    between atoms: N_22  and  C_23 
ROOT
HETATM    1  C   UNL     1      42.450 -14.258   3.747  1.00  0.00     0.202 A 
HETATM    2  N   UNL     1      43.204 -14.447   4.992  1.00  0.00    -0.084 N 
HETATM    3  C   UNL     1      43.545 -15.667   5.503  1.00  0.00     0.725 A 
HETATM    4  N   UNL     1      44.270 -15.502   6.580  1.00  0.00    -0.054 NA
HETATM    5  C   UNL     1      44.393 -14.139   6.656  1.00  0.00     0.275 A 
HETATM    6  N   UNL     1      43.793 -13.446   5.681  1.00  0.00    -0.149 NA
HETATM    7  N   UNL     1      43.152 -16.781   4.861  1.00  0.00    -0.192 N 
HETATM    8  C   UNL     1      42.457 -16.770   3.657  1.00  0.00     0.037 A 
HETATM    9  C   UNL     1      42.165 -18.128   3.065  1.00  0.00     0.070 C 
HETATM   10  C   UNL     1      42.107 -15.589   3.084  1.00  0.00     0.062 A 
HETATM   11  H   UNL     1      43.422 -17.684   5.245  1.00  0.00     0.184 HD
ENDROOT
BRANCH   1  12
HETATM   12  C   UNL     1      41.247 -13.350   3.998  1.00  0.00    -0.024 A 
HETATM   13  C   UNL     1      40.829 -12.468   2.984  1.00  0.00     0.031 A 
HETATM   14  C   UNL     1      39.734 -11.624   3.179  1.00  0.00     0.047 A 
HETATM   15  C   UNL     1      39.048 -11.656   4.391  1.00  0.00     0.116 A 
HETATM   16 BR   UNL     1      39.220 -10.463   1.774  1.00  0.00    -0.048 Br
HETATM   17  C   UNL     1      39.449 -12.520   5.419  1.00  0.00     0.103 A 
HETATM   18  C   UNL     1      40.556 -13.351   5.226  1.00  0.00     0.049 A 
BRANCH  15  19
HETATM   19  O   UNL     1      37.964 -10.841   4.599  1.00  0.00    -0.357 OA
HETATM   20  H   UNL     1      38.034 -10.140   3.922  1.00  0.00     0.218 HD
ENDBRANCH  15  19
BRANCH  17  21
HETATM   21  O   UNL     1      38.685 -12.452   6.557  1.00  0.00    -0.349 OA
BRANCH  21  22
HETATM   22  C   UNL     1      39.364 -12.136   7.774  1.00  0.00     0.171 C 
HETATM   23  C   UNL     1      39.471 -10.625   7.866  1.00  0.00     0.034 C 
ENDBRANCH  21  22
ENDBRANCH  17  21
ENDBRANCH   1  12
BRANCH  10  24
HETATM   24  C   UNL     1      41.267 -15.570   1.845  1.00  0.00     0.256 C 
HETATM   25  N   UNL     1      41.883 -15.009   0.747  1.00  0.00    -0.323 N 
HETATM   26  H   UNL     1      42.813 -14.632   0.847  1.00  0.00     0.169 HD
HETATM   27  O   UNL     1      40.117 -15.991   1.899  1.00  0.00    -0.267 OA
BRANCH  25  28
HETATM   28  C   UNL     1      41.333 -14.860  -0.546  1.00  0.00     0.035 A 
HETATM   29  C   UNL     1      41.206 -15.903  -1.467  1.00  0.00     0.029 A 
HETATM   30  C   UNL     1      40.665 -15.667  -2.735  1.00  0.00     0.002 A 
HETATM   31  C   UNL     1      40.238 -14.390  -3.090  1.00  0.00     0.000 A 
HETATM   32  C   UNL     1      40.358 -13.344  -2.180  1.00  0.00     0.002 A 
HETATM   33  C   UNL     1      40.910 -13.576  -0.917  1.00  0.00     0.029 A 
ENDBRANCH  25  28
ENDBRANCH  10  24
TORSDOF 6
ENDMDL
