MODEL 1
REMARK VINA RESULT:      -7.8      0.000      0.000
REMARK  5 active torsions:
REMARK  status: ('A' for Active; 'I' for Inactive)
REMARK    1  A    between atoms: C_7  and  C_8 
REMARK    2  A    between atoms: C_11  and  N_12 
REMARK       I    between atoms: N_12  and  C_13 
REMARK    3  A    between atoms: C_13  and  C_14 
REMARK    4  A    between atoms: C_16  and  O_17 
REMARK    5  A    between atoms: C_20  and  O_21 
ROOT
HETATM    1  C   UNL     1      39.553 -14.323  -0.008  1.00  0.00     0.017 A 
HETATM    2  C   UNL     1      40.761 -14.854  -0.477  1.00  0.00     0.018 A 
HETATM    3  C   UNL     1      41.521 -15.725   0.315  1.00  0.00     0.030 A 
HETATM    4  C   UNL     1      41.088 -16.084   1.591  1.00  0.00     0.035 A 
HETATM    5  C   UNL     1      39.906 -15.520   2.083  1.00  0.00     0.030 A 
HETATM    6  C   UNL     1      39.146 -14.652   1.291  1.00  0.00     0.018 A 
ENDROOT
BRANCH   4   7
HETATM    7  N   UNL     1      41.745 -17.021   2.414  1.00  0.00    -0.323 N 
HETATM    8  C   UNL     1      42.701 -16.757   3.378  1.00  0.00     0.256 C 
HETATM    9  O   UNL     1      43.097 -15.663   3.757  1.00  0.00    -0.267 OA
HETATM   10  H   UNL     1      41.597 -17.993   2.172  1.00  0.00     0.169 HD
BRANCH   8  11
HETATM   11  C   UNL     1      43.342 -17.972   3.943  1.00  0.00     0.037 A 
HETATM   12  C   UNL     1      43.943 -18.869   3.055  1.00  0.00     0.054 A 
HETATM   13  C   UNL     1      44.499 -20.056   3.529  1.00  0.00     0.071 A 
HETATM   14  C   UNL     1      44.474 -20.320   4.899  1.00  0.00     0.073 A 
HETATM   15  C   UNL     1      43.899 -19.411   5.797  1.00  0.00     0.071 A 
HETATM   16  C   UNL     1      43.328 -18.232   5.320  1.00  0.00     0.054 A 
BRANCH  13  17
HETATM   17  O   UNL     1      45.026 -20.866   2.561  1.00  0.00    -0.356 OA
HETATM   18  C   UNL     1      44.185 -21.894   2.054  1.00  0.00     0.210 C 
ENDBRANCH  13  17
BRANCH  15  19
HETATM   19  O   UNL     1      43.954 -19.801   7.108  1.00  0.00    -0.356 OA
HETATM   20  C   UNL     1      43.538 -21.128   7.411  1.00  0.00     0.210 C 
ENDBRANCH  15  19
ENDBRANCH   8  11
ENDBRANCH   4   7
BRANCH   1  21
HETATM   21  C   UNL     1      38.693 -13.485  -0.842  1.00  0.00     0.180 A 
HETATM   22  N   UNL     1      38.037 -12.386  -0.510  1.00  0.00    -0.221 NA
HETATM   23  C   UNL     1      37.326 -12.078  -1.641  1.00  0.00     0.093 A 
HETATM   24  C   UNL     1      37.599 -13.000  -2.636  1.00  0.00     0.107 A 
HETATM   25  C   UNL     1      36.420 -11.046  -1.908  1.00  0.00     0.035 A 
HETATM   26  C   UNL     1      37.041 -12.985  -3.908  1.00  0.00     0.046 A 
HETATM   27  O   UNL     1      38.483 -13.908  -2.132  1.00  0.00    -0.289 OA
HETATM   28  C   UNL     1      36.138 -11.942  -4.175  1.00  0.00    -0.059 A 
HETATM   29  C   UNL     1      35.450 -11.871  -5.510  1.00  0.00     0.048 C 
HETATM   30  C   UNL     1      35.827 -10.996  -3.180  1.00  0.00     0.009 A 
ENDBRANCH   1  21
TORSDOF 5
ENDMDL
MODEL 2
REMARK VINA RESULT:      -7.8      6.074     10.855
REMARK  5 active torsions:
REMARK  status: ('A' for Active; 'I' for Inactive)
REMARK    1  A    between atoms: C_7  and  C_8 
REMARK    2  A    between atoms: C_11  and  N_12 
REMARK       I    between atoms: N_12  and  C_13 
REMARK    3  A    between atoms: C_13  and  C_14 
REMARK    4  A    between atoms: C_16  and  O_17 
REMARK    5  A    between atoms: C_20  and  O_21 
ROOT
HETATM    1  C   UNL     1      42.309 -15.656   4.773  1.00  0.00     0.017 A 
HETATM    2  C   UNL     1      42.944 -14.479   4.358  1.00  0.00     0.018 A 
HETATM    3  C   UNL     1      42.441 -13.222   4.718  1.00  0.00     0.030 A 
HETATM    4  C   UNL     1      41.293 -13.117   5.503  1.00  0.00     0.035 A 
HETATM    5  C   UNL     1      40.627 -14.288   5.882  1.00  0.00     0.030 A 
HETATM    6  C   UNL     1      41.132 -15.543   5.524  1.00  0.00     0.018 A 
ENDROOT
BRANCH   4   7
HETATM    7  N   UNL     1      40.773 -11.897   5.984  1.00  0.00    -0.323 N 
HETATM    8  C   UNL     1      41.290 -11.113   6.999  1.00  0.00     0.256 C 
HETATM    9  O   UNL     1      42.334 -11.282   7.613  1.00  0.00    -0.267 OA
HETATM   10  H   UNL     1      39.853 -11.651   5.641  1.00  0.00     0.169 HD
BRANCH   8  11
HETATM   11  C   UNL     1      40.410  -9.988   7.403  1.00  0.00     0.037 A 
HETATM   12  C   UNL     1      40.628  -9.400   8.652  1.00  0.00     0.054 A 
HETATM   13  C   UNL     1      39.787  -8.385   9.105  1.00  0.00     0.071 A 
HETATM   14  C   UNL     1      38.746  -7.946   8.285  1.00  0.00     0.073 A 
HETATM   15  C   UNL     1      38.540  -8.512   7.019  1.00  0.00     0.071 A 
HETATM   16  C   UNL     1      39.372  -9.538   6.575  1.00  0.00     0.054 A 
BRANCH  13  17
HETATM   17  O   UNL     1      40.081  -7.915  10.355  1.00  0.00    -0.356 OA
HETATM   18  C   UNL     1      41.396  -8.152  10.839  1.00  0.00     0.210 C 
ENDBRANCH  13  17
BRANCH  15  19
HETATM   19  O   UNL     1      37.488  -7.977   6.326  1.00  0.00    -0.356 OA
HETATM   20  C   UNL     1      37.501  -8.119   4.910  1.00  0.00     0.210 C 
ENDBRANCH  15  19
ENDBRANCH   8  11
ENDBRANCH   4   7
BRANCH   1  21
HETATM   21  C   UNL     1      42.859 -16.980   4.491  1.00  0.00     0.180 A 
HETATM   22  N   UNL     1      43.738 -17.677   5.191  1.00  0.00    -0.221 NA
HETATM   23  C   UNL     1      43.958 -18.790   4.420  1.00  0.00     0.093 A 
HETATM   24  C   UNL     1      43.179 -18.735   3.278  1.00  0.00     0.107 A 
HETATM   25  C   UNL     1      44.809 -19.885   4.605  1.00  0.00     0.035 A 
HETATM   26  C   UNL     1      43.164 -19.701   2.279  1.00  0.00     0.046 A 
HETATM   27  O   UNL     1      42.463 -17.575   3.317  1.00  0.00    -0.289 OA
HETATM   28  C   UNL     1      44.014 -20.804   2.473  1.00  0.00    -0.059 A 
HETATM   29  C   UNL     1      44.099 -21.876   1.423  1.00  0.00     0.048 C 
HETATM   30  C   UNL     1      44.831 -20.882   3.616  1.00  0.00     0.009 A 
ENDBRANCH   1  21
TORSDOF 5
ENDMDL
MODEL 3
REMARK VINA RESULT:      -7.8      6.720      9.967
REMARK  5 active torsions:
REMARK  status: ('A' for Active; 'I' for Inactive)
REMARK    1  A    between atoms: C_7  and  C_8 
REMARK    2  A    between atoms: C_11  and  N_12 
REMARK       I    between atoms: N_12  and  C_13 
REMARK    3  A    between atoms: C_13  and  C_14 
REMARK    4  A    between atoms: C_16  and  O_17 
REMARK    5  A    between atoms: C_20  and  O_21 
ROOT
HETATM    1  C   UNL     1      43.430 -12.345   7.987  1.00  0.00     0.017 A 
HETATM    2  C   UNL     1      42.492 -12.265   6.950  1.00  0.00     0.018 A 
HETATM    3  C   UNL     1      42.501 -13.188   5.896  1.00  0.00     0.030 A 
HETATM    4  C   UNL     1      43.448 -14.211   5.857  1.00  0.00     0.035 A 
HETATM    5  C   UNL     1      44.418 -14.268   6.865  1.00  0.00     0.030 A 
HETATM    6  C   UNL     1      44.406 -13.347   7.919  1.00  0.00     0.018 A 
ENDROOT
BRANCH   4   7
HETATM    7  N   UNL     1      43.473 -15.230   4.884  1.00  0.00    -0.323 N 
HETATM    8  C   UNL     1      43.075 -16.545   5.045  1.00  0.00     0.256 C 
HETATM    9  O   UNL     1      42.553 -17.052   6.028  1.00  0.00    -0.267 OA
HETATM   10  H   UNL     1      43.961 -15.003   4.027  1.00  0.00     0.169 HD
BRANCH   8  11
HETATM   11  C   UNL     1      43.401 -17.421   3.891  1.00  0.00     0.037 A 
HETATM   12  C   UNL     1      43.111 -16.951   2.607  1.00  0.00     0.054 A 
HETATM   13  C   UNL     1      43.337 -17.762   1.497  1.00  0.00     0.071 A 
HETATM   14  C   UNL     1      43.881 -19.034   1.681  1.00  0.00     0.073 A 
HETATM   15  C   UNL     1      44.201 -19.500   2.964  1.00  0.00     0.071 A 
HETATM   16  C   UNL     1      43.959 -18.694   4.075  1.00  0.00     0.054 A 
BRANCH  13  17
HETATM   17  O   UNL     1      42.981 -17.203   0.300  1.00  0.00    -0.356 OA
HETATM   18  C   UNL     1      41.753 -16.488   0.262  1.00  0.00     0.210 C 
ENDBRANCH  13  17
BRANCH  15  19
HETATM   19  O   UNL     1      44.733 -20.761   2.989  1.00  0.00    -0.356 OA
HETATM   20  C   UNL     1      44.220 -21.704   2.055  1.00  0.00     0.210 C 
ENDBRANCH  15  19
ENDBRANCH   8  11
ENDBRANCH   4   7
BRANCH   1  21
HETATM   21  C   UNL     1      43.391 -11.455   9.145  1.00  0.00     0.180 A 
HETATM   22  N   UNL     1      44.133 -11.488  10.238  1.00  0.00    -0.221 NA
HETATM   23  C   UNL     1      43.608 -10.490  11.018  1.00  0.00     0.093 A 
HETATM   24  C   UNL     1      42.568  -9.867  10.351  1.00  0.00     0.107 A 
HETATM   25  C   UNL     1      43.941 -10.054  12.306  1.00  0.00     0.035 A 
HETATM   26  C   UNL     1      41.812  -8.818  10.859  1.00  0.00     0.046 A 
HETATM   27  O   UNL     1      42.423 -10.479   9.141  1.00  0.00    -0.289 OA
HETATM   28  C   UNL     1      42.156  -8.377  12.149  1.00  0.00    -0.059 A 
HETATM   29  C   UNL     1      41.364  -7.276  12.799  1.00  0.00     0.048 C 
HETATM   30  C   UNL     1      43.198  -8.999  12.861  1.00  0.00     0.009 A 
ENDBRANCH   1  21
TORSDOF 5
ENDMDL
MODEL 4
REMARK VINA RESULT:      -7.8      0.495      2.270
REMARK  5 active torsions:
REMARK  status: ('A' for Active; 'I' for Inactive)
REMARK    1  A    between atoms: C_7  and  C_8 
REMARK    2  A    between atoms: C_11  and  N_12 
REMARK       I    between atoms: N_12  and  C_13 
REMARK    3  A    between atoms: C_13  and  C_14 
REMARK    4  A    between atoms: C_16  and  O_17 
REMARK    5  A    between atoms: C_20  and  O_21 
ROOT
HETATM    1  C   UNL     1      39.521 -14.369   0.081  1.00  0.00     0.017 A 
HETATM    2  C   UNL     1      40.727 -14.888  -0.405  1.00  0.00     0.018 A 
HETATM    3  C   UNL     1      41.476 -15.800   0.350  1.00  0.00     0.030 A 
HETATM    4  C   UNL     1      41.033 -16.212   1.607  1.00  0.00     0.035 A 
HETATM    5  C   UNL     1      39.853 -15.661   2.118  1.00  0.00     0.030 A 
HETATM    6  C   UNL     1      39.104 -14.752   1.362  1.00  0.00     0.018 A 
ENDROOT
BRANCH   4   7
HETATM    7  N   UNL     1      41.678 -17.190   2.391  1.00  0.00    -0.323 N 
HETATM    8  C   UNL     1      42.544 -16.974   3.447  1.00  0.00     0.256 C 
HETATM    9  O   UNL     1      42.850 -15.903   3.954  1.00  0.00    -0.267 OA
HETATM   10  H   UNL     1      41.603 -18.141   2.050  1.00  0.00     0.169 HD
BRANCH   8  11
HETATM   11  C   UNL     1      43.208 -18.204   3.948  1.00  0.00     0.037 A 
HETATM   12  C   UNL     1      43.280 -18.394   5.331  1.00  0.00     0.054 A 
HETATM   13  C   UNL     1      43.950 -19.499   5.852  1.00  0.00     0.071 A 
HETATM   14  C   UNL     1      44.522 -20.424   4.977  1.00  0.00     0.073 A 
HETATM   15  C   UNL     1      44.429 -20.253   3.588  1.00  0.00     0.071 A 
HETATM   16  C   UNL     1      43.772 -19.139   3.069  1.00  0.00     0.054 A 
BRANCH  13  17
HETATM   17  O   UNL     1      43.981 -19.557   7.218  1.00  0.00    -0.356 OA
HETATM   18  C   UNL     1      43.968 -18.318   7.915  1.00  0.00     0.210 C 
ENDBRANCH  13  17
BRANCH  15  19
HETATM   19  O   UNL     1      45.030 -21.242   2.857  1.00  0.00    -0.356 OA
HETATM   20  C   UNL     1      44.236 -21.901   1.876  1.00  0.00     0.210 C 
ENDBRANCH  15  19
ENDBRANCH   8  11
ENDBRANCH   4   7
BRANCH   1  21
HETATM   21  C   UNL     1      38.672 -13.488  -0.719  1.00  0.00     0.180 A 
HETATM   22  N   UNL     1      37.993 -12.421  -0.333  1.00  0.00    -0.221 NA
HETATM   23  C   UNL     1      37.309 -12.046  -1.461  1.00  0.00     0.093 A 
HETATM   24  C   UNL     1      37.620 -12.897  -2.507  1.00  0.00     0.107 A 
HETATM   25  C   UNL     1      36.395 -11.010  -1.683  1.00  0.00     0.035 A 
HETATM   26  C   UNL     1      37.097 -12.804  -3.790  1.00  0.00     0.046 A 
HETATM   27  O   UNL     1      38.503 -13.826  -2.040  1.00  0.00    -0.289 OA
HETATM   28  C   UNL     1      36.186 -11.756  -4.012  1.00  0.00    -0.059 A 
HETATM   29  C   UNL     1      35.533 -11.604  -5.358  1.00  0.00     0.048 C 
HETATM   30  C   UNL     1      35.836 -10.883  -2.966  1.00  0.00     0.009 A 
ENDBRANCH   1  21
TORSDOF 5
ENDMDL
MODEL 5
REMARK VINA RESULT:      -7.7      6.017     10.685
REMARK  5 active torsions:
REMARK  status: ('A' for Active; 'I' for Inactive)
REMARK    1  A    between atoms: C_7  and  C_8 
REMARK    2  A    between atoms: C_11  and  N_12 
REMARK       I    between atoms: N_12  and  C_13 
REMARK    3  A    between atoms: C_13  and  C_14 
REMARK    4  A    between atoms: C_16  and  O_17 
REMARK    5  A    between atoms: C_20  and  O_21 
ROOT
HETATM    1  C   UNL     1      42.383 -15.671   4.769  1.00  0.00     0.017 A 
HETATM    2  C   UNL     1      43.049 -14.504   4.375  1.00  0.00     0.018 A 
HETATM    3  C   UNL     1      42.552 -13.239   4.718  1.00  0.00     0.030 A 
HETATM    4  C   UNL     1      41.379 -13.117   5.462  1.00  0.00     0.035 A 
HETATM    5  C   UNL     1      40.683 -14.278   5.818  1.00  0.00     0.030 A 
HETATM    6  C   UNL     1      41.183 -15.541   5.478  1.00  0.00     0.018 A 
ENDROOT
BRANCH   4   7
HETATM    7  N   UNL     1      40.859 -11.890   5.924  1.00  0.00    -0.323 N 
HETATM    8  C   UNL     1      41.353 -11.112   6.955  1.00  0.00     0.256 C 
HETATM    9  O   UNL     1      42.373 -11.294   7.605  1.00  0.00    -0.267 OA
HETATM   10  H   UNL     1      39.955 -11.631   5.549  1.00  0.00     0.169 HD
BRANCH   8  11
HETATM   11  C   UNL     1      40.475  -9.974   7.328  1.00  0.00     0.037 A 
HETATM   12  C   UNL     1      39.550  -9.522   6.383  1.00  0.00     0.054 A 
HETATM   13  C   UNL     1      38.750  -8.415   6.660  1.00  0.00     0.071 A 
HETATM   14  C   UNL     1      38.864  -7.785   7.900  1.00  0.00     0.073 A 
HETATM   15  C   UNL     1      39.770  -8.251   8.863  1.00  0.00     0.071 A 
HETATM   16  C   UNL     1      40.581  -9.348   8.578  1.00  0.00     0.054 A 
BRANCH  13  17
HETATM   17  O   UNL     1      37.910  -8.049   5.644  1.00  0.00    -0.356 OA
HETATM   18  C   UNL     1      37.795  -8.947   4.548  1.00  0.00     0.210 C 
ENDBRANCH  13  17
BRANCH  15  19
HETATM   19  O   UNL     1      39.767  -7.539  10.032  1.00  0.00    -0.356 OA
HETATM   20  C   UNL     1      40.897  -7.682  10.885  1.00  0.00     0.210 C 
ENDBRANCH  15  19
ENDBRANCH   8  11
ENDBRANCH   4   7
BRANCH   1  21
HETATM   21  C   UNL     1      42.924 -17.003   4.506  1.00  0.00     0.180 A 
HETATM   22  N   UNL     1      43.759 -17.717   5.242  1.00  0.00    -0.221 NA
HETATM   23  C   UNL     1      43.995 -18.831   4.478  1.00  0.00     0.093 A 
HETATM   24  C   UNL     1      43.268 -18.760   3.303  1.00  0.00     0.107 A 
HETATM   25  C   UNL     1      44.819 -19.940   4.697  1.00  0.00     0.035 A 
HETATM   26  C   UNL     1      43.282 -19.722   2.301  1.00  0.00     0.046 A 
HETATM   27  O   UNL     1      42.570 -17.588   3.314  1.00  0.00    -0.289 OA
HETATM   28  C   UNL     1      44.104 -20.840   2.528  1.00  0.00    -0.059 A 
HETATM   29  C   UNL     1      44.218 -21.910   1.479  1.00  0.00     0.048 C 
HETATM   30  C   UNL     1      44.868 -20.935   3.706  1.00  0.00     0.009 A 
ENDBRANCH   1  21
TORSDOF 5
ENDMDL
MODEL 6
REMARK VINA RESULT:      -7.6      1.774      2.334
REMARK  5 active torsions:
REMARK  status: ('A' for Active; 'I' for Inactive)
REMARK    1  A    between atoms: C_7  and  C_8 
REMARK    2  A    between atoms: C_11  and  N_12 
REMARK       I    between atoms: N_12  and  C_13 
REMARK    3  A    between atoms: C_13  and  C_14 
REMARK    4  A    between atoms: C_16  and  O_17 
REMARK    5  A    between atoms: C_20  and  O_21 
ROOT
HETATM    1  C   UNL     1      39.095 -13.588   0.746  1.00  0.00     0.017 A 
HETATM    2  C   UNL     1      40.427 -13.481   0.328  1.00  0.00     0.018 A 
HETATM    3  C   UNL     1      41.426 -14.290   0.886  1.00  0.00     0.030 A 
HETATM    4  C   UNL     1      41.113 -15.224   1.873  1.00  0.00     0.035 A 
HETATM    5  C   UNL     1      39.792 -15.303   2.329  1.00  0.00     0.030 A 
HETATM    6  C   UNL     1      38.794 -14.496   1.769  1.00  0.00     0.018 A 
ENDROOT
BRANCH   4   7
HETATM    7  N   UNL     1      42.037 -16.136   2.421  1.00  0.00    -0.323 N 
HETATM    8  C   UNL     1      42.168 -17.478   2.112  1.00  0.00     0.256 C 
HETATM    9  O   UNL     1      41.567 -18.107   1.252  1.00  0.00    -0.267 OA
HETATM   10  H   UNL     1      42.560 -15.799   3.220  1.00  0.00     0.169 HD
BRANCH   8  11
HETATM   11  C   UNL     1      43.105 -18.214   2.997  1.00  0.00     0.037 A 
HETATM   12  C   UNL     1      43.542 -19.476   2.584  1.00  0.00     0.054 A 
HETATM   13  C   UNL     1      44.370 -20.235   3.410  1.00  0.00     0.071 A 
HETATM   14  C   UNL     1      44.776 -19.709   4.636  1.00  0.00     0.073 A 
HETATM   15  C   UNL     1      44.364 -18.432   5.044  1.00  0.00     0.071 A 
HETATM   16  C   UNL     1      43.524 -17.681   4.224  1.00  0.00     0.054 A 
BRANCH  13  17
HETATM   17  O   UNL     1      44.701 -21.465   2.910  1.00  0.00    -0.356 OA
HETATM   18  C   UNL     1      44.068 -21.862   1.702  1.00  0.00     0.210 C 
ENDBRANCH  13  17
BRANCH  15  19
HETATM   19  O   UNL     1      44.847 -18.046   6.265  1.00  0.00    -0.356 OA
HETATM   20  C   UNL     1      44.310 -18.694   7.412  1.00  0.00     0.210 C 
ENDBRANCH  15  19
ENDBRANCH   8  11
ENDBRANCH   4   7
BRANCH   1  21
HETATM   21  C   UNL     1      38.017 -12.824   0.122  1.00  0.00     0.180 A 
HETATM   22  N   UNL     1      37.941 -12.362  -1.115  1.00  0.00    -0.221 NA
HETATM   23  C   UNL     1      36.770 -11.649  -1.124  1.00  0.00     0.093 A 
HETATM   24  C   UNL     1      36.162 -11.724   0.117  1.00  0.00     0.107 A 
HETATM   25  C   UNL     1      36.156 -10.898  -2.132  1.00  0.00     0.035 A 
HETATM   26  C   UNL     1      34.963 -11.108   0.454  1.00  0.00     0.046 A 
HETATM   27  O   UNL     1      36.956 -12.483   0.925  1.00  0.00    -0.289 OA
HETATM   28  C   UNL     1      34.344 -10.362  -0.565  1.00  0.00    -0.059 A 
HETATM   29  C   UNL     1      33.066  -9.624  -0.280  1.00  0.00     0.048 C 
HETATM   30  C   UNL     1      34.944 -10.253  -1.833  1.00  0.00     0.009 A 
ENDBRANCH   1  21
TORSDOF 5
ENDMDL
MODEL 7
REMARK VINA RESULT:      -7.5      6.327     10.651
REMARK  5 active torsions:
REMARK  status: ('A' for Active; 'I' for Inactive)
REMARK    1  A    between atoms: C_7  and  C_8 
REMARK    2  A    between atoms: C_11  and  N_12 
REMARK       I    between atoms: N_12  and  C_13 
REMARK    3  A    between atoms: C_13  and  C_14 
REMARK    4  A    between atoms: C_16  and  O_17 
REMARK    5  A    between atoms: C_20  and  O_21 
ROOT
HETATM    1  C   UNL     1      42.847 -15.816   4.445  1.00  0.00     0.017 A 
HETATM    2  C   UNL     1      43.498 -14.635   4.068  1.00  0.00     0.018 A 
HETATM    3  C   UNL     1      43.223 -13.421   4.713  1.00  0.00     0.030 A 
HETATM    4  C   UNL     1      42.292 -13.365   5.749  1.00  0.00     0.035 A 
HETATM    5  C   UNL     1      41.603 -14.532   6.099  1.00  0.00     0.030 A 
HETATM    6  C   UNL     1      41.880 -15.744   5.456  1.00  0.00     0.018 A 
ENDROOT
BRANCH   4   7
HETATM    7  N   UNL     1      42.022 -12.208   6.508  1.00  0.00    -0.323 N 
HETATM    8  C   UNL     1      42.743 -11.733   7.588  1.00  0.00     0.256 C 
HETATM    9  O   UNL     1      43.792 -12.175   8.038  1.00  0.00    -0.267 OA
HETATM   10  H   UNL     1      41.131 -11.764   6.324  1.00  0.00     0.169 HD
BRANCH   8  11
HETATM   11  C   UNL     1      42.098 -10.598   8.295  1.00  0.00     0.037 A 
HETATM   12  C   UNL     1      42.149 -10.580   9.692  1.00  0.00     0.054 A 
HETATM   13  C   UNL     1      41.502  -9.572  10.404  1.00  0.00     0.071 A 
HETATM   14  C   UNL     1      40.829  -8.569   9.705  1.00  0.00     0.073 A 
HETATM   15  C   UNL     1      40.799  -8.565   8.303  1.00  0.00     0.071 A 
HETATM   16  C   UNL     1      41.433  -9.583   7.593  1.00  0.00     0.054 A 
BRANCH  13  17
HETATM   17  O   UNL     1      41.595  -9.683  11.764  1.00  0.00    -0.356 OA
HETATM   18  C   UNL     1      41.648 -10.998  12.301  1.00  0.00     0.210 C 
ENDBRANCH  13  17
BRANCH  15  19
HETATM   19  O   UNL     1      40.109  -7.516   7.757  1.00  0.00    -0.356 OA
HETATM   20  C   UNL     1      38.688  -7.578   7.801  1.00  0.00     0.210 C 
ENDBRANCH  15  19
ENDBRANCH   8  11
ENDBRANCH   4   7
BRANCH   1  21
HETATM   21  C   UNL     1      43.177 -17.111   3.855  1.00  0.00     0.180 A 
HETATM   22  N   UNL     1      42.908 -17.558   2.640  1.00  0.00    -0.221 NA
HETATM   23  C   UNL     1      43.360 -18.853   2.663  1.00  0.00     0.093 A 
HETATM   24  C   UNL     1      43.911 -19.139   3.900  1.00  0.00     0.107 A 
HETATM   25  C   UNL     1      43.329 -19.857   1.689  1.00  0.00     0.035 A 
HETATM   26  C   UNL     1      44.456 -20.364   4.263  1.00  0.00     0.046 A 
HETATM   27  O   UNL     1      43.803 -18.021   4.673  1.00  0.00    -0.289 OA
HETATM   28  C   UNL     1      44.432 -21.367   3.278  1.00  0.00    -0.059 A 
HETATM   29  C   UNL     1      44.958 -22.740   3.596  1.00  0.00     0.048 C 
HETATM   30  C   UNL     1      43.864 -21.114   2.016  1.00  0.00     0.009 A 
ENDBRANCH   1  21
TORSDOF 5
ENDMDL
MODEL 8
REMARK VINA RESULT:      -7.4      2.226      3.126
REMARK  5 active torsions:
REMARK  status: ('A' for Active; 'I' for Inactive)
REMARK    1  A    between atoms: C_7  and  C_8 
REMARK    2  A    between atoms: C_11  and  N_12 
REMARK       I    between atoms: N_12  and  C_13 
REMARK    3  A    between atoms: C_13  and  C_14 
REMARK    4  A    between atoms: C_16  and  O_17 
REMARK    5  A    between atoms: C_20  and  O_21 
ROOT
HETATM    1  C   UNL     1      41.124 -14.217  -0.499  1.00  0.00     0.017 A 
HETATM    2  C   UNL     1      41.194 -15.599  -0.715  1.00  0.00     0.018 A 
HETATM    3  C   UNL     1      41.708 -16.457   0.267  1.00  0.00     0.030 A 
HETATM    4  C   UNL     1      42.162 -15.950   1.484  1.00  0.00     0.035 A 
HETATM    5  C   UNL     1      42.140 -14.566   1.687  1.00  0.00     0.030 A 
HETATM    6  C   UNL     1      41.623 -13.710   0.707  1.00  0.00     0.018 A 
ENDROOT
BRANCH   4   7
HETATM    7  N   UNL     1      42.609 -16.749   2.556  1.00  0.00    -0.323 N 
HETATM    8  C   UNL     1      43.709 -17.588   2.568  1.00  0.00     0.256 C 
HETATM    9  O   UNL     1      44.546 -17.734   1.687  1.00  0.00    -0.267 OA
HETATM   10  H   UNL     1      41.977 -16.815   3.344  1.00  0.00     0.169 HD
BRANCH   8  11
HETATM   11  C   UNL     1      43.807 -18.440   3.780  1.00  0.00     0.037 A 
HETATM   12  C   UNL     1      43.399 -17.894   5.000  1.00  0.00     0.054 A 
HETATM   13  C   UNL     1      43.534 -18.630   6.176  1.00  0.00     0.071 A 
HETATM   14  C   UNL     1      44.052 -19.924   6.114  1.00  0.00     0.073 A 
HETATM   15  C   UNL     1      44.437 -20.488   4.890  1.00  0.00     0.071 A 
HETATM   16  C   UNL     1      44.316 -19.744   3.717  1.00  0.00     0.054 A 
BRANCH  13  17
HETATM   17  O   UNL     1      43.132 -17.976   7.308  1.00  0.00    -0.356 OA
HETATM   18  C   UNL     1      43.490 -16.605   7.422  1.00  0.00     0.210 C 
ENDBRANCH  13  17
BRANCH  15  19
HETATM   19  O   UNL     1      44.920 -21.765   4.983  1.00  0.00    -0.356 OA
HETATM   20  C   UNL     1      44.694 -22.630   3.875  1.00  0.00     0.210 C 
ENDBRANCH  15  19
ENDBRANCH   8  11
ENDBRANCH   4   7
BRANCH   1  21
HETATM   21  C   UNL     1      40.511 -13.307  -1.465  1.00  0.00     0.180 A 
HETATM   22  N   UNL     1      39.228 -13.072  -1.679  1.00  0.00    -0.221 NA
HETATM   23  C   UNL     1      39.229 -12.214  -2.749  1.00  0.00     0.093 A 
HETATM   24  C   UNL     1      40.530 -11.941  -3.134  1.00  0.00     0.107 A 
HETATM   25  C   UNL     1      38.177 -11.630  -3.463  1.00  0.00     0.035 A 
HETATM   26  C   UNL     1      40.890 -11.113  -4.190  1.00  0.00     0.046 A 
HETATM   27  O   UNL     1      41.364 -12.637  -2.309  1.00  0.00    -0.289 OA
HETATM   28  C   UNL     1      39.830 -10.521  -4.899  1.00  0.00    -0.059 A 
HETATM   29  C   UNL     1      40.122  -9.646  -6.086  1.00  0.00     0.048 C 
HETATM   30  C   UNL     1      38.496 -10.790  -4.543  1.00  0.00     0.009 A 
ENDBRANCH   1  21
TORSDOF 5
ENDMDL
MODEL 9
REMARK VINA RESULT:      -7.3      3.134     11.093
REMARK  5 active torsions:
REMARK  status: ('A' for Active; 'I' for Inactive)
REMARK    1  A    between atoms: C_7  and  C_8 
REMARK    2  A    between atoms: C_11  and  N_12 
REMARK       I    between atoms: N_12  and  C_13 
REMARK    3  A    between atoms: C_13  and  C_14 
REMARK    4  A    between atoms: C_16  and  O_17 
REMARK    5  A    between atoms: C_20  and  O_21 
ROOT
HETATM    1  C   UNL     1      42.151 -16.427   1.591  1.00  0.00     0.017 A 
HETATM    2  C   UNL     1      41.616 -16.881   0.379  1.00  0.00     0.018 A 
HETATM    3  C   UNL     1      41.235 -15.980  -0.623  1.00  0.00     0.030 A 
HETATM    4  C   UNL     1      41.381 -14.606  -0.434  1.00  0.00     0.035 A 
HETATM    5  C   UNL     1      41.871 -14.144   0.792  1.00  0.00     0.030 A 
HETATM    6  C   UNL     1      42.255 -15.045   1.792  1.00  0.00     0.018 A 
ENDROOT
BRANCH   4   7
HETATM    7  N   UNL     1      41.107 -13.638  -1.422  1.00  0.00    -0.323 N 
HETATM    8  C   UNL     1      41.286 -13.767  -2.787  1.00  0.00     0.256 C 
HETATM    9  O   UNL     1      41.636 -14.764  -3.403  1.00  0.00    -0.267 OA
HETATM   10  H   UNL     1      40.889 -12.712  -1.076  1.00  0.00     0.169 HD
BRANCH   8  11
HETATM   11  C   UNL     1      41.087 -12.506  -3.546  1.00  0.00     0.037 A 
HETATM   12  C   UNL     1      39.776 -12.079  -3.777  1.00  0.00     0.054 A 
HETATM   13  C   UNL     1      39.535 -10.938  -4.539  1.00  0.00     0.071 A 
HETATM   14  C   UNL     1      40.617 -10.214  -5.043  1.00  0.00     0.073 A 
HETATM   15  C   UNL     1      41.935 -10.621  -4.791  1.00  0.00     0.071 A 
HETATM   16  C   UNL     1      42.173 -11.772  -4.041  1.00  0.00     0.054 A 
BRANCH  13  17
HETATM   17  O   UNL     1      38.213 -10.643  -4.723  1.00  0.00    -0.356 OA
HETATM   18  C   UNL     1      37.311 -11.065  -3.709  1.00  0.00     0.210 C 
ENDBRANCH  13  17
BRANCH  15  19
HETATM   19  O   UNL     1      42.891  -9.811  -5.342  1.00  0.00    -0.356 OA
HETATM   20  C   UNL     1      42.500  -8.489  -5.694  1.00  0.00     0.210 C 
ENDBRANCH  15  19
ENDBRANCH   8  11
ENDBRANCH   4   7
BRANCH   1  21
HETATM   21  C   UNL     1      42.642 -17.343   2.619  1.00  0.00     0.180 A 
HETATM   22  N   UNL     1      42.732 -17.150   3.924  1.00  0.00    -0.221 NA
HETATM   23  C   UNL     1      43.342 -18.290   4.380  1.00  0.00     0.093 A 
HETATM   24  C   UNL     1      43.583 -19.152   3.324  1.00  0.00     0.107 A 
HETATM   25  C   UNL     1      43.740 -18.671   5.666  1.00  0.00     0.035 A 
HETATM   26  C   UNL     1      44.195 -20.394   3.435  1.00  0.00     0.046 A 
HETATM   27  O   UNL     1      43.131 -18.552   2.185  1.00  0.00    -0.289 OA
HETATM   28  C   UNL     1      44.585 -20.777   4.730  1.00  0.00    -0.059 A 
HETATM   29  C   UNL     1      45.296 -22.085   4.942  1.00  0.00     0.048 C 
HETATM   30  C   UNL     1      44.369 -19.918   5.824  1.00  0.00     0.009 A 
ENDBRANCH   1  21
TORSDOF 5
ENDMDL
MODEL 10
REMARK VINA RESULT:      -7.3      7.713     11.053
REMARK  5 active torsions:
REMARK  status: ('A' for Active; 'I' for Inactive)
REMARK    1  A    between atoms: C_7  and  C_8 
REMARK    2  A    between atoms: C_11  and  N_12 
REMARK       I    between atoms: N_12  and  C_13 
REMARK    3  A    between atoms: C_13  and  C_14 
REMARK    4  A    between atoms: C_16  and  O_17 
REMARK    5  A    between atoms: C_20  and  O_21 
ROOT
HETATM    1  C   UNL     1      40.871 -10.748   8.591  1.00  0.00     0.017 A 
HETATM    2  C   UNL     1      39.614 -11.292   8.301  1.00  0.00     0.018 A 
HETATM    3  C   UNL     1      39.409 -12.061   7.148  1.00  0.00     0.030 A 
HETATM    4  C   UNL     1      40.459 -12.304   6.262  1.00  0.00     0.035 A 
HETATM    5  C   UNL     1      41.706 -11.724   6.522  1.00  0.00     0.030 A 
HETATM    6  C   UNL     1      41.910 -10.957   7.675  1.00  0.00     0.018 A 
ENDROOT
BRANCH   4   7
HETATM    7  N   UNL     1      40.362 -13.138   5.130  1.00  0.00    -0.323 N 
HETATM    8  C   UNL     1      40.417 -14.520   5.106  1.00  0.00     0.256 C 
HETATM    9  O   UNL     1      40.476 -15.281   6.063  1.00  0.00    -0.267 OA
HETATM   10  H   UNL     1      40.395 -12.665   4.236  1.00  0.00     0.169 HD
BRANCH   8  11
HETATM   11  C   UNL     1      40.478 -15.100   3.741  1.00  0.00     0.037 A 
HETATM   12  C   UNL     1      39.771 -14.455   2.722  1.00  0.00     0.054 A 
HETATM   13  C   UNL     1      39.742 -14.996   1.438  1.00  0.00     0.071 A 
HETATM   14  C   UNL     1      40.450 -16.171   1.179  1.00  0.00     0.073 A 
HETATM   15  C   UNL     1      41.184 -16.807   2.189  1.00  0.00     0.071 A 
HETATM   16  C   UNL     1      41.198 -16.273   3.477  1.00  0.00     0.054 A 
BRANCH  13  17
HETATM   17  O   UNL     1      38.990 -14.293   0.539  1.00  0.00    -0.356 OA
HETATM   18  C   UNL     1      37.622 -14.085   0.865  1.00  0.00     0.210 C 
ENDBRANCH  13  17
BRANCH  15  19
HETATM   19  O   UNL     1      41.831 -17.944   1.786  1.00  0.00    -0.356 OA
HETATM   20  C   UNL     1      42.843 -18.456   2.645  1.00  0.00     0.210 C 
ENDBRANCH  15  19
ENDBRANCH   8  11
ENDBRANCH   4   7
BRANCH   1  21
HETATM   21  C   UNL     1      41.139 -10.018   9.829  1.00  0.00     0.180 A 
HETATM   22  N   UNL     1      41.407  -8.734   9.990  1.00  0.00    -0.221 NA
HETATM   23  C   UNL     1      41.662  -8.620  11.332  1.00  0.00     0.093 A 
HETATM   24  C   UNL     1      41.515  -9.852  11.946  1.00  0.00     0.107 A 
HETATM   25  C   UNL     1      42.037  -7.518  12.109  1.00  0.00     0.035 A 
HETATM   26  C   UNL     1      41.707 -10.092  13.301  1.00  0.00     0.046 A 
HETATM   27  O   UNL     1      41.173 -10.758  10.986  1.00  0.00    -0.289 OA
HETATM   28  C   UNL     1      42.075  -8.981  14.080  1.00  0.00    -0.059 A 
HETATM   29  C   UNL     1      42.348  -9.154  15.548  1.00  0.00     0.048 C 
HETATM   30  C   UNL     1      42.247  -7.718  13.484  1.00  0.00     0.009 A 
ENDBRANCH   1  21
TORSDOF 5
ENDMDL
