MODEL 1
REMARK VINA RESULT:     -10.1      0.000      0.000
REMARK  8 active torsions:
REMARK  status: ('A' for Active; 'I' for Inactive)
REMARK    1  A    between atoms: C_2  and  N_3 
REMARK    2  A    between atoms: N_3  and  N_4 
REMARK       I    between atoms: N_4  and  C_5 
REMARK    3  A    between atoms: C_5  and  C_6 
REMARK       I    between atoms: C_6  and  N_7 
REMARK    4  A    between atoms: N_7  and  C_8 
REMARK    5  A    between atoms: C_16  and  C_17 
REMARK       I    between atoms: C_17  and  N_18 
REMARK    6  A    between atoms: N_18  and  C_19 
REMARK    7  A    between atoms: C_22  and  N_23 
REMARK    8  A    between atoms: N_23  and  C_24 
ROOT
HETATM    1  C   UNL     1      45.302 -10.838  10.737  1.00  0.00     0.063 C 
HETATM    2  C   UNL     1      44.847 -11.466   9.433  1.00  0.00     0.007 C 
HETATM    3  C   UNL     1      45.527 -12.543   8.986  1.00  0.00     0.094 C 
ENDROOT
BRANCH   3   4
HETATM    4  C   UNL     1      45.329 -13.254   7.689  1.00  0.00     0.247 C 
HETATM    5  N   UNL     1      44.166 -14.003   7.690  1.00  0.00    -0.324 N 
HETATM    6  H   UNL     1      43.497 -13.826   8.428  1.00  0.00     0.169 HD
HETATM    7  O   UNL     1      46.111 -13.136   6.755  1.00  0.00    -0.268 OA
BRANCH   5   8
HETATM    8  C   UNL     1      43.749 -14.898   6.683  1.00  0.00     0.035 A 
HETATM    9  C   UNL     1      43.608 -14.535   5.344  1.00  0.00     0.031 A 
HETATM   10  C   UNL     1      43.192 -15.473   4.393  1.00  0.00     0.026 A 
HETATM   11  C   UNL     1      42.861 -16.781   4.768  1.00  0.00     0.012 A 
HETATM   12  C   UNL     1      43.055 -17.154   6.102  1.00  0.00     0.026 A 
HETATM   13  C   UNL     1      43.502 -16.224   7.049  1.00  0.00     0.031 A 
BRANCH  11  14
HETATM   14  N   UNL     1      42.421 -17.702   3.777  1.00  0.00    -0.260 NA
HETATM   15  H   UNL     1      41.500 -18.042   4.052  1.00  0.00     0.134 HD
BRANCH  14  16
HETATM   16  C   UNL     1      43.196 -18.826   3.384  1.00  0.00     0.012 A 
HETATM   17  C   UNL     1      44.173 -19.351   4.232  1.00  0.00     0.024 A 
HETATM   18  C   UNL     1      44.893 -20.490   3.861  1.00  0.00     0.002 A 
HETATM   19  C   UNL     1      44.627 -21.119   2.645  1.00  0.00     0.000 A 
HETATM   20  C   UNL     1      43.639 -20.613   1.801  1.00  0.00     0.002 A 
HETATM   21  C   UNL     1      42.922 -19.475   2.172  1.00  0.00     0.024 A 
ENDBRANCH  14  16
ENDBRANCH  11  14
ENDBRANCH   5   8
ENDBRANCH   3   4
BRANCH   2  22
HETATM   22  N   UNL     1      43.760 -10.824   8.849  1.00  0.00    -0.207 NA
HETATM   23  H   UNL     1      43.788  -9.805   8.979  1.00  0.00     0.152 HD
BRANCH  22  24
HETATM   24  N   UNL     1      42.451 -11.299   9.060  1.00  0.00    -0.279 N 
HETATM   25  C   UNL     1      41.534 -10.418   9.606  1.00  0.00     0.323 C 
HETATM   26  O   UNL     1      41.707  -9.211   9.706  1.00  0.00    -0.261 OA
HETATM   27  H   UNL     1      42.344 -12.315   9.135  1.00  0.00     0.184 HD
BRANCH  25  28
HETATM   28  C   UNL     1      40.284 -11.106  10.163  1.00  0.00     0.311 C 
HETATM   29  N   UNL     1      40.075 -11.218  11.515  1.00  0.00    -0.348 N 
HETATM   30  H   UNL     1      39.207 -11.703  11.711  1.00  0.00     0.163 HD
HETATM   31  O   UNL     1      39.459 -11.556   9.371  1.00  0.00    -0.262 OA
BRANCH  29  32
HETATM   32  C   UNL     1      40.793 -10.673  12.669  1.00  0.00     0.084 C 
HETATM   33  C   UNL     1      42.263 -11.120  12.773  1.00  0.00     0.025 C 
HETATM   34  C   UNL     1      43.324 -10.031  12.931  1.00  0.00     0.002 C 
HETATM   35  C   UNL     1      42.819  -8.790  13.643  1.00  0.00     0.000 C 
HETATM   36  C   UNL     1      41.611  -8.229  12.913  1.00  0.00     0.002 C 
HETATM   37  C   UNL     1      40.446  -9.203  12.950  1.00  0.00     0.025 C 
ENDBRANCH  29  32
ENDBRANCH  25  28
ENDBRANCH  22  24
ENDBRANCH   2  22
TORSDOF 8
ENDMDL
MODEL 2
REMARK VINA RESULT:      -9.9      2.115      3.012
REMARK  8 active torsions:
REMARK  status: ('A' for Active; 'I' for Inactive)
REMARK    1  A    between atoms: C_2  and  N_3 
REMARK    2  A    between atoms: N_3  and  N_4 
REMARK       I    between atoms: N_4  and  C_5 
REMARK    3  A    between atoms: C_5  and  C_6 
REMARK       I    between atoms: C_6  and  N_7 
REMARK    4  A    between atoms: N_7  and  C_8 
REMARK    5  A    between atoms: C_16  and  C_17 
REMARK       I    between atoms: C_17  and  N_18 
REMARK    6  A    between atoms: N_18  and  C_19 
REMARK    7  A    between atoms: C_22  and  N_23 
REMARK    8  A    between atoms: N_23  and  C_24 
ROOT
HETATM    1  C   UNL     1      40.277 -10.357   7.448  1.00  0.00     0.063 C 
HETATM    2  C   UNL     1      41.359 -11.325   7.012  1.00  0.00     0.007 C 
HETATM    3  C   UNL     1      41.047 -12.222   6.052  1.00  0.00     0.094 C 
ENDROOT
BRANCH   3   4
HETATM    4  C   UNL     1      41.909 -13.329   5.544  1.00  0.00     0.247 C 
HETATM    5  N   UNL     1      41.734 -14.490   6.275  1.00  0.00    -0.324 N 
HETATM    6  H   UNL     1      40.931 -14.538   6.889  1.00  0.00     0.169 HD
HETATM    7  O   UNL     1      42.645 -13.189   4.576  1.00  0.00    -0.268 OA
BRANCH   5   8
HETATM    8  C   UNL     1      42.486 -15.676   6.151  1.00  0.00     0.035 A 
HETATM    9  C   UNL     1      43.808 -15.795   6.577  1.00  0.00     0.031 A 
HETATM   10  C   UNL     1      44.498 -17.003   6.426  1.00  0.00     0.026 A 
HETATM   11  C   UNL     1      43.897 -18.103   5.803  1.00  0.00     0.012 A 
HETATM   12  C   UNL     1      42.554 -17.996   5.426  1.00  0.00     0.026 A 
HETATM   13  C   UNL     1      41.852 -16.797   5.605  1.00  0.00     0.031 A 
BRANCH  11  14
HETATM   14  N   UNL     1      44.635 -19.309   5.648  1.00  0.00    -0.260 NA
HETATM   15  H   UNL     1      45.623 -19.091   5.778  1.00  0.00     0.134 HD
BRANCH  14  16
HETATM   16  C   UNL     1      44.523 -20.128   4.493  1.00  0.00     0.012 A 
HETATM   17  C   UNL     1      44.755 -21.503   4.568  1.00  0.00     0.024 A 
HETATM   18  C   UNL     1      44.588 -22.310   3.439  1.00  0.00     0.002 A 
HETATM   19  C   UNL     1      44.172 -21.747   2.233  1.00  0.00     0.000 A 
HETATM   20  C   UNL     1      43.919 -20.379   2.154  1.00  0.00     0.002 A 
HETATM   21  C   UNL     1      44.088 -19.573   3.281  1.00  0.00     0.024 A 
ENDBRANCH  14  16
ENDBRANCH  11  14
ENDBRANCH   5   8
ENDBRANCH   3   4
BRANCH   2  22
HETATM   22  N   UNL     1      42.565 -11.159   7.683  1.00  0.00    -0.207 NA
HETATM   23  H   UNL     1      43.358 -11.574   7.178  1.00  0.00     0.152 HD
BRANCH  22  24
HETATM   24  N   UNL     1      42.665 -11.455   9.057  1.00  0.00    -0.279 N 
HETATM   25  C   UNL     1      43.897 -11.274   9.659  1.00  0.00     0.323 C 
HETATM   26  O   UNL     1      44.835 -10.672   9.155  1.00  0.00    -0.261 OA
HETATM   27  H   UNL     1      41.960 -12.095   9.436  1.00  0.00     0.184 HD
BRANCH  25  28
HETATM   28  C   UNL     1      44.024 -11.979  11.014  1.00  0.00     0.311 C 
HETATM   29  N   UNL     1      43.645 -11.358  12.178  1.00  0.00    -0.348 N 
HETATM   30  H   UNL     1      43.799 -11.958  12.979  1.00  0.00     0.163 HD
HETATM   31  O   UNL     1      44.468 -13.124  11.042  1.00  0.00    -0.262 OA
BRANCH  29  32
HETATM   32  C   UNL     1      42.971 -10.084  12.439  1.00  0.00     0.084 C 
HETATM   33  C   UNL     1      41.459 -10.094  12.146  1.00  0.00     0.025 C 
HETATM   34  C   UNL     1      40.520  -9.609  13.250  1.00  0.00     0.002 C 
HETATM   35  C   UNL     1      41.146  -8.573  14.166  1.00  0.00     0.000 C 
HETATM   36  C   UNL     1      42.420  -9.125  14.780  1.00  0.00     0.002 C 
HETATM   37  C   UNL     1      43.471  -9.392  13.715  1.00  0.00     0.025 C 
ENDBRANCH  29  32
ENDBRANCH  25  28
ENDBRANCH  22  24
ENDBRANCH   2  22
TORSDOF 8
ENDMDL
MODEL 3
REMARK VINA RESULT:      -9.9      5.784      8.267
REMARK  8 active torsions:
REMARK  status: ('A' for Active; 'I' for Inactive)
REMARK    1  A    between atoms: C_2  and  N_3 
REMARK    2  A    between atoms: N_3  and  N_4 
REMARK       I    between atoms: N_4  and  C_5 
REMARK    3  A    between atoms: C_5  and  C_6 
REMARK       I    between atoms: C_6  and  N_7 
REMARK    4  A    between atoms: N_7  and  C_8 
REMARK    5  A    between atoms: C_16  and  C_17 
REMARK       I    between atoms: C_17  and  N_18 
REMARK    6  A    between atoms: N_18  and  C_19 
REMARK    7  A    between atoms: C_22  and  N_23 
REMARK    8  A    between atoms: N_23  and  C_24 
ROOT
HETATM    1  C   UNL     1      38.327 -14.350  -3.309  1.00  0.00     0.063 C 
HETATM    2  C   UNL     1      39.079 -14.396  -1.993  1.00  0.00     0.007 C 
HETATM    3  C   UNL     1      40.377 -14.769  -2.026  1.00  0.00     0.094 C 
ENDROOT
BRANCH   3   4
HETATM    4  C   UNL     1      41.278 -14.986  -0.857  1.00  0.00     0.247 C 
HETATM    5  N   UNL     1      41.421 -16.330  -0.565  1.00  0.00    -0.324 N 
HETATM    6  H   UNL     1      41.109 -16.995  -1.261  1.00  0.00     0.169 HD
HETATM    7  O   UNL     1      41.826 -14.058  -0.276  1.00  0.00    -0.268 OA
BRANCH   5   8
HETATM    8  C   UNL     1      42.087 -16.875   0.551  1.00  0.00     0.035 A 
HETATM    9  C   UNL     1      43.457 -17.137   0.576  1.00  0.00     0.031 A 
HETATM   10  C   UNL     1      44.057 -17.677   1.719  1.00  0.00     0.026 A 
HETATM   11  C   UNL     1      43.294 -18.012   2.844  1.00  0.00     0.012 A 
HETATM   12  C   UNL     1      41.931 -17.700   2.833  1.00  0.00     0.026 A 
HETATM   13  C   UNL     1      41.334 -17.129   1.702  1.00  0.00     0.031 A 
BRANCH  11  14
HETATM   14  N   UNL     1      43.935 -18.580   3.980  1.00  0.00    -0.260 NA
HETATM   15  H   UNL     1      44.790 -18.053   4.154  1.00  0.00     0.134 HD
BRANCH  14  16
HETATM   16  C   UNL     1      44.253 -19.961   4.064  1.00  0.00     0.012 A 
HETATM   17  C   UNL     1      44.489 -20.565   5.301  1.00  0.00     0.024 A 
HETATM   18  C   UNL     1      44.747 -21.937   5.380  1.00  0.00     0.002 A 
HETATM   19  C   UNL     1      44.756 -22.714   4.221  1.00  0.00     0.000 A 
HETATM   20  C   UNL     1      44.502 -22.123   2.985  1.00  0.00     0.002 A 
HETATM   21  C   UNL     1      44.246 -20.753   2.907  1.00  0.00     0.024 A 
ENDBRANCH  14  16
ENDBRANCH  11  14
ENDBRANCH   5   8
ENDBRANCH   3   4
BRANCH   2  22
HETATM   22  N   UNL     1      38.307 -14.044  -0.891  1.00  0.00    -0.207 NA
HETATM   23  H   UNL     1      37.406 -13.629  -1.158  1.00  0.00     0.152 HD
BRANCH  22  24
HETATM   24  N   UNL     1      38.872 -13.319   0.176  1.00  0.00    -0.279 N 
HETATM   25  C   UNL     1      38.744 -13.851   1.446  1.00  0.00     0.323 C 
HETATM   26  O   UNL     1      38.384 -14.995   1.686  1.00  0.00    -0.261 OA
HETATM   27  H   UNL     1      39.021 -12.317   0.016  1.00  0.00     0.184 HD
BRANCH  25  28
HETATM   28  C   UNL     1      39.019 -12.839   2.562  1.00  0.00     0.311 C 
HETATM   29  N   UNL     1      39.998 -13.059   3.499  1.00  0.00    -0.348 N 
HETATM   30  H   UNL     1      40.044 -12.298   4.166  1.00  0.00     0.163 HD
HETATM   31  O   UNL     1      38.346 -11.811   2.604  1.00  0.00    -0.262 OA
BRANCH  29  32
HETATM   32  C   UNL     1      41.025 -14.097   3.622  1.00  0.00     0.084 C 
HETATM   33  C   UNL     1      42.397 -13.704   3.043  1.00  0.00     0.025 C 
HETATM   34  C   UNL     1      43.620 -13.870   3.945  1.00  0.00     0.002 C 
HETATM   35  C   UNL     1      43.477 -14.988   4.962  1.00  0.00     0.000 C 
HETATM   36  C   UNL     1      42.238 -14.760   5.811  1.00  0.00     0.002 C 
HETATM   37  C   UNL     1      40.975 -14.832   4.969  1.00  0.00     0.025 C 
ENDBRANCH  29  32
ENDBRANCH  25  28
ENDBRANCH  22  24
ENDBRANCH   2  22
TORSDOF 8
ENDMDL
MODEL 4
REMARK VINA RESULT:      -9.8      4.726      7.648
REMARK  8 active torsions:
REMARK  status: ('A' for Active; 'I' for Inactive)
REMARK    1  A    between atoms: C_2  and  N_3 
REMARK    2  A    between atoms: N_3  and  N_4 
REMARK       I    between atoms: N_4  and  C_5 
REMARK    3  A    between atoms: C_5  and  C_6 
REMARK       I    between atoms: C_6  and  N_7 
REMARK    4  A    between atoms: N_7  and  C_8 
REMARK    5  A    between atoms: C_16  and  C_17 
REMARK       I    between atoms: C_17  and  N_18 
REMARK    6  A    between atoms: N_18  and  C_19 
REMARK    7  A    between atoms: C_22  and  N_23 
REMARK    8  A    between atoms: N_23  and  C_24 
ROOT
HETATM    1  C   UNL     1      40.698 -10.426   5.621  1.00  0.00     0.063 C 
HETATM    2  C   UNL     1      41.141 -11.846   5.325  1.00  0.00     0.007 C 
HETATM    3  C   UNL     1      40.598 -12.837   6.063  1.00  0.00     0.094 C 
ENDROOT
BRANCH   3   4
HETATM    4  C   UNL     1      40.956 -14.286   6.022  1.00  0.00     0.247 C 
HETATM    5  N   UNL     1      42.323 -14.476   6.118  1.00  0.00    -0.324 N 
HETATM    6  H   UNL     1      42.885 -13.690   6.415  1.00  0.00     0.169 HD
HETATM    7  O   UNL     1      40.108 -15.165   5.942  1.00  0.00    -0.268 OA
BRANCH   5   8
HETATM    8  C   UNL     1      43.006 -15.701   5.975  1.00  0.00     0.035 A 
HETATM    9  C   UNL     1      43.815 -16.249   6.970  1.00  0.00     0.031 A 
HETATM   10  C   UNL     1      44.464 -17.472   6.765  1.00  0.00     0.026 A 
HETATM   11  C   UNL     1      44.358 -18.149   5.545  1.00  0.00     0.012 A 
HETATM   12  C   UNL     1      43.504 -17.622   4.570  1.00  0.00     0.026 A 
HETATM   13  C   UNL     1      42.828 -16.414   4.786  1.00  0.00     0.031 A 
BRANCH  11  14
HETATM   14  N   UNL     1      45.050 -19.379   5.364  1.00  0.00    -0.260 NA
HETATM   15  H   UNL     1      46.044 -19.170   5.277  1.00  0.00     0.134 HD
BRANCH  14  16
HETATM   16  C   UNL     1      44.710 -20.300   4.338  1.00  0.00     0.012 A 
HETATM   17  C   UNL     1      44.319 -19.850   3.076  1.00  0.00     0.024 A 
HETATM   18  C   UNL     1      44.040 -20.763   2.055  1.00  0.00     0.002 A 
HETATM   19  C   UNL     1      44.166 -22.132   2.289  1.00  0.00     0.000 A 
HETATM   20  C   UNL     1      44.574 -22.590   3.540  1.00  0.00     0.002 A 
HETATM   21  C   UNL     1      44.852 -21.678   4.559  1.00  0.00     0.024 A 
ENDBRANCH  14  16
ENDBRANCH  11  14
ENDBRANCH   5   8
ENDBRANCH   3   4
BRANCH   2  22
HETATM   22  N   UNL     1      42.081 -11.940   4.305  1.00  0.00    -0.207 NA
HETATM   23  H   UNL     1      42.848 -11.265   4.413  1.00  0.00     0.152 HD
BRANCH  22  24
HETATM   24  N   UNL     1      41.673 -11.990   2.958  1.00  0.00    -0.279 N 
HETATM   25  C   UNL     1      42.347 -12.860   2.120  1.00  0.00     0.323 C 
HETATM   26  O   UNL     1      43.107 -13.741   2.500  1.00  0.00    -0.261 OA
HETATM   27  H   UNL     1      41.172 -11.169   2.604  1.00  0.00     0.184 HD
BRANCH  25  28
HETATM   28  C   UNL     1      42.123 -12.572   0.633  1.00  0.00     0.311 C 
HETATM   29  N   UNL     1      41.458 -13.462  -0.174  1.00  0.00    -0.348 N 
HETATM   30  H   UNL     1      41.402 -13.121  -1.126  1.00  0.00     0.163 HD
HETATM   31  O   UNL     1      42.547 -11.516   0.168  1.00  0.00    -0.262 OA
BRANCH  29  32
HETATM   32  C   UNL     1      40.737 -14.703   0.118  1.00  0.00     0.084 C 
HETATM   33  C   UNL     1      41.624 -15.962   0.142  1.00  0.00     0.025 C 
HETATM   34  C   UNL     1      41.540 -16.864   1.373  1.00  0.00     0.002 C 
HETATM   35  C   UNL     1      40.186 -16.833   2.057  1.00  0.00     0.000 C 
HETATM   36  C   UNL     1      39.830 -15.406   2.439  1.00  0.00     0.002 C 
HETATM   37  C   UNL     1      39.666 -14.533   1.205  1.00  0.00     0.025 C 
ENDBRANCH  29  32
ENDBRANCH  25  28
ENDBRANCH  22  24
ENDBRANCH   2  22
TORSDOF 8
ENDMDL
MODEL 5
REMARK VINA RESULT:      -9.7      2.138      4.471
REMARK  8 active torsions:
REMARK  status: ('A' for Active; 'I' for Inactive)
REMARK    1  A    between atoms: C_2  and  N_3 
REMARK    2  A    between atoms: N_3  and  N_4 
REMARK       I    between atoms: N_4  and  C_5 
REMARK    3  A    between atoms: C_5  and  C_6 
REMARK       I    between atoms: C_6  and  N_7 
REMARK    4  A    between atoms: N_7  and  C_8 
REMARK    5  A    between atoms: C_16  and  C_17 
REMARK       I    between atoms: C_17  and  N_18 
REMARK    6  A    between atoms: N_18  and  C_19 
REMARK    7  A    between atoms: C_22  and  N_23 
REMARK    8  A    between atoms: N_23  and  C_24 
ROOT
HETATM    1  C   UNL     1      45.024 -11.011  10.853  1.00  0.00     0.063 C 
HETATM    2  C   UNL     1      44.664 -11.554   9.483  1.00  0.00     0.007 C 
HETATM    3  C   UNL     1      45.271 -12.690   9.080  1.00  0.00     0.094 C 
ENDROOT
BRANCH   3   4
HETATM    4  C   UNL     1      45.154 -13.344   7.744  1.00  0.00     0.247 C 
HETATM    5  N   UNL     1      44.000 -14.101   7.645  1.00  0.00    -0.324 N 
HETATM    6  H   UNL     1      43.289 -13.962   8.351  1.00  0.00     0.169 HD
HETATM    7  O   UNL     1      45.987 -13.179   6.862  1.00  0.00    -0.268 OA
BRANCH   5   8
HETATM    8  C   UNL     1      43.650 -14.953   6.578  1.00  0.00     0.035 A 
HETATM    9  C   UNL     1      43.838 -14.621   5.237  1.00  0.00     0.031 A 
HETATM   10  C   UNL     1      43.470 -15.514   4.224  1.00  0.00     0.026 A 
HETATM   11  C   UNL     1      42.863 -16.738   4.529  1.00  0.00     0.012 A 
HETATM   12  C   UNL     1      42.725 -17.089   5.876  1.00  0.00     0.026 A 
HETATM   13  C   UNL     1      43.122 -16.209   6.891  1.00  0.00     0.031 A 
BRANCH  11  14
HETATM   14  N   UNL     1      42.483 -17.612   3.473  1.00  0.00    -0.260 NA
HETATM   15  H   UNL     1      41.492 -17.827   3.585  1.00  0.00     0.134 HD
BRANCH  14  16
HETATM   16  C   UNL     1      43.162 -18.831   3.211  1.00  0.00     0.012 A 
HETATM   17  C   UNL     1      42.896 -19.561   2.051  1.00  0.00     0.024 A 
HETATM   18  C   UNL     1      43.609 -20.731   1.773  1.00  0.00     0.002 A 
HETATM   19  C   UNL     1      44.603 -21.168   2.649  1.00  0.00     0.000 A 
HETATM   20  C   UNL     1      44.888 -20.435   3.799  1.00  0.00     0.002 A 
HETATM   21  C   UNL     1      44.175 -19.268   4.077  1.00  0.00     0.024 A 
ENDBRANCH  14  16
ENDBRANCH  11  14
ENDBRANCH   5   8
ENDBRANCH   3   4
BRANCH   2  22
HETATM   22  N   UNL     1      43.731 -10.780   8.800  1.00  0.00    -0.207 NA
HETATM   23  H   UNL     1      43.562  -9.875   9.255  1.00  0.00     0.152 HD
BRANCH  22  24
HETATM   24  N   UNL     1      42.510 -11.341   8.377  1.00  0.00    -0.279 N 
HETATM   25  C   UNL     1      41.640 -10.520   7.683  1.00  0.00     0.323 C 
HETATM   26  O   UNL     1      41.938  -9.429   7.217  1.00  0.00    -0.261 OA
HETATM   27  H   UNL     1      42.190 -12.170   8.888  1.00  0.00     0.184 HD
BRANCH  25  28
HETATM   28  C   UNL     1      40.210 -11.067   7.613  1.00  0.00     0.311 C 
HETATM   29  N   UNL     1      39.845 -11.988   6.663  1.00  0.00    -0.348 N 
HETATM   30  H   UNL     1      38.868 -12.238   6.753  1.00  0.00     0.163 HD
HETATM   31  O   UNL     1      39.387 -10.668   8.434  1.00  0.00    -0.262 OA
BRANCH  29  32
HETATM   32  C   UNL     1      40.620 -12.732   5.666  1.00  0.00     0.084 C 
HETATM   33  C   UNL     1      40.108 -14.160   5.401  1.00  0.00     0.025 C 
HETATM   34  C   UNL     1      39.843 -14.559   3.949  1.00  0.00     0.002 C 
HETATM   35  C   UNL     1      40.724 -13.832   2.950  1.00  0.00     0.000 C 
HETATM   36  C   UNL     1      40.559 -12.330   3.109  1.00  0.00     0.002 C 
HETATM   37  C   UNL     1      41.047 -11.866   4.472  1.00  0.00     0.025 C 
ENDBRANCH  29  32
ENDBRANCH  25  28
ENDBRANCH  22  24
ENDBRANCH   2  22
TORSDOF 8
ENDMDL
MODEL 6
REMARK VINA RESULT:      -9.7      7.376     10.196
REMARK  8 active torsions:
REMARK  status: ('A' for Active; 'I' for Inactive)
REMARK    1  A    between atoms: C_2  and  N_3 
REMARK    2  A    between atoms: N_3  and  N_4 
REMARK       I    between atoms: N_4  and  C_5 
REMARK    3  A    between atoms: C_5  and  C_6 
REMARK       I    between atoms: C_6  and  N_7 
REMARK    4  A    between atoms: N_7  and  C_8 
REMARK    5  A    between atoms: C_16  and  C_17 
REMARK       I    between atoms: C_17  and  N_18 
REMARK    6  A    between atoms: N_18  and  C_19 
REMARK    7  A    between atoms: C_22  and  N_23 
REMARK    8  A    between atoms: N_23  and  C_24 
ROOT
HETATM    1  C   UNL     1      37.551 -12.398   0.887  1.00  0.00     0.063 C 
HETATM    2  C   UNL     1      38.315 -13.707   0.822  1.00  0.00     0.007 C 
HETATM    3  C   UNL     1      38.852 -14.176   1.969  1.00  0.00     0.094 C 
ENDROOT
BRANCH   3   4
HETATM    4  C   UNL     1      39.726 -15.376   2.124  1.00  0.00     0.247 C 
HETATM    5  N   UNL     1      40.370 -15.382   3.348  1.00  0.00    -0.324 N 
HETATM    6  H   UNL     1      40.035 -14.742   4.056  1.00  0.00     0.169 HD
HETATM    7  O   UNL     1      39.808 -16.238   1.260  1.00  0.00    -0.268 OA
BRANCH   5   8
HETATM    8  C   UNL     1      41.366 -16.291   3.762  1.00  0.00     0.035 A 
HETATM    9  C   UNL     1      41.140 -17.306   4.692  1.00  0.00     0.031 A 
HETATM   10  C   UNL     1      42.172 -18.177   5.058  1.00  0.00     0.026 A 
HETATM   11  C   UNL     1      43.463 -18.024   4.540  1.00  0.00     0.012 A 
HETATM   12  C   UNL     1      43.671 -17.040   3.568  1.00  0.00     0.026 A 
HETATM   13  C   UNL     1      42.631 -16.186   3.177  1.00  0.00     0.031 A 
BRANCH  11  14
HETATM   14  N   UNL     1      44.492 -18.915   4.951  1.00  0.00    -0.260 NA
HETATM   15  H   UNL     1      45.388 -18.451   4.801  1.00  0.00     0.134 HD
BRANCH  14  16
HETATM   16  C   UNL     1      44.601 -20.238   4.446  1.00  0.00     0.012 A 
HETATM   17  C   UNL     1      44.721 -21.325   5.314  1.00  0.00     0.024 A 
HETATM   18  C   UNL     1      44.772 -22.629   4.811  1.00  0.00     0.002 A 
HETATM   19  C   UNL     1      44.689 -22.851   3.437  1.00  0.00     0.000 A 
HETATM   20  C   UNL     1      44.550 -21.773   2.565  1.00  0.00     0.002 A 
HETATM   21  C   UNL     1      44.500 -20.472   3.067  1.00  0.00     0.024 A 
ENDBRANCH  14  16
ENDBRANCH  11  14
ENDBRANCH   5   8
ENDBRANCH   3   4
BRANCH   2  22
HETATM   22  N   UNL     1      38.369 -14.263  -0.451  1.00  0.00    -0.207 NA
HETATM   23  H   UNL     1      37.737 -15.066  -0.557  1.00  0.00     0.152 HD
BRANCH  22  24
HETATM   24  N   UNL     1      39.609 -14.544  -1.057  1.00  0.00    -0.279 N 
HETATM   25  C   UNL     1      39.776 -14.157  -2.375  1.00  0.00     0.323 C 
HETATM   26  O   UNL     1      39.028 -13.399  -2.975  1.00  0.00    -0.261 OA
HETATM   27  H   UNL     1      40.160 -15.299  -0.635  1.00  0.00     0.184 HD
BRANCH  25  28
HETATM   28  C   UNL     1      40.963 -14.837  -3.064  1.00  0.00     0.311 C 
HETATM   29  N   UNL     1      42.127 -14.154  -3.318  1.00  0.00    -0.348 N 
HETATM   30  H   UNL     1      42.805 -14.746  -3.782  1.00  0.00     0.163 HD
HETATM   31  O   UNL     1      40.859 -16.019  -3.385  1.00  0.00    -0.262 OA
BRANCH  29  32
HETATM   32  C   UNL     1      42.584 -12.815  -2.938  1.00  0.00     0.084 C 
HETATM   33  C   UNL     1      42.166 -11.700  -3.914  1.00  0.00     0.025 C 
HETATM   34  C   UNL     1      41.461 -10.476  -3.331  1.00  0.00     0.002 C 
HETATM   35  C   UNL     1      41.861 -10.170  -1.900  1.00  0.00     0.000 C 
HETATM   36  C   UNL     1      41.603 -11.380  -1.019  1.00  0.00     0.002 C 
HETATM   37  C   UNL     1      42.479 -12.553  -1.428  1.00  0.00     0.025 C 
ENDBRANCH  29  32
ENDBRANCH  25  28
ENDBRANCH  22  24
ENDBRANCH   2  22
TORSDOF 8
ENDMDL
MODEL 7
REMARK VINA RESULT:      -9.6      5.487      8.719
REMARK  8 active torsions:
REMARK  status: ('A' for Active; 'I' for Inactive)
REMARK    1  A    between atoms: C_2  and  N_3 
REMARK    2  A    between atoms: N_3  and  N_4 
REMARK       I    between atoms: N_4  and  C_5 
REMARK    3  A    between atoms: C_5  and  C_6 
REMARK       I    between atoms: C_6  and  N_7 
REMARK    4  A    between atoms: N_7  and  C_8 
REMARK    5  A    between atoms: C_16  and  C_17 
REMARK       I    between atoms: C_17  and  N_18 
REMARK    6  A    between atoms: N_18  and  C_19 
REMARK    7  A    between atoms: C_22  and  N_23 
REMARK    8  A    between atoms: N_23  and  C_24 
ROOT
HETATM    1  C   UNL     1      38.417 -10.583   2.374  1.00  0.00     0.063 C 
HETATM    2  C   UNL     1      38.876 -12.023   2.505  1.00  0.00     0.007 C 
HETATM    3  C   UNL     1      39.268 -12.446   3.726  1.00  0.00     0.094 C 
ENDROOT
BRANCH   3   4
HETATM    4  C   UNL     1      39.852 -13.776   4.069  1.00  0.00     0.247 C 
HETATM    5  N   UNL     1      40.608 -13.718   5.226  1.00  0.00    -0.324 N 
HETATM    6  H   UNL     1      40.511 -12.896   5.807  1.00  0.00     0.169 HD
HETATM    7  O   UNL     1      39.636 -14.775   3.396  1.00  0.00    -0.268 OA
BRANCH   5   8
HETATM    8  C   UNL     1      41.405 -14.754   5.754  1.00  0.00     0.035 A 
HETATM    9  C   UNL     1      40.899 -15.999   6.125  1.00  0.00     0.031 A 
HETATM   10  C   UNL     1      41.746 -16.986   6.641  1.00  0.00     0.026 A 
HETATM   11  C   UNL     1      43.108 -16.734   6.843  1.00  0.00     0.012 A 
HETATM   12  C   UNL     1      43.620 -15.503   6.421  1.00  0.00     0.026 A 
HETATM   13  C   UNL     1      42.780 -14.525   5.874  1.00  0.00     0.031 A 
BRANCH  11  14
HETATM   14  N   UNL     1      43.935 -17.753   7.390  1.00  0.00    -0.260 NA
HETATM   15  H   UNL     1      44.829 -17.332   7.642  1.00  0.00     0.134 HD
BRANCH  14  16
HETATM   16  C   UNL     1      44.207 -18.965   6.702  1.00  0.00     0.012 A 
HETATM   17  C   UNL     1      43.735 -20.185   7.189  1.00  0.00     0.024 A 
HETATM   18  C   UNL     1      43.960 -21.366   6.476  1.00  0.00     0.002 A 
HETATM   19  C   UNL     1      44.647 -21.329   5.263  1.00  0.00     0.000 A 
HETATM   20  C   UNL     1      45.105 -20.114   4.759  1.00  0.00     0.002 A 
HETATM   21  C   UNL     1      44.881 -18.935   5.472  1.00  0.00     0.024 A 
ENDBRANCH  14  16
ENDBRANCH  11  14
ENDBRANCH   5   8
ENDBRANCH   3   4
BRANCH   2  22
HETATM   22  N   UNL     1      38.837 -12.736   1.312  1.00  0.00    -0.207 NA
HETATM   23  H   UNL     1      38.281 -13.596   1.385  1.00  0.00     0.152 HD
BRANCH  22  24
HETATM   24  N   UNL     1      40.021 -12.990   0.592  1.00  0.00    -0.279 N 
HETATM   25  C   UNL     1      39.930 -13.821  -0.510  1.00  0.00     0.323 C 
HETATM   26  O   UNL     1      38.880 -14.165  -1.035  1.00  0.00    -0.261 OA
HETATM   27  H   UNL     1      40.900 -12.850   1.100  1.00  0.00     0.184 HD
BRANCH  25  28
HETATM   28  C   UNL     1      41.285 -14.356  -0.984  1.00  0.00     0.311 C 
HETATM   29  N   UNL     1      42.036 -15.193  -0.197  1.00  0.00    -0.348 N 
HETATM   30  H   UNL     1      42.902 -15.447  -0.656  1.00  0.00     0.163 HD
HETATM   31  O   UNL     1      41.692 -14.025  -2.096  1.00  0.00    -0.262 OA
BRANCH  29  32
HETATM   32  C   UNL     1      41.757 -15.854   1.081  1.00  0.00     0.084 C 
HETATM   33  C   UNL     1      41.335 -17.329   0.954  1.00  0.00     0.025 C 
HETATM   34  C   UNL     1      42.094 -18.358   1.793  1.00  0.00     0.002 C 
HETATM   35  C   UNL     1      42.641 -17.796   3.092  1.00  0.00     0.000 C 
HETATM   36  C   UNL     1      43.536 -16.604   2.806  1.00  0.00     0.002 C 
HETATM   37  C   UNL     1      42.748 -15.461   2.186  1.00  0.00     0.025 C 
ENDBRANCH  29  32
ENDBRANCH  25  28
ENDBRANCH  22  24
ENDBRANCH   2  22
TORSDOF 8
ENDMDL
MODEL 8
REMARK VINA RESULT:      -9.6      2.226      3.145
REMARK  8 active torsions:
REMARK  status: ('A' for Active; 'I' for Inactive)
REMARK    1  A    between atoms: C_2  and  N_3 
REMARK    2  A    between atoms: N_3  and  N_4 
REMARK       I    between atoms: N_4  and  C_5 
REMARK    3  A    between atoms: C_5  and  C_6 
REMARK       I    between atoms: C_6  and  N_7 
REMARK    4  A    between atoms: N_7  and  C_8 
REMARK    5  A    between atoms: C_16  and  C_17 
REMARK       I    between atoms: C_17  and  N_18 
REMARK    6  A    between atoms: N_18  and  C_19 
REMARK    7  A    between atoms: C_22  and  N_23 
REMARK    8  A    between atoms: N_23  and  C_24 
ROOT
HETATM    1  C   UNL     1      40.205  -9.908   7.517  1.00  0.00     0.063 C 
HETATM    2  C   UNL     1      41.278 -10.904   7.125  1.00  0.00     0.007 C 
HETATM    3  C   UNL     1      40.996 -11.769   6.128  1.00  0.00     0.094 C 
ENDROOT
BRANCH   3   4
HETATM    4  C   UNL     1      41.850 -12.895   5.648  1.00  0.00     0.247 C 
HETATM    5  N   UNL     1      41.378 -13.424   4.460  1.00  0.00    -0.324 N 
HETATM    6  H   UNL     1      40.686 -12.888   3.952  1.00  0.00     0.169 HD
HETATM    7  O   UNL     1      42.853 -13.254   6.250  1.00  0.00    -0.268 OA
BRANCH   5   8
HETATM    8  C   UNL     1      41.864 -14.575   3.808  1.00  0.00     0.035 A 
HETATM    9  C   UNL     1      43.091 -14.623   3.148  1.00  0.00     0.031 A 
HETATM   10  C   UNL     1      43.517 -15.800   2.522  1.00  0.00     0.026 A 
HETATM   11  C   UNL     1      42.703 -16.940   2.500  1.00  0.00     0.012 A 
HETATM   12  C   UNL     1      41.498 -16.903   3.208  1.00  0.00     0.026 A 
HETATM   13  C   UNL     1      41.085 -15.735   3.863  1.00  0.00     0.031 A 
BRANCH  11  14
HETATM   14  N   UNL     1      43.159 -18.112   1.836  1.00  0.00    -0.260 NA
HETATM   15  H   UNL     1      42.413 -18.433   1.219  1.00  0.00     0.134 HD
BRANCH  14  16
HETATM   16  C   UNL     1      43.655 -19.242   2.538  1.00  0.00     0.012 A 
HETATM   17  C   UNL     1      43.625 -20.512   1.959  1.00  0.00     0.024 A 
HETATM   18  C   UNL     1      44.165 -21.610   2.634  1.00  0.00     0.002 A 
HETATM   19  C   UNL     1      44.753 -21.439   3.887  1.00  0.00     0.000 A 
HETATM   20  C   UNL     1      44.806 -20.171   4.464  1.00  0.00     0.002 A 
HETATM   21  C   UNL     1      44.264 -19.076   3.790  1.00  0.00     0.024 A 
ENDBRANCH  14  16
ENDBRANCH  11  14
ENDBRANCH   5   8
ENDBRANCH   3   4
BRANCH   2  22
HETATM   22  N   UNL     1      42.446 -10.796   7.873  1.00  0.00    -0.207 NA
HETATM   23  H   UNL     1      43.291 -10.944   7.309  1.00  0.00     0.152 HD
BRANCH  22  24
HETATM   24  N   UNL     1      42.569 -11.465   9.107  1.00  0.00    -0.279 N 
HETATM   25  C   UNL     1      43.706 -11.217   9.854  1.00  0.00     0.323 C 
HETATM   26  O   UNL     1      44.492 -10.305   9.640  1.00  0.00    -0.261 OA
HETATM   27  H   UNL     1      42.022 -12.325   9.214  1.00  0.00     0.184 HD
BRANCH  25  28
HETATM   28  C   UNL     1      43.951 -12.254  10.954  1.00  0.00     0.311 C 
HETATM   29  N   UNL     1      43.481 -12.066  12.230  1.00  0.00    -0.348 N 
HETATM   30  H   UNL     1      43.734 -12.840  12.832  1.00  0.00     0.163 HD
HETATM   31  O   UNL     1      44.578 -13.274  10.673  1.00  0.00    -0.262 OA
BRANCH  29  32
HETATM   32  C   UNL     1      42.608 -11.045  12.815  1.00  0.00     0.084 C 
HETATM   33  C   UNL     1      43.233  -9.639  12.886  1.00  0.00     0.025 C 
HETATM   34  C   UNL     1      42.434  -8.478  12.297  1.00  0.00     0.002 C 
HETATM   35  C   UNL     1      40.931  -8.683  12.356  1.00  0.00     0.000 C 
HETATM   36  C   UNL     1      40.556  -9.976  11.653  1.00  0.00     0.002 C 
HETATM   37  C   UNL     1      41.145 -11.181  12.368  1.00  0.00     0.025 C 
ENDBRANCH  29  32
ENDBRANCH  25  28
ENDBRANCH  22  24
ENDBRANCH   2  22
TORSDOF 8
ENDMDL
MODEL 9
REMARK VINA RESULT:      -9.5      4.779      6.937
REMARK  8 active torsions:
REMARK  status: ('A' for Active; 'I' for Inactive)
REMARK    1  A    between atoms: C_2  and  N_3 
REMARK    2  A    between atoms: N_3  and  N_4 
REMARK       I    between atoms: N_4  and  C_5 
REMARK    3  A    between atoms: C_5  and  C_6 
REMARK       I    between atoms: C_6  and  N_7 
REMARK    4  A    between atoms: N_7  and  C_8 
REMARK    5  A    between atoms: C_16  and  C_17 
REMARK       I    between atoms: C_17  and  N_18 
REMARK    6  A    between atoms: N_18  and  C_19 
REMARK    7  A    between atoms: C_22  and  N_23 
REMARK    8  A    between atoms: N_23  and  C_24 
ROOT
HETATM    1  C   UNL     1      38.511 -11.818   0.888  1.00  0.00     0.063 C 
HETATM    2  C   UNL     1      39.605 -12.865   0.977  1.00  0.00     0.007 C 
HETATM    3  C   UNL     1      39.750 -13.708  -0.068  1.00  0.00     0.094 C 
ENDROOT
BRANCH   3   4
HETATM    4  C   UNL     1      40.680 -14.873  -0.157  1.00  0.00     0.247 C 
HETATM    5  N   UNL     1      40.861 -15.477   1.073  1.00  0.00    -0.324 N 
HETATM    6  H   UNL     1      40.216 -15.233   1.813  1.00  0.00     0.169 HD
HETATM    7  O   UNL     1      41.174 -15.231  -1.218  1.00  0.00    -0.268 OA
BRANCH   5   8
HETATM    8  C   UNL     1      41.773 -16.511   1.369  1.00  0.00     0.035 A 
HETATM    9  C   UNL     1      41.413 -17.857   1.436  1.00  0.00     0.031 A 
HETATM   10  C   UNL     1      42.369 -18.835   1.732  1.00  0.00     0.026 A 
HETATM   11  C   UNL     1      43.695 -18.485   2.014  1.00  0.00     0.012 A 
HETATM   12  C   UNL     1      44.062 -17.141   1.893  1.00  0.00     0.026 A 
HETATM   13  C   UNL     1      43.113 -16.164   1.565  1.00  0.00     0.031 A 
BRANCH  11  14
HETATM   14  N   UNL     1      44.635 -19.503   2.332  1.00  0.00    -0.260 NA
HETATM   15  H   UNL     1      44.632 -20.182   1.571  1.00  0.00     0.134 HD
BRANCH  14  16
HETATM   16  C   UNL     1      44.593 -20.224   3.555  1.00  0.00     0.012 A 
HETATM   17  C   UNL     1      44.275 -19.580   4.752  1.00  0.00     0.024 A 
HETATM   18  C   UNL     1      44.181 -20.307   5.943  1.00  0.00     0.002 A 
HETATM   19  C   UNL     1      44.390 -21.686   5.937  1.00  0.00     0.000 A 
HETATM   20  C   UNL     1      44.688 -22.340   4.743  1.00  0.00     0.002 A 
HETATM   21  C   UNL     1      44.784 -21.613   3.556  1.00  0.00     0.024 A 
ENDBRANCH  14  16
ENDBRANCH  11  14
ENDBRANCH   5   8
ENDBRANCH   3   4
BRANCH   2  22
HETATM   22  N   UNL     1      40.331 -12.820   2.162  1.00  0.00    -0.207 NA
HETATM   23  H   UNL     1      41.239 -13.294   2.085  1.00  0.00     0.152 HD
BRANCH  22  24
HETATM   24  N   UNL     1      39.721 -13.147   3.388  1.00  0.00    -0.279 N 
HETATM   25  C   UNL     1      40.137 -12.456   4.511  1.00  0.00     0.323 C 
HETATM   26  O   UNL     1      40.820 -11.441   4.488  1.00  0.00    -0.261 OA
HETATM   27  H   UNL     1      39.287 -14.074   3.446  1.00  0.00     0.184 HD
BRANCH  25  28
HETATM   28  C   UNL     1      39.731 -13.128   5.827  1.00  0.00     0.311 C 
HETATM   29  N   UNL     1      40.384 -14.244   6.288  1.00  0.00    -0.348 N 
HETATM   30  H   UNL     1      39.988 -14.564   7.164  1.00  0.00     0.163 HD
HETATM   31  O   UNL     1      38.805 -12.644   6.473  1.00  0.00    -0.262 OA
BRANCH  29  32
HETATM   32  C   UNL     1      41.580 -14.948   5.819  1.00  0.00     0.084 C 
HETATM   33  C   UNL     1      42.895 -14.176   6.031  1.00  0.00     0.025 C 
HETATM   34  C   UNL     1      44.035 -14.901   6.745  1.00  0.00     0.002 C 
HETATM   35  C   UNL     1      44.021 -16.404   6.540  1.00  0.00     0.000 C 
HETATM   36  C   UNL     1      42.687 -16.976   6.987  1.00  0.00     0.002 C 
HETATM   37  C   UNL     1      41.549 -16.452   6.126  1.00  0.00     0.025 C 
ENDBRANCH  29  32
ENDBRANCH  25  28
ENDBRANCH  22  24
ENDBRANCH   2  22
TORSDOF 8
ENDMDL
MODEL 10
REMARK VINA RESULT:      -9.2      4.482      7.617
REMARK  8 active torsions:
REMARK  status: ('A' for Active; 'I' for Inactive)
REMARK    1  A    between atoms: C_2  and  N_3 
REMARK    2  A    between atoms: N_3  and  N_4 
REMARK       I    between atoms: N_4  and  C_5 
REMARK    3  A    between atoms: C_5  and  C_6 
REMARK       I    between atoms: C_6  and  N_7 
REMARK    4  A    between atoms: N_7  and  C_8 
REMARK    5  A    between atoms: C_16  and  C_17 
REMARK       I    between atoms: C_17  and  N_18 
REMARK    6  A    between atoms: N_18  and  C_19 
REMARK    7  A    between atoms: C_22  and  N_23 
REMARK    8  A    between atoms: N_23  and  C_24 
ROOT
HETATM    1  C   UNL     1      40.352  -9.852   3.526  1.00  0.00     0.063 C 
HETATM    2  C   UNL     1      41.067 -11.084   4.046  1.00  0.00     0.007 C 
HETATM    3  C   UNL     1      41.181 -11.224   5.384  1.00  0.00     0.094 C 
ENDROOT
BRANCH   3   4
HETATM    4  C   UNL     1      41.928 -12.291   6.114  1.00  0.00     0.247 C 
HETATM    5  N   UNL     1      41.875 -13.500   5.445  1.00  0.00    -0.324 N 
HETATM    6  H   UNL     1      41.556 -13.490   4.485  1.00  0.00     0.169 HD
HETATM    7  O   UNL     1      42.524 -12.069   7.160  1.00  0.00    -0.268 OA
BRANCH   5   8
HETATM    8  C   UNL     1      42.355 -14.738   5.920  1.00  0.00     0.035 A 
HETATM    9  C   UNL     1      43.708 -15.012   6.118  1.00  0.00     0.031 A 
HETATM   10  C   UNL     1      44.117 -16.262   6.596  1.00  0.00     0.026 A 
HETATM   11  C   UNL     1      43.188 -17.281   6.838  1.00  0.00     0.012 A 
HETATM   12  C   UNL     1      41.830 -16.984   6.688  1.00  0.00     0.026 A 
HETATM   13  C   UNL     1      41.416 -15.723   6.241  1.00  0.00     0.031 A 
BRANCH  11  14
HETATM   14  N   UNL     1      43.643 -18.546   7.302  1.00  0.00    -0.260 NA
HETATM   15  H   UNL     1      44.420 -18.386   7.942  1.00  0.00     0.134 HD
BRANCH  14  16
HETATM   16  C   UNL     1      44.020 -19.591   6.417  1.00  0.00     0.012 A 
HETATM   17  C   UNL     1      44.620 -19.304   5.189  1.00  0.00     0.024 A 
HETATM   18  C   UNL     1      45.039 -20.340   4.348  1.00  0.00     0.002 A 
HETATM   19  C   UNL     1      44.873 -21.668   4.740  1.00  0.00     0.000 A 
HETATM   20  C   UNL     1      44.294 -21.963   5.972  1.00  0.00     0.002 A 
HETATM   21  C   UNL     1      43.874 -20.929   6.811  1.00  0.00     0.024 A 
ENDBRANCH  14  16
ENDBRANCH  11  14
ENDBRANCH   5   8
ENDBRANCH   3   4
BRANCH   2  22
HETATM   22  N   UNL     1      41.532 -11.929   3.044  1.00  0.00    -0.207 NA
HETATM   23  H   UNL     1      42.412 -11.602   2.629  1.00  0.00     0.152 HD
BRANCH  22  24
HETATM   24  N   UNL     1      40.664 -12.382   2.031  1.00  0.00    -0.279 N 
HETATM   25  C   UNL     1      39.953 -13.543   2.273  1.00  0.00     0.323 C 
HETATM   26  O   UNL     1      39.848 -14.077   3.368  1.00  0.00    -0.261 OA
HETATM   27  H   UNL     1      40.862 -12.051   1.081  1.00  0.00     0.184 HD
BRANCH  25  28
HETATM   28  C   UNL     1      39.359 -14.170   1.008  1.00  0.00     0.311 C 
HETATM   29  N   UNL     1      39.963 -15.236   0.388  1.00  0.00    -0.348 N 
HETATM   30  H   UNL     1      39.446 -15.522  -0.434  1.00  0.00     0.163 HD
HETATM   31  O   UNL     1      38.317 -13.703   0.554  1.00  0.00    -0.262 OA
BRANCH  29  32
HETATM   32  C   UNL     1      41.106 -16.072   0.763  1.00  0.00     0.084 C 
HETATM   33  C   UNL     1      42.393 -15.286   1.077  1.00  0.00     0.025 C 
HETATM   34  C   UNL     1      43.092 -15.575   2.406  1.00  0.00     0.002 C 
HETATM   35  C   UNL     1      42.885 -16.992   2.905  1.00  0.00     0.000 C 
HETATM   36  C   UNL     1      41.400 -17.286   3.031  1.00  0.00     0.002 C 
HETATM   37  C   UNL     1      40.716 -17.245   1.675  1.00  0.00     0.025 C 
ENDBRANCH  29  32
ENDBRANCH  25  28
ENDBRANCH  22  24
ENDBRANCH   2  22
TORSDOF 8
ENDMDL
