MODEL 1
REMARK VINA RESULT:      -9.7      0.000      0.000
REMARK  5 active torsions:
REMARK  status: ('A' for Active; 'I' for Inactive)
REMARK    1  A    between atoms: C_2  and  N_3 
REMARK    2  A    between atoms: C_7  and  N_8 
REMARK       I    between atoms: N_8  and  C_9 
REMARK    3  A    between atoms: C_9  and  C_10 
REMARK    4  A    between atoms: C_10  and  C_11 
REMARK    5  A    between atoms: C_11  and  C_12 
ROOT
HETATM    1  C   UNL     1      39.530 -14.158  -1.430  1.00  0.00    -0.028 A 
HETATM    2  C   UNL     1      40.283 -15.209  -1.845  1.00  0.00     0.015 A 
HETATM    3  C   UNL     1      41.540 -15.734  -1.201  1.00  0.00     0.069 C 
HETATM    4  N   UNL     1      39.928 -15.901  -2.984  1.00  0.00    -0.326 N 
HETATM    5  C   UNL     1      38.855 -15.631  -3.785  1.00  0.00     0.266 A 
HETATM    6  O   UNL     1      38.615 -16.304  -4.781  1.00  0.00    -0.267 OA
HETATM    7  C   UNL     1      38.021 -14.485  -3.369  1.00  0.00     0.105 A 
HETATM    8  C   UNL     1      36.812 -14.163  -4.234  1.00  0.00     0.026 C 
HETATM    9  N   UNL     1      35.811 -13.896  -4.951  1.00  0.00    -0.096 N 
HETATM   10  C   UNL     1      38.335 -13.783  -2.255  1.00  0.00    -0.029 A 
HETATM   11  C   UNL     1      37.500 -12.596  -1.817  1.00  0.00     0.050 C 
HETATM   12  H   UNL     1      40.490 -16.684  -3.301  1.00  0.00     0.169 HD
ENDROOT
BRANCH   1  13
HETATM   13  C   UNL     1      39.770 -13.282  -0.193  1.00  0.00     0.050 C 
BRANCH  13  14
HETATM   14  C   UNL     1      39.097 -13.588   1.147  1.00  0.00     0.108 C 
BRANCH  14  15
HETATM   15  C   UNL     1      39.697 -14.820   1.806  1.00  0.00     0.222 C 
HETATM   16  N   UNL     1      41.039 -14.679   2.109  1.00  0.00    -0.327 N 
HETATM   17  H   UNL     1      41.492 -13.824   1.813  1.00  0.00     0.169 HD
HETATM   18  O   UNL     1      39.000 -15.809   2.013  1.00  0.00    -0.273 OA
BRANCH  16  19
HETATM   19  C   UNL     1      41.870 -15.606   2.777  1.00  0.00     0.035 A 
HETATM   20  C   UNL     1      42.161 -16.883   2.289  1.00  0.00     0.044 A 
HETATM   21  C   UNL     1      42.974 -17.767   3.038  1.00  0.00     0.005 A 
HETATM   22  C   UNL     1      43.494 -17.336   4.260  1.00  0.00     0.046 A 
HETATM   23  C   UNL     1      43.417 -19.111   2.829  1.00  0.00     0.003 A 
HETATM   24  N   UNL     1      44.242 -18.380   4.771  1.00  0.00    -0.346 N 
HETATM   25  C   UNL     1      43.227 -16.054   4.761  1.00  0.00     0.033 A 
HETATM   26  C   UNL     1      44.204 -19.473   3.923  1.00  0.00     0.046 A 
HETATM   27  C   UNL     1      44.796 -20.744   4.023  1.00  0.00     0.030 A 
HETATM   28  C   UNL     1      44.570 -21.662   2.993  1.00  0.00     0.002 A 
HETATM   29  C   UNL     1      43.786 -21.324   1.895  1.00  0.00     0.001 A 
HETATM   30  C   UNL     1      43.207 -20.054   1.801  1.00  0.00     0.014 A 
HETATM   31  C   UNL     1      42.403 -15.209   4.008  1.00  0.00     0.032 A 
BRANCH  24  32
HETATM   32  C   UNL     1      44.962 -18.345   6.034  1.00  0.00     0.125 C 
HETATM   33  C   UNL     1      44.087 -18.755   7.206  1.00  0.00     0.027 C 
ENDBRANCH  24  32
ENDBRANCH  16  19
ENDBRANCH  14  15
ENDBRANCH  13  14
ENDBRANCH   1  13
TORSDOF 5
ENDMDL
MODEL 2
REMARK VINA RESULT:      -9.7      5.898     10.044
REMARK  5 active torsions:
REMARK  status: ('A' for Active; 'I' for Inactive)
REMARK    1  A    between atoms: C_2  and  N_3 
REMARK    2  A    between atoms: C_7  and  N_8 
REMARK       I    between atoms: N_8  and  C_9 
REMARK    3  A    between atoms: C_9  and  C_10 
REMARK    4  A    between atoms: C_10  and  C_11 
REMARK    5  A    between atoms: C_11  and  C_12 
ROOT
HETATM    1  C   UNL     1      43.467 -11.050   9.218  1.00  0.00    -0.028 A 
HETATM    2  C   UNL     1      42.240 -10.713   8.741  1.00  0.00     0.015 A 
HETATM    3  C   UNL     1      41.703 -10.973   7.358  1.00  0.00     0.069 C 
HETATM    4  N   UNL     1      41.349 -10.039   9.551  1.00  0.00    -0.326 N 
HETATM    5  C   UNL     1      41.575  -9.647  10.840  1.00  0.00     0.266 A 
HETATM    6  O   UNL     1      40.721  -9.053  11.486  1.00  0.00    -0.267 OA
HETATM    7  C   UNL     1      42.905  -9.987  11.386  1.00  0.00     0.105 A 
HETATM    8  C   UNL     1      43.186  -9.573  12.822  1.00  0.00     0.026 C 
HETATM    9  N   UNL     1      43.418  -9.230  14.012  1.00  0.00    -0.096 N 
HETATM   10  C   UNL     1      43.806 -10.651  10.623  1.00  0.00    -0.029 A 
HETATM   11  C   UNL     1      45.180 -10.999  11.160  1.00  0.00     0.050 C 
HETATM   12  H   UNL     1      40.434  -9.781   9.198  1.00  0.00     0.169 HD
ENDROOT
BRANCH   1  13
HETATM   13  C   UNL     1      44.576 -11.799   8.467  1.00  0.00     0.050 C 
BRANCH  13  14
HETATM   14  C   UNL     1      44.728 -13.317   8.571  1.00  0.00     0.108 C 
BRANCH  14  15
HETATM   15  C   UNL     1      44.647 -13.983   7.205  1.00  0.00     0.222 C 
HETATM   16  N   UNL     1      43.635 -14.922   7.115  1.00  0.00    -0.327 N 
HETATM   17  H   UNL     1      43.108 -15.115   7.956  1.00  0.00     0.169 HD
HETATM   18  O   UNL     1      45.439 -13.672   6.321  1.00  0.00    -0.273 OA
BRANCH  16  19
HETATM   19  C   UNL     1      43.255 -15.667   5.976  1.00  0.00     0.035 A 
HETATM   20  C   UNL     1      43.773 -16.927   5.662  1.00  0.00     0.044 A 
HETATM   21  C   UNL     1      43.366 -17.592   4.480  1.00  0.00     0.005 A 
HETATM   22  C   UNL     1      42.430 -16.978   3.647  1.00  0.00     0.046 A 
HETATM   23  C   UNL     1      43.726 -18.841   3.883  1.00  0.00     0.003 A 
HETATM   24  N   UNL     1      42.215 -17.835   2.583  1.00  0.00    -0.346 N 
HETATM   25  C   UNL     1      41.887 -15.722   3.950  1.00  0.00     0.033 A 
HETATM   26  C   UNL     1      42.997 -18.970   2.699  1.00  0.00     0.046 A 
HETATM   27  C   UNL     1      43.123 -20.098   1.870  1.00  0.00     0.030 A 
HETATM   28  C   UNL     1      44.016 -21.104   2.252  1.00  0.00     0.002 A 
HETATM   29  C   UNL     1      44.755 -20.994   3.425  1.00  0.00     0.001 A 
HETATM   30  C   UNL     1      44.618 -19.872   4.248  1.00  0.00     0.014 A 
HETATM   31  C   UNL     1      42.323 -15.078   5.115  1.00  0.00     0.032 A 
BRANCH  24  32
HETATM   32  C   UNL     1      41.302 -17.576   1.480  1.00  0.00     0.125 C 
HETATM   33  C   UNL     1      41.892 -16.621   0.458  1.00  0.00     0.027 C 
ENDBRANCH  24  32
ENDBRANCH  16  19
ENDBRANCH  14  15
ENDBRANCH  13  14
ENDBRANCH   1  13
TORSDOF 5
ENDMDL
MODEL 3
REMARK VINA RESULT:      -9.3      3.062      3.871
REMARK  5 active torsions:
REMARK  status: ('A' for Active; 'I' for Inactive)
REMARK    1  A    between atoms: C_2  and  N_3 
REMARK    2  A    between atoms: C_7  and  N_8 
REMARK       I    between atoms: N_8  and  C_9 
REMARK    3  A    between atoms: C_9  and  C_10 
REMARK    4  A    between atoms: C_10  and  C_11 
REMARK    5  A    between atoms: C_11  and  C_12 
ROOT
HETATM    1  C   UNL     1      41.344 -12.487  -0.973  1.00  0.00    -0.028 A 
HETATM    2  C   UNL     1      41.997 -11.945   0.088  1.00  0.00     0.015 A 
HETATM    3  C   UNL     1      41.971 -12.434   1.513  1.00  0.00     0.069 C 
HETATM    4  N   UNL     1      42.764 -10.812  -0.083  1.00  0.00    -0.326 N 
HETATM    5  C   UNL     1      42.945 -10.136  -1.256  1.00  0.00     0.266 A 
HETATM    6  O   UNL     1      43.650  -9.135  -1.314  1.00  0.00    -0.267 OA
HETATM    7  C   UNL     1      42.239 -10.691  -2.429  1.00  0.00     0.105 A 
HETATM    8  C   UNL     1      42.428  -9.967  -3.753  1.00  0.00     0.026 C 
HETATM    9  N   UNL     1      42.584  -9.367  -4.849  1.00  0.00    -0.096 N 
HETATM   10  C   UNL     1      41.479 -11.804  -2.301  1.00  0.00    -0.029 A 
HETATM   11  C   UNL     1      40.736 -12.384  -3.489  1.00  0.00     0.050 C 
HETATM   12  H   UNL     1      43.249 -10.401   0.707  1.00  0.00     0.169 HD
ENDROOT
BRANCH   1  13
HETATM   13  C   UNL     1      40.456 -13.738  -0.970  1.00  0.00     0.050 C 
BRANCH  13  14
HETATM   14  C   UNL     1      41.047 -15.139  -1.137  1.00  0.00     0.108 C 
BRANCH  14  15
HETATM   15  C   UNL     1      41.226 -15.836   0.203  1.00  0.00     0.222 C 
HETATM   16  N   UNL     1      42.501 -16.336   0.393  1.00  0.00    -0.327 N 
HETATM   17  H   UNL     1      43.150 -16.251  -0.379  1.00  0.00     0.169 HD
HETATM   18  O   UNL     1      40.285 -15.913   0.987  1.00  0.00    -0.273 OA
BRANCH  16  19
HETATM   19  C   UNL     1      43.010 -16.976   1.545  1.00  0.00     0.035 A 
HETATM   20  C   UNL     1      43.319 -18.338   1.606  1.00  0.00     0.044 A 
HETATM   21  C   UNL     1      43.790 -18.910   2.812  1.00  0.00     0.005 A 
HETATM   22  C   UNL     1      43.956 -18.091   3.930  1.00  0.00     0.046 A 
HETATM   23  C   UNL     1      44.155 -20.240   3.191  1.00  0.00     0.003 A 
HETATM   24  N   UNL     1      44.423 -18.895   4.953  1.00  0.00    -0.346 N 
HETATM   25  C   UNL     1      43.666 -16.720   3.886  1.00  0.00     0.033 A 
HETATM   26  C   UNL     1      44.544 -20.207   4.532  1.00  0.00     0.046 A 
HETATM   27  C   UNL     1      44.964 -21.364   5.211  1.00  0.00     0.030 A 
HETATM   28  C   UNL     1      44.977 -22.574   4.511  1.00  0.00     0.002 A 
HETATM   29  C   UNL     1      44.590 -22.631   3.176  1.00  0.00     0.001 A 
HETATM   30  C   UNL     1      44.180 -21.474   2.507  1.00  0.00     0.014 A 
HETATM   31  C   UNL     1      43.182 -16.185   2.686  1.00  0.00     0.032 A 
BRANCH  24  32
HETATM   32  C   UNL     1      44.732 -18.433   6.297  1.00  0.00     0.125 C 
HETATM   33  C   UNL     1      43.491 -18.314   7.164  1.00  0.00     0.027 C 
ENDBRANCH  24  32
ENDBRANCH  16  19
ENDBRANCH  14  15
ENDBRANCH  13  14
ENDBRANCH   1  13
TORSDOF 5
ENDMDL
MODEL 4
REMARK VINA RESULT:      -8.9      3.373     10.011
REMARK  5 active torsions:
REMARK  status: ('A' for Active; 'I' for Inactive)
REMARK    1  A    between atoms: C_2  and  N_3 
REMARK    2  A    between atoms: C_7  and  N_8 
REMARK       I    between atoms: N_8  and  C_9 
REMARK    3  A    between atoms: C_9  and  C_10 
REMARK    4  A    between atoms: C_10  and  C_11 
REMARK    5  A    between atoms: C_11  and  C_12 
ROOT
HETATM    1  C   UNL     1      43.322 -17.948   2.838  1.00  0.00    -0.028 A 
HETATM    2  C   UNL     1      43.424 -17.015   3.820  1.00  0.00     0.015 A 
HETATM    3  C   UNL     1      43.053 -15.558   3.726  1.00  0.00     0.069 C 
HETATM    4  N   UNL     1      43.935 -17.367   5.052  1.00  0.00    -0.326 N 
HETATM    5  C   UNL     1      44.378 -18.608   5.411  1.00  0.00     0.266 A 
HETATM    6  O   UNL     1      44.815 -18.829   6.534  1.00  0.00    -0.267 OA
HETATM    7  C   UNL     1      44.292 -19.645   4.362  1.00  0.00     0.105 A 
HETATM    8  C   UNL     1      44.769 -21.040   4.733  1.00  0.00     0.026 C 
HETATM    9  N   UNL     1      45.163 -22.197   5.041  1.00  0.00    -0.096 N 
HETATM   10  C   UNL     1      43.794 -19.339   3.141  1.00  0.00    -0.029 A 
HETATM   11  C   UNL     1      43.709 -20.384   2.047  1.00  0.00     0.050 C 
HETATM   12  H   UNL     1      44.017 -16.673   5.786  1.00  0.00     0.169 HD
ENDROOT
BRANCH   1  13
HETATM   13  C   UNL     1      42.778 -17.739   1.418  1.00  0.00     0.050 C 
BRANCH  13  14
HETATM   14  C   UNL     1      41.291 -17.488   1.160  1.00  0.00     0.108 C 
BRANCH  14  15
HETATM   15  C   UNL     1      41.042 -16.079   0.643  1.00  0.00     0.222 C 
HETATM   16  N   UNL     1      41.541 -15.868  -0.630  1.00  0.00    -0.327 N 
HETATM   17  H   UNL     1      42.063 -16.626  -1.053  1.00  0.00     0.169 HD
HETATM   18  O   UNL     1      40.455 -15.260   1.344  1.00  0.00    -0.273 OA
BRANCH  16  19
HETATM   19  C   UNL     1      41.423 -14.701  -1.416  1.00  0.00     0.035 A 
HETATM   20  C   UNL     1      42.123 -13.518  -1.162  1.00  0.00     0.044 A 
HETATM   21  C   UNL     1      41.919 -12.378  -1.977  1.00  0.00     0.005 A 
HETATM   22  C   UNL     1      41.025 -12.461  -3.044  1.00  0.00     0.046 A 
HETATM   23  C   UNL     1      42.449 -11.049  -1.957  1.00  0.00     0.003 A 
HETATM   24  N   UNL     1      41.021 -11.225  -3.665  1.00  0.00    -0.346 N 
HETATM   25  C   UNL     1      40.323 -13.642  -3.326  1.00  0.00     0.033 A 
HETATM   26  C   UNL     1      41.872 -10.347  -3.017  1.00  0.00     0.046 A 
HETATM   27  C   UNL     1      42.185  -9.002  -3.274  1.00  0.00     0.030 A 
HETATM   28  C   UNL     1      43.095  -8.361  -2.427  1.00  0.00     0.002 A 
HETATM   29  C   UNL     1      43.679  -9.039  -1.363  1.00  0.00     0.001 A 
HETATM   30  C   UNL     1      43.366 -10.380  -1.119  1.00  0.00     0.014 A 
HETATM   31  C   UNL     1      40.529 -14.747  -2.491  1.00  0.00     0.032 A 
BRANCH  24  32
HETATM   32  C   UNL     1      40.222 -10.884  -4.831  1.00  0.00     0.125 C 
HETATM   33  C   UNL     1      38.804 -10.485  -4.460  1.00  0.00     0.027 C 
ENDBRANCH  24  32
ENDBRANCH  16  19
ENDBRANCH  14  15
ENDBRANCH  13  14
ENDBRANCH   1  13
TORSDOF 5
ENDMDL
MODEL 5
REMARK VINA RESULT:      -8.8      6.321     10.184
REMARK  5 active torsions:
REMARK  status: ('A' for Active; 'I' for Inactive)
REMARK    1  A    between atoms: C_2  and  N_3 
REMARK    2  A    between atoms: C_7  and  N_8 
REMARK       I    between atoms: N_8  and  C_9 
REMARK    3  A    between atoms: C_9  and  C_10 
REMARK    4  A    between atoms: C_10  and  C_11 
REMARK    5  A    between atoms: C_11  and  C_12 
ROOT
HETATM    1  C   UNL     1      43.052 -11.076  10.244  1.00  0.00    -0.028 A 
HETATM    2  C   UNL     1      43.299 -11.521  11.504  1.00  0.00     0.015 A 
HETATM    3  C   UNL     1      44.229 -12.636  11.904  1.00  0.00     0.069 C 
HETATM    4  N   UNL     1      42.643 -10.950  12.575  1.00  0.00    -0.326 N 
HETATM    5  C   UNL     1      41.724  -9.941  12.507  1.00  0.00     0.266 A 
HETATM    6  O   UNL     1      41.193  -9.493  13.516  1.00  0.00    -0.267 OA
HETATM    7  C   UNL     1      41.424  -9.441  11.150  1.00  0.00     0.105 A 
HETATM    8  C   UNL     1      40.411  -8.312  11.041  1.00  0.00     0.026 C 
HETATM    9  N   UNL     1      39.572  -7.376  10.951  1.00  0.00    -0.096 N 
HETATM   10  C   UNL     1      42.048  -9.975  10.074  1.00  0.00    -0.029 A 
HETATM   11  C   UNL     1      41.745  -9.485   8.671  1.00  0.00     0.050 C 
HETATM   12  H   UNL     1      42.820 -11.282  13.516  1.00  0.00     0.169 HD
ENDROOT
BRANCH   1  13
HETATM   13  C   UNL     1      43.687 -11.587   8.944  1.00  0.00     0.050 C 
BRANCH  13  14
HETATM   14  C   UNL     1      44.900 -12.519   8.958  1.00  0.00     0.108 C 
BRANCH  14  15
HETATM   15  C   UNL     1      45.015 -13.309   7.663  1.00  0.00     0.222 C 
HETATM   16  N   UNL     1      43.853 -13.980   7.327  1.00  0.00    -0.327 N 
HETATM   17  H   UNL     1      43.087 -13.936   7.987  1.00  0.00     0.169 HD
HETATM   18  O   UNL     1      46.068 -13.308   7.033  1.00  0.00    -0.273 OA
BRANCH  16  19
HETATM   19  C   UNL     1      43.609 -14.745   6.165  1.00  0.00     0.035 A 
HETATM   20  C   UNL     1      43.971 -16.089   6.028  1.00  0.00     0.044 A 
HETATM   21  C   UNL     1      43.723 -16.775   4.815  1.00  0.00     0.005 A 
HETATM   22  C   UNL     1      43.099 -16.095   3.768  1.00  0.00     0.046 A 
HETATM   23  C   UNL     1      43.994 -18.107   4.367  1.00  0.00     0.003 A 
HETATM   24  N   UNL     1      42.980 -16.990   2.721  1.00  0.00    -0.346 N 
HETATM   25  C   UNL     1      42.715 -14.752   3.889  1.00  0.00     0.033 A 
HETATM   26  C   UNL     1      43.524 -18.216   3.057  1.00  0.00     0.046 A 
HETATM   27  C   UNL     1      43.640 -19.411   2.325  1.00  0.00     0.030 A 
HETATM   28  C   UNL     1      44.255 -20.506   2.939  1.00  0.00     0.002 A 
HETATM   29  C   UNL     1      44.734 -20.418   4.241  1.00  0.00     0.001 A 
HETATM   30  C   UNL     1      44.608 -19.228   4.964  1.00  0.00     0.014 A 
HETATM   31  C   UNL     1      42.991 -14.093   5.094  1.00  0.00     0.032 A 
BRANCH  24  32
HETATM   32  C   UNL     1      42.378 -16.684   1.432  1.00  0.00     0.125 C 
HETATM   33  C   UNL     1      40.933 -17.143   1.350  1.00  0.00     0.027 C 
ENDBRANCH  24  32
ENDBRANCH  16  19
ENDBRANCH  14  15
ENDBRANCH  13  14
ENDBRANCH   1  13
TORSDOF 5
ENDMDL
MODEL 6
REMARK VINA RESULT:      -8.8      2.109      2.576
REMARK  5 active torsions:
REMARK  status: ('A' for Active; 'I' for Inactive)
REMARK    1  A    between atoms: C_2  and  N_3 
REMARK    2  A    between atoms: C_7  and  N_8 
REMARK       I    between atoms: N_8  and  C_9 
REMARK    3  A    between atoms: C_9  and  C_10 
REMARK    4  A    between atoms: C_10  and  C_11 
REMARK    5  A    between atoms: C_11  and  C_12 
ROOT
HETATM    1  C   UNL     1      40.708 -11.876  -1.276  1.00  0.00    -0.028 A 
HETATM    2  C   UNL     1      41.984 -12.189  -1.619  1.00  0.00     0.015 A 
HETATM    3  C   UNL     1      43.232 -11.426  -1.260  1.00  0.00     0.069 C 
HETATM    4  N   UNL     1      42.233 -13.300  -2.398  1.00  0.00    -0.326 N 
HETATM    5  C   UNL     1      41.292 -14.160  -2.892  1.00  0.00     0.266 A 
HETATM    6  O   UNL     1      41.607 -15.126  -3.576  1.00  0.00    -0.267 OA
HETATM    7  C   UNL     1      39.892 -13.840  -2.547  1.00  0.00     0.105 A 
HETATM    8  C   UNL     1      38.821 -14.783  -3.074  1.00  0.00     0.026 C 
HETATM    9  N   UNL     1      37.934 -15.564  -3.511  1.00  0.00    -0.096 N 
HETATM   10  C   UNL     1      39.608 -12.760  -1.782  1.00  0.00    -0.029 A 
HETATM   11  C   UNL     1      38.177 -12.407  -1.427  1.00  0.00     0.050 C 
HETATM   12  H   UNL     1      43.183 -13.536  -2.661  1.00  0.00     0.169 HD
ENDROOT
BRANCH   1  13
HETATM   13  C   UNL     1      40.248 -10.688  -0.418  1.00  0.00     0.050 C 
BRANCH  13  14
HETATM   14  C   UNL     1      40.691 -10.534   1.038  1.00  0.00     0.108 C 
BRANCH  14  15
HETATM   15  C   UNL     1      40.778 -11.880   1.742  1.00  0.00     0.222 C 
HETATM   16  N   UNL     1      42.058 -12.195   2.160  1.00  0.00    -0.327 N 
HETATM   17  H   UNL     1      42.798 -11.553   1.907  1.00  0.00     0.169 HD
HETATM   18  O   UNL     1      39.771 -12.567   1.885  1.00  0.00    -0.273 OA
BRANCH  16  19
HETATM   19  C   UNL     1      42.466 -13.331   2.894  1.00  0.00     0.035 A 
HETATM   20  C   UNL     1      42.701 -14.585   2.320  1.00  0.00     0.044 A 
HETATM   21  C   UNL     1      43.072 -15.683   3.132  1.00  0.00     0.005 A 
HETATM   22  C   UNL     1      43.216 -15.491   4.507  1.00  0.00     0.046 A 
HETATM   23  C   UNL     1      43.345 -17.060   2.856  1.00  0.00     0.003 A 
HETATM   24  N   UNL     1      43.581 -16.709   5.049  1.00  0.00    -0.346 N 
HETATM   25  C   UNL     1      43.000 -14.239   5.100  1.00  0.00     0.033 A 
HETATM   26  C   UNL     1      43.658 -17.681   4.067  1.00  0.00     0.046 A 
HETATM   27  C   UNL     1      43.978 -19.048   4.139  1.00  0.00     0.030 A 
HETATM   28  C   UNL     1      43.968 -19.793   2.956  1.00  0.00     0.002 A 
HETATM   29  C   UNL     1      43.655 -19.196   1.739  1.00  0.00     0.001 A 
HETATM   30  C   UNL     1      43.345 -17.834   1.676  1.00  0.00     0.014 A 
HETATM   31  C   UNL     1      42.614 -13.175   4.276  1.00  0.00     0.032 A 
BRANCH  24  32
HETATM   32  C   UNL     1      43.836 -16.947   6.461  1.00  0.00     0.125 C 
HETATM   33  C   UNL     1      42.588 -17.388   7.205  1.00  0.00     0.027 C 
ENDBRANCH  24  32
ENDBRANCH  16  19
ENDBRANCH  14  15
ENDBRANCH  13  14
ENDBRANCH   1  13
TORSDOF 5
ENDMDL
MODEL 7
REMARK VINA RESULT:      -8.8      2.665      4.915
REMARK  5 active torsions:
REMARK  status: ('A' for Active; 'I' for Inactive)
REMARK    1  A    between atoms: C_2  and  N_3 
REMARK    2  A    between atoms: C_7  and  N_8 
REMARK       I    between atoms: N_8  and  C_9 
REMARK    3  A    between atoms: C_9  and  C_10 
REMARK    4  A    between atoms: C_10  and  C_11 
REMARK    5  A    between atoms: C_11  and  C_12 
ROOT
HETATM    1  C   UNL     1      39.361 -12.176   1.295  1.00  0.00    -0.028 A 
HETATM    2  C   UNL     1      38.063 -11.808   1.447  1.00  0.00     0.015 A 
HETATM    3  C   UNL     1      36.961 -11.929   0.428  1.00  0.00     0.069 C 
HETATM    4  N   UNL     1      37.646 -11.233   2.630  1.00  0.00    -0.326 N 
HETATM    5  C   UNL     1      38.433 -10.975   3.717  1.00  0.00     0.266 A 
HETATM    6  O   UNL     1      37.973 -10.461   4.730  1.00  0.00    -0.267 OA
HETATM    7  C   UNL     1      39.854 -11.353   3.580  1.00  0.00     0.105 A 
HETATM    8  C   UNL     1      40.756 -11.087   4.776  1.00  0.00     0.026 C 
HETATM    9  N   UNL     1      41.502 -10.866   5.767  1.00  0.00    -0.096 N 
HETATM   10  C   UNL     1      40.300 -11.922   2.435  1.00  0.00    -0.029 A 
HETATM   11  C   UNL     1      41.757 -12.306   2.270  1.00  0.00     0.050 C 
HETATM   12  H   UNL     1      36.679 -10.951   2.747  1.00  0.00     0.169 HD
ENDROOT
BRANCH   1  13
HETATM   13  C   UNL     1      39.996 -12.829   0.060  1.00  0.00     0.050 C 
BRANCH  13  14
HETATM   14  C   UNL     1      39.775 -14.307  -0.268  1.00  0.00     0.108 C 
BRANCH  14  15
HETATM   15  C   UNL     1      40.104 -15.199   0.919  1.00  0.00     0.222 C 
HETATM   16  N   UNL     1      41.403 -15.675   0.901  1.00  0.00    -0.327 N 
HETATM   17  H   UNL     1      41.968 -15.445   0.093  1.00  0.00     0.169 HD
HETATM   18  O   UNL     1      39.250 -15.434   1.769  1.00  0.00    -0.273 OA
BRANCH  16  19
HETATM   19  C   UNL     1      42.040 -16.470   1.880  1.00  0.00     0.035 A 
HETATM   20  C   UNL     1      42.518 -17.762   1.643  1.00  0.00     0.044 A 
HETATM   21  C   UNL     1      43.111 -18.507   2.690  1.00  0.00     0.005 A 
HETATM   22  C   UNL     1      43.227 -17.925   3.953  1.00  0.00     0.046 A 
HETATM   23  C   UNL     1      43.655 -19.828   2.770  1.00  0.00     0.003 A 
HETATM   24  N   UNL     1      43.837 -18.857   4.773  1.00  0.00    -0.346 N 
HETATM   25  C   UNL     1      42.768 -16.625   4.209  1.00  0.00     0.033 A 
HETATM   26  C   UNL     1      44.099 -20.025   4.079  1.00  0.00     0.046 A 
HETATM   27  C   UNL     1      44.690 -21.233   4.487  1.00  0.00     0.030 A 
HETATM   28  C   UNL     1      44.820 -22.258   3.545  1.00  0.00     0.002 A 
HETATM   29  C   UNL     1      44.381 -22.085   2.237  1.00  0.00     0.001 A 
HETATM   30  C   UNL     1      43.801 -20.877   1.838  1.00  0.00     0.014 A 
HETATM   31  C   UNL     1      42.166 -15.919   3.160  1.00  0.00     0.032 A 
BRANCH  24  32
HETATM   32  C   UNL     1      44.149 -18.650   6.178  1.00  0.00     0.125 C 
HETATM   33  C   UNL     1      45.504 -17.992   6.375  1.00  0.00     0.027 C 
ENDBRANCH  24  32
ENDBRANCH  16  19
ENDBRANCH  14  15
ENDBRANCH  13  14
ENDBRANCH   1  13
TORSDOF 5
ENDMDL
MODEL 8
REMARK VINA RESULT:      -8.8      1.919      2.652
REMARK  5 active torsions:
REMARK  status: ('A' for Active; 'I' for Inactive)
REMARK    1  A    between atoms: C_2  and  N_3 
REMARK    2  A    between atoms: C_7  and  N_8 
REMARK       I    between atoms: N_8  and  C_9 
REMARK    3  A    between atoms: C_9  and  C_10 
REMARK    4  A    between atoms: C_10  and  C_11 
REMARK    5  A    between atoms: C_11  and  C_12 
ROOT
HETATM    1  C   UNL     1      39.168 -12.566   0.230  1.00  0.00    -0.028 A 
HETATM    2  C   UNL     1      38.399 -13.648  -0.060  1.00  0.00     0.015 A 
HETATM    3  C   UNL     1      37.331 -14.259   0.809  1.00  0.00     0.069 C 
HETATM    4  N   UNL     1      38.580 -14.321  -1.250  1.00  0.00    -0.326 N 
HETATM    5  C   UNL     1      39.495 -14.009  -2.216  1.00  0.00     0.266 A 
HETATM    6  O   UNL     1      39.583 -14.664  -3.247  1.00  0.00    -0.267 OA
HETATM    7  C   UNL     1      40.356 -12.844  -1.927  1.00  0.00     0.105 A 
HETATM    8  C   UNL     1      41.379 -12.465  -2.986  1.00  0.00     0.026 C 
HETATM    9  N   UNL     1      42.227 -12.151  -3.864  1.00  0.00    -0.096 N 
HETATM   10  C   UNL     1      40.207 -12.157  -0.770  1.00  0.00    -0.029 A 
HETATM   11  C   UNL     1      41.088 -10.966  -0.449  1.00  0.00     0.050 C 
HETATM   12  H   UNL     1      38.012 -15.132  -1.469  1.00  0.00     0.169 HD
ENDROOT
BRANCH   1  13
HETATM   13  C   UNL     1      39.103 -11.700   1.495  1.00  0.00     0.050 C 
BRANCH  13  14
HETATM   14  C   UNL     1      39.105 -12.323   2.893  1.00  0.00     0.108 C 
BRANCH  14  15
HETATM   15  C   UNL     1      40.408 -13.054   3.178  1.00  0.00     0.222 C 
HETATM   16  N   UNL     1      40.230 -14.238   3.872  1.00  0.00    -0.327 N 
HETATM   17  H   UNL     1      39.289 -14.461   4.170  1.00  0.00     0.169 HD
HETATM   18  O   UNL     1      41.476 -12.578   2.805  1.00  0.00    -0.273 OA
BRANCH  16  19
HETATM   19  C   UNL     1      41.221 -15.176   4.235  1.00  0.00     0.035 A 
HETATM   20  C   UNL     1      41.579 -16.274   3.447  1.00  0.00     0.044 A 
HETATM   21  C   UNL     1      42.557 -17.191   3.902  1.00  0.00     0.005 A 
HETATM   22  C   UNL     1      43.169 -16.971   5.137  1.00  0.00     0.046 A 
HETATM   23  C   UNL     1      43.105 -18.395   3.355  1.00  0.00     0.003 A 
HETATM   24  N   UNL     1      44.072 -18.000   5.329  1.00  0.00    -0.346 N 
HETATM   25  C   UNL     1      42.835 -15.869   5.936  1.00  0.00     0.033 A 
HETATM   26  C   UNL     1      44.045 -18.883   4.265  1.00  0.00     0.046 A 
HETATM   27  C   UNL     1      44.768 -20.064   4.021  1.00  0.00     0.030 A 
HETATM   28  C   UNL     1      44.517 -20.760   2.835  1.00  0.00     0.002 A 
HETATM   29  C   UNL     1      43.582 -20.295   1.918  1.00  0.00     0.001 A 
HETATM   30  C   UNL     1      42.873 -19.115   2.165  1.00  0.00     0.014 A 
HETATM   31  C   UNL     1      41.849 -14.990   5.471  1.00  0.00     0.032 A 
BRANCH  24  32
HETATM   32  C   UNL     1      44.925 -18.148   6.497  1.00  0.00     0.125 C 
HETATM   33  C   UNL     1      44.225 -18.876   7.632  1.00  0.00     0.027 C 
ENDBRANCH  24  32
ENDBRANCH  16  19
ENDBRANCH  14  15
ENDBRANCH  13  14
ENDBRANCH   1  13
TORSDOF 5
ENDMDL
MODEL 9
REMARK VINA RESULT:      -8.7      2.633      9.275
REMARK  5 active torsions:
REMARK  status: ('A' for Active; 'I' for Inactive)
REMARK    1  A    between atoms: C_2  and  N_3 
REMARK    2  A    between atoms: C_7  and  N_8 
REMARK       I    between atoms: N_8  and  C_9 
REMARK    3  A    between atoms: C_9  and  C_10 
REMARK    4  A    between atoms: C_10  and  C_11 
REMARK    5  A    between atoms: C_11  and  C_12 
ROOT
HETATM    1  C   UNL     1      43.725 -18.422   5.033  1.00  0.00    -0.028 A 
HETATM    2  C   UNL     1      44.071 -19.051   6.186  1.00  0.00     0.015 A 
HETATM    3  C   UNL     1      44.038 -18.475   7.577  1.00  0.00     0.069 C 
HETATM    4  N   UNL     1      44.531 -20.351   6.148  1.00  0.00    -0.326 N 
HETATM    5  C   UNL     1      44.691 -21.112   5.025  1.00  0.00     0.266 A 
HETATM    6  O   UNL     1      45.105 -22.264   5.088  1.00  0.00    -0.267 OA
HETATM    7  C   UNL     1      44.336 -20.454   3.751  1.00  0.00     0.105 A 
HETATM    8  C   UNL     1      44.495 -21.277   2.483  1.00  0.00     0.026 C 
HETATM    9  N   UNL     1      44.626 -21.960   1.432  1.00  0.00    -0.096 N 
HETATM   10  C   UNL     1      43.878 -19.179   3.748  1.00  0.00    -0.029 A 
HETATM   11  C   UNL     1      43.520 -18.481   2.451  1.00  0.00     0.050 C 
HETATM   12  H   UNL     1      44.794 -20.824   7.005  1.00  0.00     0.169 HD
ENDROOT
BRANCH   1  13
HETATM   13  C   UNL     1      43.194 -16.989   4.886  1.00  0.00     0.050 C 
BRANCH  13  14
HETATM   14  C   UNL     1      41.699 -16.677   4.974  1.00  0.00     0.108 C 
BRANCH  14  15
HETATM   15  C   UNL     1      41.298 -15.580   3.999  1.00  0.00     0.222 C 
HETATM   16  N   UNL     1      40.791 -16.066   2.808  1.00  0.00    -0.327 N 
HETATM   17  H   UNL     1      40.798 -17.070   2.678  1.00  0.00     0.169 HD
HETATM   18  O   UNL     1      41.443 -14.401   4.306  1.00  0.00    -0.273 OA
BRANCH  16  19
HETATM   19  C   UNL     1      40.274 -15.319   1.726  1.00  0.00     0.035 A 
HETATM   20  C   UNL     1      41.056 -14.823   0.679  1.00  0.00     0.044 A 
HETATM   21  C   UNL     1      40.464 -14.050  -0.349  1.00  0.00     0.005 A 
HETATM   22  C   UNL     1      39.091 -13.807  -0.309  1.00  0.00     0.046 A 
HETATM   23  C   UNL     1      40.986 -13.395  -1.509  1.00  0.00     0.003 A 
HETATM   24  N   UNL     1      38.783 -13.041  -1.418  1.00  0.00    -0.346 N 
HETATM   25  C   UNL     1      38.286 -14.307   0.725  1.00  0.00     0.033 A 
HETATM   26  C   UNL     1      39.919 -12.770  -2.159  1.00  0.00     0.046 A 
HETATM   27  C   UNL     1      40.100 -12.035  -3.343  1.00  0.00     0.030 A 
HETATM   28  C   UNL     1      41.393 -11.928  -3.864  1.00  0.00     0.002 A 
HETATM   29  C   UNL     1      42.471 -12.538  -3.232  1.00  0.00     0.001 A 
HETATM   30  C   UNL     1      42.280 -13.274  -2.058  1.00  0.00     0.014 A 
HETATM   31  C   UNL     1      38.901 -15.052   1.739  1.00  0.00     0.032 A 
BRANCH  24  32
HETATM   32  C   UNL     1      37.450 -12.569  -1.757  1.00  0.00     0.125 C 
HETATM   33  C   UNL     1      37.164 -11.193  -1.182  1.00  0.00     0.027 C 
ENDBRANCH  24  32
ENDBRANCH  16  19
ENDBRANCH  14  15
ENDBRANCH  13  14
ENDBRANCH   1  13
TORSDOF 5
ENDMDL
MODEL 10
REMARK VINA RESULT:      -8.6      1.366      2.285
REMARK  5 active torsions:
REMARK  status: ('A' for Active; 'I' for Inactive)
REMARK    1  A    between atoms: C_2  and  N_3 
REMARK    2  A    between atoms: C_7  and  N_8 
REMARK       I    between atoms: N_8  and  C_9 
REMARK    3  A    between atoms: C_9  and  C_10 
REMARK    4  A    between atoms: C_10  and  C_11 
REMARK    5  A    between atoms: C_11  and  C_12 
ROOT
HETATM    1  C   UNL     1      38.921 -12.657  -1.181  1.00  0.00    -0.028 A 
HETATM    2  C   UNL     1      37.829 -11.921  -1.516  1.00  0.00     0.015 A 
HETATM    3  C   UNL     1      37.318 -10.688  -0.816  1.00  0.00     0.069 C 
HETATM    4  N   UNL     1      37.047 -12.300  -2.587  1.00  0.00    -0.326 N 
HETATM    5  C   UNL     1      37.254 -13.390  -3.384  1.00  0.00     0.266 A 
HETATM    6  O   UNL     1      36.505 -13.648  -4.319  1.00  0.00    -0.267 OA
HETATM    7  C   UNL     1      38.427 -14.219  -3.040  1.00  0.00     0.105 A 
HETATM    8  C   UNL     1      38.691 -15.435  -3.914  1.00  0.00     0.026 C 
HETATM    9  N   UNL     1      38.909 -16.443  -4.639  1.00  0.00    -0.096 N 
HETATM   10  C   UNL     1      39.220 -13.878  -1.997  1.00  0.00    -0.029 A 
HETATM   11  C   UNL     1      40.421 -14.722  -1.619  1.00  0.00     0.050 C 
HETATM   12  H   UNL     1      36.229 -11.757  -2.838  1.00  0.00     0.169 HD
ENDROOT
BRANCH   1  13
HETATM   13  C   UNL     1      39.900 -12.384  -0.031  1.00  0.00     0.050 C 
BRANCH  13  14
HETATM   14  C   UNL     1      39.669 -12.953   1.370  1.00  0.00     0.108 C 
BRANCH  14  15
HETATM   15  C   UNL     1      40.915 -13.639   1.909  1.00  0.00     0.222 C 
HETATM   16  N   UNL     1      40.641 -14.809   2.594  1.00  0.00    -0.327 N 
HETATM   17  H   UNL     1      39.667 -15.052   2.723  1.00  0.00     0.169 HD
HETATM   18  O   UNL     1      42.021 -13.143   1.721  1.00  0.00    -0.273 OA
BRANCH  16  19
HETATM   19  C   UNL     1      41.571 -15.711   3.159  1.00  0.00     0.035 A 
HETATM   20  C   UNL     1      41.903 -16.944   2.590  1.00  0.00     0.044 A 
HETATM   21  C   UNL     1      42.818 -17.806   3.240  1.00  0.00     0.005 A 
HETATM   22  C   UNL     1      43.393 -17.399   4.444  1.00  0.00     0.046 A 
HETATM   23  C   UNL     1      43.325 -19.109   2.936  1.00  0.00     0.003 A 
HETATM   24  N   UNL     1      44.237 -18.416   4.852  1.00  0.00    -0.346 N 
HETATM   25  C   UNL     1      43.085 -16.161   5.024  1.00  0.00     0.033 A 
HETATM   26  C   UNL     1      44.207 -19.469   3.957  1.00  0.00     0.046 A 
HETATM   27  C   UNL     1      44.879 -20.704   3.955  1.00  0.00     0.030 A 
HETATM   28  C   UNL     1      44.639 -21.586   2.898  1.00  0.00     0.002 A 
HETATM   29  C   UNL     1      43.762 -21.250   1.872  1.00  0.00     0.001 A 
HETATM   30  C   UNL     1      43.102 -20.017   1.879  1.00  0.00     0.014 A 
HETATM   31  C   UNL     1      42.162 -15.336   4.370  1.00  0.00     0.032 A 
BRANCH  24  32
HETATM   32  C   UNL     1      45.039 -18.392   6.066  1.00  0.00     0.125 C 
HETATM   33  C   UNL     1      44.273 -18.909   7.271  1.00  0.00     0.027 C 
ENDBRANCH  24  32
ENDBRANCH  16  19
ENDBRANCH  14  15
ENDBRANCH  13  14
ENDBRANCH   1  13
TORSDOF 5
ENDMDL
