MODEL 1
REMARK VINA RESULT:      -8.0      0.000      0.000
REMARK  10 active torsions:
REMARK  status: ('A' for Active; 'I' for Inactive)
REMARK    1  A    between atoms: C_2  and  O_3 
REMARK    2  A    between atoms: O_3  and  C_4 
REMARK    3  A    between atoms: C_7  and  C_8 
REMARK    4  A    between atoms: C_8  and  C_9 
REMARK    5  A    between atoms: C_10  and  C_11 
REMARK    6  A    between atoms: C_13  and  N_14 
REMARK    7  A    between atoms: N_20  and  C_21 
REMARK    8  A    between atoms: C_21  and  C_22 
REMARK    9  A    between atoms: C_22  and  N_23 
REMARK   10  A    between atoms: C_34  and  O_35 
ROOT
HETATM    1  C   UNL     1      41.178 -13.493   2.625  1.00  0.00     0.059 C 
HETATM    2  C   UNL     1      40.450 -13.955   3.848  1.00  0.00     0.161 C 
HETATM    3  N   UNL     1      39.982 -12.679   4.391  1.00  0.00    -0.332 N 
HETATM    4  C   UNL     1      40.557 -11.614   3.731  1.00  0.00     0.278 C 
HETATM    5  O   UNL     1      40.437 -10.445   4.055  1.00  0.00    -0.265 OA
HETATM    6  C   UNL     1      41.269 -12.155   2.559  1.00  0.00     0.146 C 
ENDROOT
BRANCH   1   7
HETATM    7  C   UNL     1      41.823 -14.315   1.583  1.00  0.00     0.193 C 
HETATM    8  O   UNL     1      42.051 -13.808   0.485  1.00  0.00    -0.287 OA
BRANCH   7   9
HETATM    9  C   UNL     1      42.251 -15.707   1.841  1.00  0.00     0.015 A 
HETATM   10  C   UNL     1      43.480 -16.033   2.421  1.00  0.00     0.018 A 
HETATM   11  C   UNL     1      43.811 -17.376   2.666  1.00  0.00     0.038 A 
HETATM   12  C   UNL     1      42.897 -18.389   2.381  1.00  0.00     0.069 A 
HETATM   13  C   UNL     1      41.661 -18.053   1.823  1.00  0.00     0.038 A 
HETATM   14  C   UNL     1      41.334 -16.722   1.557  1.00  0.00     0.018 A 
BRANCH  12  15
HETATM   15  O   UNL     1      43.056 -19.724   2.602  1.00  0.00    -0.347 OA
BRANCH  15  16
HETATM   16  C   UNL     1      44.339 -20.338   2.456  1.00  0.00     0.120 C 
HETATM   17  C   UNL     1      44.164 -21.669   1.733  1.00  0.00     0.040 C 
HETATM   18  C   UNL     1      44.892 -20.561   3.862  1.00  0.00     0.040 C 
ENDBRANCH  15  16
ENDBRANCH  12  15
ENDBRANCH   7   9
ENDBRANCH   1   7
BRANCH   2  19
HETATM   19  C   UNL     1      41.287 -14.727   4.850  1.00  0.00    -0.028 A 
HETATM   20  C   UNL     1      42.449 -14.136   5.375  1.00  0.00     0.045 A 
HETATM   21  C   UNL     1      43.252 -14.833   6.294  1.00  0.00     0.103 A 
HETATM   22  C   UNL     1      42.905 -16.120   6.711  1.00  0.00     0.036 A 
HETATM   23  C   UNL     1      41.755 -16.714   6.194  1.00  0.00     0.003 A 
HETATM   24  C   UNL     1      40.960 -16.031   5.265  1.00  0.00     0.010 A 
BRANCH  21  25
HETATM   25  N   UNL     1      44.487 -14.209   6.787  1.00  0.00    -0.116 N 
HETATM   26  O   UNL     1      44.646 -14.176   8.016  1.00  0.00    -0.532 OA
HETATM   27  O   UNL     1      45.263 -13.725   5.956  1.00  0.00    -0.532 OA
ENDBRANCH  21  25
ENDBRANCH   2  19
BRANCH   6  28
HETATM   28  O   UNL     1      41.880 -11.371   1.626  1.00  0.00    -0.355 OA
HETATM   29  H   UNL     1      41.174 -10.968   1.067  1.00  0.00     0.218 HD
ENDBRANCH   6  28
BRANCH   3  30
HETATM   30  C   UNL     1      39.188 -12.548   5.606  1.00  0.00     0.155 C 
BRANCH  30  31
HETATM   31  C   UNL     1      40.044 -12.270   6.875  1.00  0.00     0.254 C 
BRANCH  31  32
HETATM   32  N   UNL     1      40.102 -10.783   7.259  1.00  0.00    -0.066 N 
HETATM   33  H   UNL     1      39.639 -10.293   6.475  1.00  0.00     0.280 HD
HETATM   34  C   UNL     1      41.535 -10.233   7.300  1.00  0.00     0.262 C 
HETATM   35  C   UNL     1      42.264 -10.577   8.623  1.00  0.00     0.260 C 
HETATM   36  N   UNL     1      41.458 -10.139   9.817  1.00  0.00    -0.072 N 
HETATM   37  H   UNL     1      41.430  -9.111   9.901  1.00  0.00     0.277 HD
HETATM   38  H   UNL     1      41.940 -10.450  10.679  1.00  0.00     0.277 HD
HETATM   39  C   UNL     1      40.062 -10.720   9.836  1.00  0.00     0.260 C 
HETATM   40  C   UNL     1      39.308 -10.396   8.520  1.00  0.00     0.262 C 
ENDBRANCH  31  32
ENDBRANCH  30  31
ENDBRANCH   3  30
TORSDOF 10
ENDMDL
MODEL 2
REMARK VINA RESULT:      -8.0      1.705      2.290
REMARK  10 active torsions:
REMARK  status: ('A' for Active; 'I' for Inactive)
REMARK    1  A    between atoms: C_2  and  O_3 
REMARK    2  A    between atoms: O_3  and  C_4 
REMARK    3  A    between atoms: C_7  and  C_8 
REMARK    4  A    between atoms: C_8  and  C_9 
REMARK    5  A    between atoms: C_10  and  C_11 
REMARK    6  A    between atoms: C_13  and  N_14 
REMARK    7  A    between atoms: N_20  and  C_21 
REMARK    8  A    between atoms: C_21  and  C_22 
REMARK    9  A    between atoms: C_22  and  N_23 
REMARK   10  A    between atoms: C_34  and  O_35 
ROOT
HETATM    1  C   UNL     1      39.837 -14.212   3.421  1.00  0.00     0.059 C 
HETATM    2  C   UNL     1      40.000 -14.297   4.906  1.00  0.00     0.161 C 
HETATM    3  N   UNL     1      39.535 -12.971   5.313  1.00  0.00    -0.332 N 
HETATM    4  C   UNL     1      39.363 -12.145   4.223  1.00  0.00     0.278 C 
HETATM    5  O   UNL     1      39.099 -10.957   4.282  1.00  0.00    -0.265 OA
HETATM    6  C   UNL     1      39.497 -12.978   3.014  1.00  0.00     0.146 C 
ENDROOT
BRANCH   1   7
HETATM    7  C   UNL     1      40.062 -15.270   2.417  1.00  0.00     0.193 C 
HETATM    8  O   UNL     1      39.253 -15.397   1.499  1.00  0.00    -0.287 OA
BRANCH   7   9
HETATM    9  C   UNL     1      41.258 -16.139   2.454  1.00  0.00     0.015 A 
HETATM   10  C   UNL     1      42.500 -15.752   1.940  1.00  0.00     0.018 A 
HETATM   11  C   UNL     1      43.603 -16.615   2.035  1.00  0.00     0.038 A 
HETATM   12  C   UNL     1      43.483 -17.842   2.687  1.00  0.00     0.069 A 
HETATM   13  C   UNL     1      42.245 -18.211   3.218  1.00  0.00     0.038 A 
HETATM   14  C   UNL     1      41.138 -17.367   3.109  1.00  0.00     0.018 A 
BRANCH  12  15
HETATM   15  O   UNL     1      44.467 -18.761   2.896  1.00  0.00    -0.347 OA
BRANCH  15  16
HETATM   16  C   UNL     1      44.165 -20.030   3.481  1.00  0.00     0.120 C 
HETATM   17  C   UNL     1      45.081 -20.245   4.681  1.00  0.00     0.040 C 
HETATM   18  C   UNL     1      44.424 -21.089   2.412  1.00  0.00     0.040 C 
ENDBRANCH  15  16
ENDBRANCH  12  15
ENDBRANCH   7   9
ENDBRANCH   1   7
BRANCH   2  19
HETATM   19  C   UNL     1      41.410 -14.580   5.390  1.00  0.00    -0.028 A 
HETATM   20  C   UNL     1      41.639 -15.681   6.233  1.00  0.00     0.045 A 
HETATM   21  C   UNL     1      42.932 -15.959   6.708  1.00  0.00     0.103 A 
HETATM   22  C   UNL     1      44.014 -15.155   6.344  1.00  0.00     0.036 A 
HETATM   23  C   UNL     1      43.794 -14.060   5.509  1.00  0.00     0.003 A 
HETATM   24  C   UNL     1      42.506 -13.768   5.046  1.00  0.00     0.010 A 
BRANCH  21  25
HETATM   25  N   UNL     1      43.132 -17.087   7.628  1.00  0.00    -0.116 N 
HETATM   26  O   UNL     1      42.828 -18.213   7.208  1.00  0.00    -0.532 OA
HETATM   27  O   UNL     1      43.551 -16.840   8.764  1.00  0.00    -0.532 OA
ENDBRANCH  21  25
ENDBRANCH   2  19
BRANCH   6  28
HETATM   28  O   UNL     1      39.295 -12.506   1.752  1.00  0.00    -0.355 OA
HETATM   29  H   UNL     1      39.935 -12.963   1.157  1.00  0.00     0.218 HD
ENDBRANCH   6  28
BRANCH   3  30
HETATM   30  C   UNL     1      39.472 -12.513   6.695  1.00  0.00     0.155 C 
BRANCH  30  31
HETATM   31  C   UNL     1      40.536 -11.430   7.035  1.00  0.00     0.254 C 
BRANCH  31  32
HETATM   32  N   UNL     1      40.748 -11.234   8.545  1.00  0.00    -0.066 N 
HETATM   33  H   UNL     1      41.222 -12.098   8.856  1.00  0.00     0.280 HD
HETATM   34  C   UNL     1      39.429 -11.182   9.330  1.00  0.00     0.262 C 
HETATM   35  C   UNL     1      38.758  -9.787   9.268  1.00  0.00     0.260 C 
HETATM   36  N   UNL     1      39.714  -8.705   9.698  1.00  0.00    -0.072 N 
HETATM   37  H   UNL     1      39.912  -8.752  10.710  1.00  0.00     0.277 HD
HETATM   38  H   UNL     1      39.255  -7.785   9.575  1.00  0.00     0.277 HD
HETATM   39  C   UNL     1      40.995  -8.692   8.896  1.00  0.00     0.260 C 
HETATM   40  C   UNL     1      41.688 -10.079   8.934  1.00  0.00     0.262 C 
ENDBRANCH  31  32
ENDBRANCH  30  31
ENDBRANCH   3  30
TORSDOF 10
ENDMDL
MODEL 3
REMARK VINA RESULT:      -7.8      2.648      7.584
REMARK  10 active torsions:
REMARK  status: ('A' for Active; 'I' for Inactive)
REMARK    1  A    between atoms: C_2  and  O_3 
REMARK    2  A    between atoms: O_3  and  C_4 
REMARK    3  A    between atoms: C_7  and  C_8 
REMARK    4  A    between atoms: C_8  and  C_9 
REMARK    5  A    between atoms: C_10  and  C_11 
REMARK    6  A    between atoms: C_13  and  N_14 
REMARK    7  A    between atoms: N_20  and  C_21 
REMARK    8  A    between atoms: C_21  and  C_22 
REMARK    9  A    between atoms: C_22  and  N_23 
REMARK   10  A    between atoms: C_34  and  O_35 
ROOT
HETATM    1  C   UNL     1      40.591 -14.514   2.510  1.00  0.00     0.059 C 
HETATM    2  C   UNL     1      42.073 -14.720   2.532  1.00  0.00     0.161 C 
HETATM    3  N   UNL     1      42.186 -16.000   1.834  1.00  0.00    -0.332 N 
HETATM    4  C   UNL     1      40.948 -16.581   1.651  1.00  0.00     0.278 C 
HETATM    5  O   UNL     1      40.762 -17.700   1.207  1.00  0.00    -0.265 OA
HETATM    6  C   UNL     1      39.934 -15.582   2.032  1.00  0.00     0.146 C 
ENDROOT
BRANCH   1   7
HETATM    7  C   UNL     1      39.826 -13.348   2.993  1.00  0.00     0.193 C 
HETATM    8  O   UNL     1      38.862 -12.958   2.335  1.00  0.00    -0.287 OA
BRANCH   7   9
HETATM    9  C   UNL     1      40.151 -12.675   4.270  1.00  0.00     0.015 A 
HETATM   10  C   UNL     1      40.915 -11.508   4.346  1.00  0.00     0.018 A 
HETATM   11  C   UNL     1      41.160 -10.904   5.590  1.00  0.00     0.038 A 
HETATM   12  C   UNL     1      40.602 -11.435   6.752  1.00  0.00     0.069 A 
HETATM   13  C   UNL     1      39.820 -12.590   6.665  1.00  0.00     0.038 A 
HETATM   14  C   UNL     1      39.590 -13.207   5.434  1.00  0.00     0.018 A 
BRANCH  12  15
HETATM   15  O   UNL     1      40.713 -10.941   8.017  1.00  0.00    -0.347 OA
BRANCH  15  16
HETATM   16  C   UNL     1      39.584 -10.927   8.894  1.00  0.00     0.120 C 
HETATM   17  C   UNL     1      38.853  -9.600   8.728  1.00  0.00     0.040 C 
HETATM   18  C   UNL     1      40.121 -11.068  10.317  1.00  0.00     0.040 C 
ENDBRANCH  15  16
ENDBRANCH  12  15
ENDBRANCH   7   9
ENDBRANCH   1   7
BRANCH   2  19
HETATM   19  C   UNL     1      42.703 -14.767   3.913  1.00  0.00    -0.028 A 
HETATM   20  C   UNL     1      42.240 -15.710   4.846  1.00  0.00     0.045 A 
HETATM   21  C   UNL     1      42.794 -15.768   6.136  1.00  0.00     0.103 A 
HETATM   22  C   UNL     1      43.820 -14.897   6.512  1.00  0.00     0.036 A 
HETATM   23  C   UNL     1      44.282 -13.957   5.591  1.00  0.00     0.003 A 
HETATM   24  C   UNL     1      43.723 -13.884   4.310  1.00  0.00     0.010 A 
BRANCH  21  25
HETATM   25  N   UNL     1      42.257 -16.730   7.107  1.00  0.00    -0.116 N 
HETATM   26  O   UNL     1      41.084 -17.098   6.941  1.00  0.00    -0.532 OA
HETATM   27  O   UNL     1      42.986 -17.079   8.041  1.00  0.00    -0.532 OA
ENDBRANCH  21  25
ENDBRANCH   2  19
BRANCH   6  28
HETATM   28  O   UNL     1      38.593 -15.784   1.890  1.00  0.00    -0.355 OA
HETATM   29  H   UNL     1      38.166 -15.564   2.752  1.00  0.00     0.218 HD
ENDBRANCH   6  28
BRANCH   3  30
HETATM   30  C   UNL     1      43.447 -16.678   1.563  1.00  0.00     0.155 C 
BRANCH  30  31
HETATM   31  C   UNL     1      43.992 -17.480   2.781  1.00  0.00     0.254 C 
BRANCH  31  32
HETATM   32  N   UNL     1      43.169 -18.738   3.100  1.00  0.00    -0.066 N 
HETATM   33  H   UNL     1      42.188 -18.456   2.941  1.00  0.00     0.280 HD
HETATM   34  C   UNL     1      43.247 -19.143   4.579  1.00  0.00     0.262 C 
HETATM   35  C   UNL     1      44.538 -19.933   4.909  1.00  0.00     0.260 C 
HETATM   36  N   UNL     1      44.701 -21.116   3.991  1.00  0.00    -0.072 N 
HETATM   37  H   UNL     1      44.001 -21.848   4.186  1.00  0.00     0.277 HD
HETATM   38  H   UNL     1      45.607 -21.574   4.194  1.00  0.00     0.277 HD
HETATM   39  C   UNL     1      44.694 -20.737   2.527  1.00  0.00     0.260 C 
HETATM   40  C   UNL     1      43.415 -19.939   2.167  1.00  0.00     0.262 C 
ENDBRANCH  31  32
ENDBRANCH  30  31
ENDBRANCH   3  30
TORSDOF 10
ENDMDL
MODEL 4
REMARK VINA RESULT:      -7.8      2.173      2.961
REMARK  10 active torsions:
REMARK  status: ('A' for Active; 'I' for Inactive)
REMARK    1  A    between atoms: C_2  and  O_3 
REMARK    2  A    between atoms: O_3  and  C_4 
REMARK    3  A    between atoms: C_7  and  C_8 
REMARK    4  A    between atoms: C_8  and  C_9 
REMARK    5  A    between atoms: C_10  and  C_11 
REMARK    6  A    between atoms: C_13  and  N_14 
REMARK    7  A    between atoms: N_20  and  C_21 
REMARK    8  A    between atoms: C_21  and  C_22 
REMARK    9  A    between atoms: C_22  and  N_23 
REMARK   10  A    between atoms: C_34  and  O_35 
ROOT
HETATM    1  C   UNL     1      41.497 -14.475   0.349  1.00  0.00     0.059 C 
HETATM    2  C   UNL     1      41.049 -13.883   1.649  1.00  0.00     0.161 C 
HETATM    3  N   UNL     1      41.082 -12.456   1.329  1.00  0.00    -0.332 N 
HETATM    4  C   UNL     1      41.693 -12.229   0.114  1.00  0.00     0.278 C 
HETATM    5  O   UNL     1      41.961 -11.129  -0.338  1.00  0.00    -0.265 OA
HETATM    6  C   UNL     1      41.893 -13.540  -0.529  1.00  0.00     0.146 C 
ENDROOT
BRANCH   1   7
HETATM    7  C   UNL     1      41.600 -15.902  -0.015  1.00  0.00     0.193 C 
HETATM    8  O   UNL     1      41.171 -16.267  -1.109  1.00  0.00    -0.287 OA
BRANCH   7   9
HETATM    9  C   UNL     1      42.254 -16.888   0.872  1.00  0.00     0.015 A 
HETATM   10  C   UNL     1      43.639 -16.959   1.047  1.00  0.00     0.018 A 
HETATM   11  C   UNL     1      44.192 -17.901   1.929  1.00  0.00     0.038 A 
HETATM   12  C   UNL     1      43.363 -18.738   2.675  1.00  0.00     0.069 A 
HETATM   13  C   UNL     1      41.979 -18.646   2.512  1.00  0.00     0.038 A 
HETATM   14  C   UNL     1      41.423 -17.726   1.621  1.00  0.00     0.018 A 
BRANCH  12  15
HETATM   15  O   UNL     1      43.748 -19.665   3.596  1.00  0.00    -0.347 OA
BRANCH  15  16
HETATM   16  C   UNL     1      44.728 -20.654   3.268  1.00  0.00     0.120 C 
HETATM   17  C   UNL     1      44.163 -21.561   2.181  1.00  0.00     0.040 C 
HETATM   18  C   UNL     1      45.005 -21.450   4.541  1.00  0.00     0.040 C 
ENDBRANCH  15  16
ENDBRANCH  12  15
ENDBRANCH   7   9
ENDBRANCH   1   7
BRANCH   2  19
HETATM   19  C   UNL     1      41.915 -14.218   2.849  1.00  0.00    -0.028 A 
HETATM   20  C   UNL     1      41.371 -14.980   3.896  1.00  0.00     0.045 A 
HETATM   21  C   UNL     1      42.145 -15.294   5.027  1.00  0.00     0.103 A 
HETATM   22  C   UNL     1      43.471 -14.865   5.125  1.00  0.00     0.036 A 
HETATM   23  C   UNL     1      44.017 -14.107   4.090  1.00  0.00     0.003 A 
HETATM   24  C   UNL     1      43.246 -13.777   2.969  1.00  0.00     0.010 A 
BRANCH  21  25
HETATM   25  N   UNL     1      41.535 -16.049   6.128  1.00  0.00    -0.116 N 
HETATM   26  O   UNL     1      42.303 -16.505   6.989  1.00  0.00    -0.532 OA
HETATM   27  O   UNL     1      40.311 -16.216   6.108  1.00  0.00    -0.532 OA
ENDBRANCH  21  25
ENDBRANCH   2  19
BRANCH   6  28
HETATM   28  O   UNL     1      42.392 -13.689  -1.789  1.00  0.00    -0.355 OA
HETATM   29  H   UNL     1      42.017 -12.965  -2.345  1.00  0.00     0.218 HD
ENDBRANCH   6  28
BRANCH   3  30
HETATM   30  C   UNL     1      40.717 -11.398   2.263  1.00  0.00     0.155 C 
BRANCH  30  31
HETATM   31  C   UNL     1      39.464 -11.737   3.121  1.00  0.00     0.254 C 
BRANCH  31  32
HETATM   32  N   UNL     1      39.426 -10.995   4.466  1.00  0.00    -0.066 N 
HETATM   33  H   UNL     1      38.876 -10.140   4.278  1.00  0.00     0.280 HD
HETATM   34  C   UNL     1      40.810 -10.504   4.916  1.00  0.00     0.262 C 
HETATM   35  C   UNL     1      41.647 -11.623   5.584  1.00  0.00     0.260 C 
HETATM   36  N   UNL     1      40.886 -12.272   6.710  1.00  0.00    -0.072 N 
HETATM   37  H   UNL     1      40.781 -11.635   7.516  1.00  0.00     0.277 HD
HETATM   38  H   UNL     1      41.446 -13.059   7.083  1.00  0.00     0.277 HD
HETATM   39  C   UNL     1      39.545 -12.824   6.280  1.00  0.00     0.260 C 
HETATM   40  C   UNL     1      38.686 -11.726   5.601  1.00  0.00     0.262 C 
ENDBRANCH  31  32
ENDBRANCH  30  31
ENDBRANCH   3  30
TORSDOF 10
ENDMDL
MODEL 5
REMARK VINA RESULT:      -7.8      3.193      6.285
REMARK  10 active torsions:
REMARK  status: ('A' for Active; 'I' for Inactive)
REMARK    1  A    between atoms: C_2  and  O_3 
REMARK    2  A    between atoms: O_3  and  C_4 
REMARK    3  A    between atoms: C_7  and  C_8 
REMARK    4  A    between atoms: C_8  and  C_9 
REMARK    5  A    between atoms: C_10  and  C_11 
REMARK    6  A    between atoms: C_13  and  N_14 
REMARK    7  A    between atoms: N_20  and  C_21 
REMARK    8  A    between atoms: C_21  and  C_22 
REMARK    9  A    between atoms: C_22  and  N_23 
REMARK   10  A    between atoms: C_34  and  O_35 
ROOT
HETATM    1  C   UNL     1      39.913 -12.226   3.818  1.00  0.00     0.059 C 
HETATM    2  C   UNL     1      40.430 -12.656   2.481  1.00  0.00     0.161 C 
HETATM    3  N   UNL     1      39.438 -12.050   1.592  1.00  0.00    -0.332 N 
HETATM    4  C   UNL     1      38.366 -11.554   2.304  1.00  0.00     0.278 C 
HETATM    5  O   UNL     1      37.346 -11.106   1.808  1.00  0.00    -0.265 OA
HETATM    6  C   UNL     1      38.720 -11.617   3.733  1.00  0.00     0.146 C 
ENDROOT
BRANCH   1   7
HETATM    7  C   UNL     1      40.520 -12.451   5.145  1.00  0.00     0.193 C 
HETATM    8  O   UNL     1      40.516 -11.531   5.961  1.00  0.00    -0.287 OA
BRANCH   7   9
HETATM    9  C   UNL     1      41.077 -13.764   5.536  1.00  0.00     0.015 A 
HETATM   10  C   UNL     1      40.283 -14.880   5.811  1.00  0.00     0.018 A 
HETATM   11  C   UNL     1      40.880 -16.106   6.147  1.00  0.00     0.038 A 
HETATM   12  C   UNL     1      42.268 -16.233   6.159  1.00  0.00     0.069 A 
HETATM   13  C   UNL     1      43.055 -15.118   5.860  1.00  0.00     0.038 A 
HETATM   14  C   UNL     1      42.469 -13.891   5.546  1.00  0.00     0.018 A 
BRANCH  12  15
HETATM   15  O   UNL     1      42.988 -17.360   6.421  1.00  0.00    -0.347 OA
BRANCH  15  16
HETATM   16  C   UNL     1      44.101 -17.720   5.599  1.00  0.00     0.120 C 
HETATM   17  C   UNL     1      43.684 -18.873   4.691  1.00  0.00     0.040 C 
HETATM   18  C   UNL     1      45.227 -18.154   6.533  1.00  0.00     0.040 C 
ENDBRANCH  15  16
ENDBRANCH  12  15
ENDBRANCH   7   9
ENDBRANCH   1   7
BRANCH   2  19
HETATM   19  C   UNL     1      40.536 -14.156   2.277  1.00  0.00    -0.028 A 
HETATM   20  C   UNL     1      41.802 -14.733   2.079  1.00  0.00     0.045 A 
HETATM   21  C   UNL     1      41.931 -16.118   1.874  1.00  0.00     0.103 A 
HETATM   22  C   UNL     1      40.806 -16.946   1.873  1.00  0.00     0.036 A 
HETATM   23  C   UNL     1      39.547 -16.380   2.066  1.00  0.00     0.003 A 
HETATM   24  C   UNL     1      39.411 -14.999   2.255  1.00  0.00     0.010 A 
BRANCH  21  25
HETATM   25  N   UNL     1      43.261 -16.686   1.621  1.00  0.00    -0.116 N 
HETATM   26  O   UNL     1      43.336 -17.575   0.760  1.00  0.00    -0.532 OA
HETATM   27  O   UNL     1      44.206 -16.275   2.303  1.00  0.00    -0.532 OA
ENDBRANCH  21  25
ENDBRANCH   2  19
BRANCH   6  28
HETATM   28  O   UNL     1      37.926 -11.122   4.724  1.00  0.00    -0.355 OA
HETATM   29  H   UNL     1      38.272 -11.463   5.582  1.00  0.00     0.218 HD
ENDBRANCH   6  28
BRANCH   3  30
HETATM   30  C   UNL     1      39.470 -12.150   0.139  1.00  0.00     0.155 C 
BRANCH  30  31
HETATM   31  C   UNL     1      40.709 -11.459  -0.501  1.00  0.00     0.254 C 
BRANCH  31  32
HETATM   32  N   UNL     1      41.835 -12.440  -0.863  1.00  0.00    -0.066 N 
HETATM   33  H   UNL     1      42.314 -12.630   0.033  1.00  0.00     0.280 HD
HETATM   34  C   UNL     1      42.901 -11.814  -1.775  1.00  0.00     0.262 C 
HETATM   35  C   UNL     1      42.471 -11.797  -3.263  1.00  0.00     0.260 C 
HETATM   36  N   UNL     1      42.067 -13.171  -3.728  1.00  0.00    -0.072 N 
HETATM   37  H   UNL     1      42.880 -13.805  -3.794  1.00  0.00     0.277 HD
HETATM   38  H   UNL     1      41.719 -13.107  -4.701  1.00  0.00     0.277 HD
HETATM   39  C   UNL     1      40.971 -13.785  -2.886  1.00  0.00     0.260 C 
HETATM   40  C   UNL     1      41.371 -13.811  -1.388  1.00  0.00     0.262 C 
ENDBRANCH  31  32
ENDBRANCH  30  31
ENDBRANCH   3  30
TORSDOF 10
ENDMDL
MODEL 6
REMARK VINA RESULT:      -7.4      2.806      5.599
REMARK  10 active torsions:
REMARK  status: ('A' for Active; 'I' for Inactive)
REMARK    1  A    between atoms: C_2  and  O_3 
REMARK    2  A    between atoms: O_3  and  C_4 
REMARK    3  A    between atoms: C_7  and  C_8 
REMARK    4  A    between atoms: C_8  and  C_9 
REMARK    5  A    between atoms: C_10  and  C_11 
REMARK    6  A    between atoms: C_13  and  N_14 
REMARK    7  A    between atoms: N_20  and  C_21 
REMARK    8  A    between atoms: C_21  and  C_22 
REMARK    9  A    between atoms: C_22  and  N_23 
REMARK   10  A    between atoms: C_34  and  O_35 
ROOT
HETATM    1  C   UNL     1      41.587 -13.539   4.755  1.00  0.00     0.059 C 
HETATM    2  C   UNL     1      41.404 -12.520   3.674  1.00  0.00     0.161 C 
HETATM    3  N   UNL     1      40.177 -11.860   4.119  1.00  0.00    -0.332 N 
HETATM    4  C   UNL     1      39.591 -12.545   5.163  1.00  0.00     0.278 C 
HETATM    5  O   UNL     1      38.502 -12.284   5.644  1.00  0.00    -0.265 OA
HETATM    6  C   UNL     1      40.544 -13.581   5.599  1.00  0.00     0.146 C 
ENDROOT
BRANCH   1   7
HETATM    7  C   UNL     1      42.704 -14.487   4.935  1.00  0.00     0.193 C 
HETATM    8  O   UNL     1      43.575 -14.226   5.763  1.00  0.00    -0.287 OA
BRANCH   7   9
HETATM    9  C   UNL     1      42.772 -15.763   4.190  1.00  0.00     0.015 A 
HETATM   10  C   UNL     1      43.500 -15.920   3.007  1.00  0.00     0.018 A 
HETATM   11  C   UNL     1      43.546 -17.169   2.367  1.00  0.00     0.038 A 
HETATM   12  C   UNL     1      42.909 -18.273   2.932  1.00  0.00     0.069 A 
HETATM   13  C   UNL     1      42.203 -18.113   4.126  1.00  0.00     0.038 A 
HETATM   14  C   UNL     1      42.135 -16.870   4.757  1.00  0.00     0.018 A 
BRANCH  12  15
HETATM   15  O   UNL     1      42.901 -19.549   2.455  1.00  0.00    -0.347 OA
BRANCH  15  16
HETATM   16  C   UNL     1      44.125 -20.268   2.280  1.00  0.00     0.120 C 
HETATM   17  C   UNL     1      43.804 -21.646   1.712  1.00  0.00     0.040 C 
HETATM   18  C   UNL     1      44.772 -20.393   3.657  1.00  0.00     0.040 C 
ENDBRANCH  15  16
ENDBRANCH  12  15
ENDBRANCH   7   9
ENDBRANCH   1   7
BRANCH   2  19
HETATM   19  C   UNL     1      41.271 -13.080   2.269  1.00  0.00    -0.028 A 
HETATM   20  C   UNL     1      42.010 -12.497   1.226  1.00  0.00     0.045 A 
HETATM   21  C   UNL     1      41.898 -12.986  -0.087  1.00  0.00     0.103 A 
HETATM   22  C   UNL     1      41.060 -14.064  -0.378  1.00  0.00     0.036 A 
HETATM   23  C   UNL     1      40.322 -14.647   0.653  1.00  0.00     0.003 A 
HETATM   24  C   UNL     1      40.417 -14.154   1.960  1.00  0.00     0.010 A 
BRANCH  21  25
HETATM   25  N   UNL     1      42.644 -12.325  -1.166  1.00  0.00    -0.116 N 
HETATM   26  O   UNL     1      42.573 -12.839  -2.293  1.00  0.00    -0.532 OA
HETATM   27  O   UNL     1      43.320 -11.332  -0.878  1.00  0.00    -0.532 OA
ENDBRANCH  21  25
ENDBRANCH   2  19
BRANCH   6  28
HETATM   28  O   UNL     1      40.330 -14.390   6.675  1.00  0.00    -0.355 OA
HETATM   29  H   UNL     1      41.168 -14.423   7.194  1.00  0.00     0.218 HD
ENDBRANCH   6  28
BRANCH   3  30
HETATM   30  C   UNL     1      39.541 -10.753   3.417  1.00  0.00     0.155 C 
BRANCH  30  31
HETATM   31  C   UNL     1      38.265 -11.172   2.631  1.00  0.00     0.254 C 
BRANCH  31  32
HETATM   32  N   UNL     1      37.989 -10.294   1.401  1.00  0.00    -0.066 N 
HETATM   33  H   UNL     1      38.340  -9.358   1.664  1.00  0.00     0.280 HD
HETATM   34  C   UNL     1      36.490 -10.109   1.123  1.00  0.00     0.262 C 
HETATM   35  C   UNL     1      35.874 -11.314   0.369  1.00  0.00     0.260 C 
HETATM   36  N   UNL     1      36.647 -11.622  -0.886  1.00  0.00    -0.072 N 
HETATM   37  H   UNL     1      36.516 -10.890  -1.603  1.00  0.00     0.277 HD
HETATM   38  H   UNL     1      36.251 -12.474  -1.322  1.00  0.00     0.277 HD
HETATM   39  C   UNL     1      38.116 -11.873  -0.633  1.00  0.00     0.260 C 
HETATM   40  C   UNL     1      38.760 -10.685   0.126  1.00  0.00     0.262 C 
ENDBRANCH  31  32
ENDBRANCH  30  31
ENDBRANCH   3  30
TORSDOF 10
ENDMDL
MODEL 7
REMARK VINA RESULT:      -7.4      2.314      4.339
REMARK  10 active torsions:
REMARK  status: ('A' for Active; 'I' for Inactive)
REMARK    1  A    between atoms: C_2  and  O_3 
REMARK    2  A    between atoms: O_3  and  C_4 
REMARK    3  A    between atoms: C_7  and  C_8 
REMARK    4  A    between atoms: C_8  and  C_9 
REMARK    5  A    between atoms: C_10  and  C_11 
REMARK    6  A    between atoms: C_13  and  N_14 
REMARK    7  A    between atoms: N_20  and  C_21 
REMARK    8  A    between atoms: C_21  and  C_22 
REMARK    9  A    between atoms: C_22  and  N_23 
REMARK   10  A    between atoms: C_34  and  O_35 
ROOT
HETATM    1  C   UNL     1      41.659 -13.609   4.678  1.00  0.00     0.059 C 
HETATM    2  C   UNL     1      41.450 -12.549   3.642  1.00  0.00     0.161 C 
HETATM    3  N   UNL     1      40.197 -11.952   4.104  1.00  0.00    -0.332 N 
HETATM    4  C   UNL     1      39.626 -12.704   5.108  1.00  0.00     0.278 C 
HETATM    5  O   UNL     1      38.524 -12.504   5.589  1.00  0.00    -0.265 OA
HETATM    6  C   UNL     1      40.610 -13.725   5.508  1.00  0.00     0.146 C 
ENDROOT
BRANCH   1   7
HETATM    7  C   UNL     1      42.807 -14.524   4.827  1.00  0.00     0.193 C 
HETATM    8  O   UNL     1      43.718 -14.213   5.592  1.00  0.00    -0.287 OA
BRANCH   7   9
HETATM    9  C   UNL     1      42.862 -15.826   4.127  1.00  0.00     0.015 A 
HETATM   10  C   UNL     1      43.486 -16.003   2.888  1.00  0.00     0.018 A 
HETATM   11  C   UNL     1      43.527 -17.274   2.294  1.00  0.00     0.038 A 
HETATM   12  C   UNL     1      42.994 -18.379   2.956  1.00  0.00     0.069 A 
HETATM   13  C   UNL     1      42.393 -18.198   4.204  1.00  0.00     0.038 A 
HETATM   14  C   UNL     1      42.329 -16.934   4.792  1.00  0.00     0.018 A 
BRANCH  12  15
HETATM   15  O   UNL     1      42.998 -19.672   2.529  1.00  0.00    -0.347 OA
BRANCH  15  16
HETATM   16  C   UNL     1      44.231 -20.367   2.324  1.00  0.00     0.120 C 
HETATM   17  C   UNL     1      43.927 -21.734   1.721  1.00  0.00     0.040 C 
HETATM   18  C   UNL     1      44.892 -20.519   3.692  1.00  0.00     0.040 C 
ENDBRANCH  15  16
ENDBRANCH  12  15
ENDBRANCH   7   9
ENDBRANCH   1   7
BRANCH   2  19
HETATM   19  C   UNL     1      41.351 -13.048   2.212  1.00  0.00    -0.028 A 
HETATM   20  C   UNL     1      42.026 -12.353   1.194  1.00  0.00     0.045 A 
HETATM   21  C   UNL     1      41.942 -12.784  -0.141  1.00  0.00     0.103 A 
HETATM   22  C   UNL     1      41.195 -13.915  -0.479  1.00  0.00     0.036 A 
HETATM   23  C   UNL     1      40.521 -14.608   0.525  1.00  0.00     0.003 A 
HETATM   24  C   UNL     1      40.588 -14.174   1.855  1.00  0.00     0.010 A 
BRANCH  21  25
HETATM   25  N   UNL     1      42.617 -12.010  -1.190  1.00  0.00    -0.116 N 
HETATM   26  O   UNL     1      43.502 -11.222  -0.824  1.00  0.00    -0.532 OA
HETATM   27  O   UNL     1      42.237 -12.161  -2.356  1.00  0.00    -0.532 OA
ENDBRANCH  21  25
ENDBRANCH   2  19
BRANCH   6  28
HETATM   28  O   UNL     1      40.415 -14.590   6.544  1.00  0.00    -0.355 OA
HETATM   29  H   UNL     1      39.615 -14.289   7.036  1.00  0.00     0.218 HD
ENDBRANCH   6  28
BRANCH   3  30
HETATM   30  C   UNL     1      39.529 -10.837   3.445  1.00  0.00     0.155 C 
BRANCH  30  31
HETATM   31  C   UNL     1      40.379  -9.534   3.424  1.00  0.00     0.254 C 
BRANCH  31  32
HETATM   32  N   UNL     1      39.853  -8.447   4.376  1.00  0.00    -0.066 N 
HETATM   33  H   UNL     1      39.032  -8.049   3.890  1.00  0.00     0.280 HD
HETATM   34  C   UNL     1      40.835  -7.280   4.549  1.00  0.00     0.262 C 
HETATM   35  C   UNL     1      41.957  -7.596   5.570  1.00  0.00     0.260 C 
HETATM   36  N   UNL     1      41.381  -8.050   6.886  1.00  0.00    -0.072 N 
HETATM   37  H   UNL     1      40.913  -7.276   7.384  1.00  0.00     0.277 HD
HETATM   38  H   UNL     1      42.158  -8.320   7.515  1.00  0.00     0.277 HD
HETATM   39  C   UNL     1      40.460  -9.241   6.752  1.00  0.00     0.260 C 
HETATM   40  C   UNL     1      39.329  -8.956   5.731  1.00  0.00     0.262 C 
ENDBRANCH  31  32
ENDBRANCH  30  31
ENDBRANCH   3  30
TORSDOF 10
ENDMDL
MODEL 8
REMARK VINA RESULT:      -7.4      3.127      6.225
REMARK  10 active torsions:
REMARK  status: ('A' for Active; 'I' for Inactive)
REMARK    1  A    between atoms: C_2  and  O_3 
REMARK    2  A    between atoms: O_3  and  C_4 
REMARK    3  A    between atoms: C_7  and  C_8 
REMARK    4  A    between atoms: C_8  and  C_9 
REMARK    5  A    between atoms: C_10  and  C_11 
REMARK    6  A    between atoms: C_13  and  N_14 
REMARK    7  A    between atoms: N_20  and  C_21 
REMARK    8  A    between atoms: C_21  and  C_22 
REMARK    9  A    between atoms: C_22  and  N_23 
REMARK   10  A    between atoms: C_34  and  O_35 
ROOT
HETATM    1  C   UNL     1      41.406 -12.536   3.924  1.00  0.00     0.059 C 
HETATM    2  C   UNL     1      42.090 -13.134   2.734  1.00  0.00     0.161 C 
HETATM    3  N   UNL     1      41.622 -12.247   1.670  1.00  0.00    -0.332 N 
HETATM    4  C   UNL     1      40.621 -11.411   2.119  1.00  0.00     0.278 C 
HETATM    5  O   UNL     1      39.973 -10.658   1.414  1.00  0.00    -0.265 OA
HETATM    6  C   UNL     1      40.543 -11.566   3.582  1.00  0.00     0.146 C 
ENDROOT
BRANCH   1   7
HETATM    7  C   UNL     1      41.532 -12.929   5.341  1.00  0.00     0.193 C 
HETATM    8  O   UNL     1      41.207 -12.122   6.210  1.00  0.00    -0.287 OA
BRANCH   7   9
HETATM    9  C   UNL     1      41.983 -14.280   5.739  1.00  0.00     0.015 A 
HETATM   10  C   UNL     1      43.323 -14.602   5.970  1.00  0.00     0.018 A 
HETATM   11  C   UNL     1      43.678 -15.899   6.375  1.00  0.00     0.038 A 
HETATM   12  C   UNL     1      42.694 -16.860   6.600  1.00  0.00     0.069 A 
HETATM   13  C   UNL     1      41.354 -16.524   6.390  1.00  0.00     0.038 A 
HETATM   14  C   UNL     1      40.995 -15.243   5.967  1.00  0.00     0.018 A 
BRANCH  12  15
HETATM   15  O   UNL     1      42.878 -18.138   7.035  1.00  0.00    -0.347 OA
BRANCH  15  16
HETATM   16  C   UNL     1      43.860 -18.979   6.424  1.00  0.00     0.120 C 
HETATM   17  C   UNL     1      43.602 -19.021   4.922  1.00  0.00     0.040 C 
HETATM   18  C   UNL     1      43.701 -20.370   7.034  1.00  0.00     0.040 C 
ENDBRANCH  15  16
ENDBRANCH  12  15
ENDBRANCH   7   9
ENDBRANCH   1   7
BRANCH   2  19
HETATM   19  C   UNL     1      41.753 -14.588   2.454  1.00  0.00    -0.028 A 
HETATM   20  C   UNL     1      42.787 -15.480   2.121  1.00  0.00     0.045 A 
HETATM   21  C   UNL     1      42.504 -16.828   1.844  1.00  0.00     0.103 A 
HETATM   22  C   UNL     1      41.194 -17.309   1.903  1.00  0.00     0.036 A 
HETATM   23  C   UNL     1      40.163 -16.428   2.230  1.00  0.00     0.003 A 
HETATM   24  C   UNL     1      40.436 -15.081   2.492  1.00  0.00     0.010 A 
BRANCH  21  25
HETATM   25  N   UNL     1      43.598 -17.725   1.450  1.00  0.00    -0.116 N 
HETATM   26  O   UNL     1      43.345 -18.939   1.423  1.00  0.00    -0.532 OA
HETATM   27  O   UNL     1      44.701 -17.224   1.212  1.00  0.00    -0.532 OA
ENDBRANCH  21  25
ENDBRANCH   2  19
BRANCH   6  28
HETATM   28  O   UNL     1      39.721 -10.819   4.372  1.00  0.00    -0.355 OA
HETATM   29  H   UNL     1      38.917 -10.602   3.843  1.00  0.00     0.218 HD
ENDBRANCH   6  28
BRANCH   3  30
HETATM   30  C   UNL     1      42.003 -12.376   0.269  1.00  0.00     0.155 C 
BRANCH  30  31
HETATM   31  C   UNL     1      40.789 -12.562  -0.687  1.00  0.00     0.254 C 
BRANCH  31  32
HETATM   32  N   UNL     1      40.095 -13.924  -0.532  1.00  0.00    -0.066 N 
HETATM   33  H   UNL     1      40.121 -14.117   0.483  1.00  0.00     0.280 HD
HETATM   34  C   UNL     1      40.876 -15.070  -1.190  1.00  0.00     0.262 C 
HETATM   35  C   UNL     1      40.637 -15.150  -2.719  1.00  0.00     0.260 C 
HETATM   36  N   UNL     1      39.166 -15.215  -3.035  1.00  0.00    -0.072 N 
HETATM   37  H   UNL     1      38.755 -16.119  -2.753  1.00  0.00     0.277 HD
HETATM   38  H   UNL     1      39.044 -15.193  -4.063  1.00  0.00     0.277 HD
HETATM   39  C   UNL     1      38.381 -14.060  -2.454  1.00  0.00     0.260 C 
HETATM   40  C   UNL     1      38.606 -13.952  -0.924  1.00  0.00     0.262 C 
ENDBRANCH  31  32
ENDBRANCH  30  31
ENDBRANCH   3  30
TORSDOF 10
ENDMDL
MODEL 9
REMARK VINA RESULT:      -7.3      3.083      4.522
REMARK  10 active torsions:
REMARK  status: ('A' for Active; 'I' for Inactive)
REMARK    1  A    between atoms: C_2  and  O_3 
REMARK    2  A    between atoms: O_3  and  C_4 
REMARK    3  A    between atoms: C_7  and  C_8 
REMARK    4  A    between atoms: C_8  and  C_9 
REMARK    5  A    between atoms: C_10  and  C_11 
REMARK    6  A    between atoms: C_13  and  N_14 
REMARK    7  A    between atoms: N_20  and  C_21 
REMARK    8  A    between atoms: C_21  and  C_22 
REMARK    9  A    between atoms: C_22  and  N_23 
REMARK   10  A    between atoms: C_34  and  O_35 
ROOT
HETATM    1  C   UNL     1      41.481 -14.059  -0.149  1.00  0.00     0.059 C 
HETATM    2  C   UNL     1      40.944 -13.290   1.018  1.00  0.00     0.161 C 
HETATM    3  N   UNL     1      41.232 -11.918   0.602  1.00  0.00    -0.332 N 
HETATM    4  C   UNL     1      42.037 -11.892  -0.517  1.00  0.00     0.278 C 
HETATM    5  O   UNL     1      42.526 -10.886  -1.002  1.00  0.00    -0.265 OA
HETATM    6  C   UNL     1      42.132 -13.273  -1.022  1.00  0.00     0.146 C 
ENDROOT
BRANCH   1   7
HETATM    7  C   UNL     1      41.425 -15.515  -0.386  1.00  0.00     0.193 C 
HETATM    8  O   UNL     1      41.058 -15.922  -1.487  1.00  0.00    -0.287 OA
BRANCH   7   9
HETATM    9  C   UNL     1      41.850 -16.489   0.642  1.00  0.00     0.015 A 
HETATM   10  C   UNL     1      40.949 -17.211   1.431  1.00  0.00     0.018 A 
HETATM   11  C   UNL     1      41.422 -18.144   2.368  1.00  0.00     0.038 A 
HETATM   12  C   UNL     1      42.788 -18.395   2.484  1.00  0.00     0.069 A 
HETATM   13  C   UNL     1      43.681 -17.687   1.675  1.00  0.00     0.038 A 
HETATM   14  C   UNL     1      43.220 -16.742   0.756  1.00  0.00     0.018 A 
BRANCH  12  15
HETATM   15  O   UNL     1      43.390 -19.295   3.310  1.00  0.00    -0.347 OA
BRANCH  15  16
HETATM   16  C   UNL     1      44.325 -20.246   2.792  1.00  0.00     0.120 C 
HETATM   17  C   UNL     1      43.597 -21.170   1.823  1.00  0.00     0.040 C 
HETATM   18  C   UNL     1      44.866 -21.036   3.981  1.00  0.00     0.040 C 
ENDBRANCH  15  16
ENDBRANCH  12  15
ENDBRANCH   7   9
ENDBRANCH   1   7
BRANCH   2  19
HETATM   19  C   UNL     1      41.572 -13.623   2.359  1.00  0.00    -0.028 A 
HETATM   20  C   UNL     1      40.747 -14.039   3.418  1.00  0.00     0.045 A 
HETATM   21  C   UNL     1      41.298 -14.341   4.675  1.00  0.00     0.103 A 
HETATM   22  C   UNL     1      42.674 -14.242   4.893  1.00  0.00     0.036 A 
HETATM   23  C   UNL     1      43.499 -13.828   3.847  1.00  0.00     0.003 A 
HETATM   24  C   UNL     1      42.954 -13.510   2.597  1.00  0.00     0.010 A 
BRANCH  21  25
HETATM   25  N   UNL     1      40.407 -14.725   5.777  1.00  0.00    -0.116 N 
HETATM   26  O   UNL     1      39.429 -13.993   5.989  1.00  0.00    -0.532 OA
HETATM   27  O   UNL     1      40.706 -15.722   6.443  1.00  0.00    -0.532 OA
ENDBRANCH  21  25
ENDBRANCH   2  19
BRANCH   6  28
HETATM   28  O   UNL     1      42.778 -13.607  -2.175  1.00  0.00    -0.355 OA
HETATM   29  H   UNL     1      42.210 -14.252  -2.659  1.00  0.00     0.218 HD
ENDBRANCH   6  28
BRANCH   3  30
HETATM   30  C   UNL     1      40.897 -10.736   1.387  1.00  0.00     0.155 C 
BRANCH  30  31
HETATM   31  C   UNL     1      39.423 -10.272   1.207  1.00  0.00     0.254 C 
BRANCH  31  32
HETATM   32  N   UNL     1      38.449 -10.939   2.190  1.00  0.00    -0.066 N 
HETATM   33  H   UNL     1      39.050 -11.515   2.804  1.00  0.00     0.280 HD
HETATM   34  C   UNL     1      37.493 -11.927   1.506  1.00  0.00     0.262 C 
HETATM   35  C   UNL     1      36.290 -11.219   0.834  1.00  0.00     0.260 C 
HETATM   36  N   UNL     1      35.573 -10.324   1.809  1.00  0.00    -0.072 N 
HETATM   37  H   UNL     1      35.068 -10.869   2.526  1.00  0.00     0.277 HD
HETATM   38  H   UNL     1      34.824  -9.815   1.308  1.00  0.00     0.277 HD
HETATM   39  C   UNL     1      36.479  -9.297   2.450  1.00  0.00     0.260 C 
HETATM   40  C   UNL     1      37.697  -9.976   3.127  1.00  0.00     0.262 C 
ENDBRANCH  31  32
ENDBRANCH  30  31
ENDBRANCH   3  30
TORSDOF 10
ENDMDL
MODEL 10
REMARK VINA RESULT:      -7.2      2.455      3.366
REMARK  10 active torsions:
REMARK  status: ('A' for Active; 'I' for Inactive)
REMARK    1  A    between atoms: C_2  and  O_3 
REMARK    2  A    between atoms: O_3  and  C_4 
REMARK    3  A    between atoms: C_7  and  C_8 
REMARK    4  A    between atoms: C_8  and  C_9 
REMARK    5  A    between atoms: C_10  and  C_11 
REMARK    6  A    between atoms: C_13  and  N_14 
REMARK    7  A    between atoms: N_20  and  C_21 
REMARK    8  A    between atoms: C_21  and  C_22 
REMARK    9  A    between atoms: C_22  and  N_23 
REMARK   10  A    between atoms: C_34  and  O_35 
ROOT
HETATM    1  C   UNL     1      41.077 -14.246  -0.065  1.00  0.00     0.059 C 
HETATM    2  C   UNL     1      40.188 -13.634   0.971  1.00  0.00     0.161 C 
HETATM    3  N   UNL     1      40.317 -12.214   0.643  1.00  0.00    -0.332 N 
HETATM    4  C   UNL     1      41.319 -12.002  -0.280  1.00  0.00     0.278 C 
HETATM    5  O   UNL     1      41.719 -10.908  -0.637  1.00  0.00    -0.265 OA
HETATM    6  C   UNL     1      41.750 -13.323  -0.771  1.00  0.00     0.146 C 
ENDROOT
BRANCH   1   7
HETATM    7  C   UNL     1      41.320 -15.678  -0.328  1.00  0.00     0.193 C 
HETATM    8  O   UNL     1      41.138 -16.111  -1.465  1.00  0.00    -0.287 OA
BRANCH   7   9
HETATM    9  C   UNL     1      41.827 -16.588   0.721  1.00  0.00     0.015 A 
HETATM   10  C   UNL     1      41.016 -17.505   1.396  1.00  0.00     0.018 A 
HETATM   11  C   UNL     1      41.570 -18.362   2.361  1.00  0.00     0.038 A 
HETATM   12  C   UNL     1      42.941 -18.341   2.617  1.00  0.00     0.069 A 
HETATM   13  C   UNL     1      43.748 -17.437   1.922  1.00  0.00     0.038 A 
HETATM   14  C   UNL     1      43.201 -16.568   0.977  1.00  0.00     0.018 A 
BRANCH  12  15
HETATM   15  O   UNL     1      43.626 -19.135   3.486  1.00  0.00    -0.347 OA
BRANCH  15  16
HETATM   16  C   UNL     1      44.558 -20.107   3.004  1.00  0.00     0.120 C 
HETATM   17  C   UNL     1      43.836 -21.034   2.033  1.00  0.00     0.040 C 
HETATM   18  C   UNL     1      45.060 -20.886   4.217  1.00  0.00     0.040 C 
ENDBRANCH  15  16
ENDBRANCH  12  15
ENDBRANCH   7   9
ENDBRANCH   1   7
BRANCH   2  19
HETATM   19  C   UNL     1      40.573 -13.923   2.410  1.00  0.00    -0.028 A 
HETATM   20  C   UNL     1      41.907 -13.744   2.813  1.00  0.00     0.045 A 
HETATM   21  C   UNL     1      42.295 -14.017   4.136  1.00  0.00     0.103 A 
HETATM   22  C   UNL     1      41.363 -14.461   5.076  1.00  0.00     0.036 A 
HETATM   23  C   UNL     1      40.038 -14.644   4.682  1.00  0.00     0.003 A 
HETATM   24  C   UNL     1      39.648 -14.389   3.362  1.00  0.00     0.010 A 
BRANCH  21  25
HETATM   25  N   UNL     1      43.706 -13.868   4.516  1.00  0.00    -0.116 N 
HETATM   26  O   UNL     1      44.521 -13.712   3.595  1.00  0.00    -0.532 OA
HETATM   27  O   UNL     1      43.994 -13.946   5.715  1.00  0.00    -0.532 OA
ENDBRANCH  21  25
ENDBRANCH   2  19
BRANCH   6  28
HETATM   28  O   UNL     1      42.668 -13.490  -1.766  1.00  0.00    -0.355 OA
HETATM   29  H   UNL     1      43.012 -14.412  -1.702  1.00  0.00     0.218 HD
ENDBRANCH   6  28
BRANCH   3  30
HETATM   30  C   UNL     1      39.631 -11.143   1.355  1.00  0.00     0.155 C 
BRANCH  30  31
HETATM   31  C   UNL     1      40.539 -10.404   2.381  1.00  0.00     0.254 C 
BRANCH  31  32
HETATM   32  N   UNL     1      40.176 -10.705   3.844  1.00  0.00    -0.066 N 
HETATM   33  H   UNL     1      40.562 -11.647   4.021  1.00  0.00     0.280 HD
HETATM   34  C   UNL     1      38.662 -10.832   4.070  1.00  0.00     0.262 C 
HETATM   35  C   UNL     1      37.966  -9.455   4.206  1.00  0.00     0.260 C 
HETATM   36  N   UNL     1      38.626  -8.616   5.268  1.00  0.00    -0.072 N 
HETATM   37  H   UNL     1      38.448  -8.989   6.214  1.00  0.00     0.277 HD
HETATM   38  H   UNL     1      38.182  -7.680   5.279  1.00  0.00     0.277 HD
HETATM   39  C   UNL     1      40.107  -8.419   5.035  1.00  0.00     0.260 C 
HETATM   40  C   UNL     1      40.831  -9.782   4.888  1.00  0.00     0.262 C 
ENDBRANCH  31  32
ENDBRANCH  30  31
ENDBRANCH   3  30
TORSDOF 10
ENDMDL
