MODEL 1
REMARK VINA RESULT:      -6.4      0.000      0.000
REMARK  11 active torsions:
REMARK  status: ('A' for Active; 'I' for Inactive)
REMARK    1  A    between atoms: C_1  and  C_17 
REMARK    2  A    between atoms: C_1  and  S_18 
REMARK    3  A    between atoms: C_2  and  N_23 
REMARK    4  A    between atoms: C_3  and  C_13 
REMARK    5  A    between atoms: C_6  and  S_18 
REMARK    6  A    between atoms: C_6  and  S_19 
REMARK    7  A    between atoms: C_7  and  C_20 
REMARK    8  A    between atoms: C_7  and  C_21 
REMARK    9  A    between atoms: C_9  and  C_24 
REMARK   10  A    between atoms: C_16  and  C_17 
REMARK   11  A    between atoms: S_19  and  C_20 
ROOT
HETATM    1  C           1      41.295 -16.533   4.060  0.00  0.00     0.092 C 
HETATM    2  C           1      40.760 -14.212   4.401  0.00  0.00     0.156 C 
HETATM    3  C           1      42.269 -16.005   5.075  0.00  0.00     0.127 C 
HETATM    4  C           1      42.257 -14.485   4.775  0.00  0.00     0.136 C 
HETATM    5  C           1      43.131 -14.170   3.603  0.00  0.00     0.079 C 
HETATM    6  N           1      43.943 -14.017   2.788  0.00  0.00    -0.196 NA
HETATM    7  C           1      43.782 -16.431   5.273  0.00  0.00     0.248 C 
HETATM    8  C           1      43.935 -14.400   6.695  0.00  0.00     0.105 C 
HETATM    9  N           1      40.469 -15.572   3.735  0.00  0.00    -0.350 N 
HETATM   10  N           1      44.378 -15.782   6.564  0.00  0.00    -0.040 N 
HETATM   11  C           1      44.612 -13.626   7.799  0.00  0.00     0.075 C 
HETATM   12  C           1      42.971 -13.821   5.939  0.00  0.00     0.036 C 
HETATM   13  H           1      39.691 -15.712   3.076  0.00  0.00     0.163 HD
HETATM   14  H           1      45.419 -15.779   6.457  0.00  0.00     0.284 HD
HETATM   15  H           1      44.152 -16.332   7.419  0.00  0.00     0.284 HD
ENDROOT
BRANCH   2  16
HETATM   16  S           1      40.570 -12.909   3.140  0.00  0.00    -0.125 SA
BRANCH  16  17
HETATM   17  C           1      40.030 -13.841   1.676  0.00  0.00     0.077 C 
BRANCH  17  18
HETATM   18  C           1      41.044 -13.615   0.543  0.00  0.00     0.010 C 
BRANCH  18  19
HETATM   19  C           1      41.185 -14.862  -0.346  0.00  0.00    -0.004 C 
HETATM   20  C           1      41.802 -16.041   0.418  0.00  0.00     0.005 C 
ENDBRANCH  18  19
ENDBRANCH  17  18
ENDBRANCH  16  17
ENDBRANCH   2  16
BRANCH   2  21
HETATM   21  S           1      39.746 -14.057   5.910  0.00  0.00    -0.125 SA
BRANCH  21  22
HETATM   22  C           1      39.307 -12.291   5.833  0.00  0.00     0.077 C 
BRANCH  22  23
HETATM   23  C           1      39.870 -11.588   7.080  0.00  0.00     0.010 C 
BRANCH  23  24
HETATM   24  C           1      41.141 -10.789   6.753  0.00  0.00    -0.004 C 
HETATM   25  C           1      42.085 -10.699   7.960  0.00  0.00     0.005 C 
ENDBRANCH  23  24
ENDBRANCH  22  23
ENDBRANCH  21  22
ENDBRANCH   2  21
BRANCH   3  26
HETATM   26  C           1      41.824 -16.294   6.463  0.00  0.00     0.105 C 
HETATM   27  N           1      41.024 -16.962   6.971  0.00  0.00    -0.151 N 
ENDBRANCH   3  26
BRANCH   1  28
HETATM   28  N           1      41.217 -17.731   3.653  0.00  0.00    -0.388 N 
HETATM   29  H           1      41.131 -18.523   4.338  0.00  0.00     0.157 HD
HETATM   30  H           1      41.236 -17.951   2.628  0.00  0.00     0.157 HD
ENDBRANCH   1  28
BRANCH   7  31
HETATM   31  C           1      43.985 -17.938   5.250  0.00  0.00    -0.026 A 
HETATM   32  C           1      43.910 -18.708   6.351  0.00  0.00     0.009 A 
HETATM   33  C           1      44.087 -20.038   6.287  0.00  0.00     0.001 A 
HETATM   34  C           1      44.349 -20.627   5.111  0.00  0.00     0.000 A 
HETATM   35  C           1      44.438 -19.876   4.004  0.00  0.00     0.001 A 
HETATM   36  C           1      44.263 -18.548   4.081  0.00  0.00     0.009 A 
ENDBRANCH   7  31
TORSDOF 11
ENDMDL
MODEL 2
REMARK VINA RESULT:      -6.3      1.415      1.694
REMARK  11 active torsions:
REMARK  status: ('A' for Active; 'I' for Inactive)
REMARK    1  A    between atoms: C_1  and  C_17 
REMARK    2  A    between atoms: C_1  and  S_18 
REMARK    3  A    between atoms: C_2  and  N_23 
REMARK    4  A    between atoms: C_3  and  C_13 
REMARK    5  A    between atoms: C_6  and  S_18 
REMARK    6  A    between atoms: C_6  and  S_19 
REMARK    7  A    between atoms: C_7  and  C_20 
REMARK    8  A    between atoms: C_7  and  C_21 
REMARK    9  A    between atoms: C_9  and  C_24 
REMARK   10  A    between atoms: C_16  and  C_17 
REMARK   11  A    between atoms: S_19  and  C_20 
ROOT
HETATM    1  C           1      40.550 -15.817   3.228  0.00  0.00     0.092 C 
HETATM    2  C           1      40.098 -13.655   4.182  0.00  0.00     0.156 C 
HETATM    3  C           1      41.717 -15.477   4.112  0.00  0.00     0.127 C 
HETATM    4  C           1      41.640 -13.930   4.167  0.00  0.00     0.136 C 
HETATM    5  C           1      42.245 -13.325   2.941  0.00  0.00     0.079 C 
HETATM    6  N           1      42.865 -12.959   2.031  0.00  0.00    -0.196 NA
HETATM    7  C           1      43.238 -15.862   3.892  0.00  0.00     0.248 C 
HETATM    8  C           1      43.687 -14.186   5.669  0.00  0.00     0.105 C 
HETATM    9  N           1      39.673 -14.850   3.304  0.00  0.00    -0.350 N 
HETATM   10  N           1      44.094 -15.482   5.144  0.00  0.00    -0.040 N 
HETATM   11  C           1      44.582 -13.639   6.754  0.00  0.00     0.075 C 
HETATM   12  C           1      42.584 -13.503   5.278  0.00  0.00     0.036 C 
HETATM   13  H           1      38.773 -14.880   2.805  0.00  0.00     0.163 HD
HETATM   14  H           1      45.088 -15.406   4.828  0.00  0.00     0.284 HD
HETATM   15  H           1      44.055 -16.216   5.881  0.00  0.00     0.284 HD
ENDROOT
BRANCH   2  16
HETATM   16  S           1      39.642 -12.119   3.311  0.00  0.00    -0.125 SA
BRANCH  16  17
HETATM   17  C           1      38.618 -12.723   1.938  0.00  0.00     0.077 C 
BRANCH  17  18
HETATM   18  C           1      39.375 -12.498   0.618  0.00  0.00     0.010 C 
BRANCH  18  19
HETATM   19  C           1      39.299 -13.735  -0.294  0.00  0.00    -0.004 C 
HETATM   20  C           1      40.595 -14.555  -0.253  0.00  0.00     0.005 C 
ENDBRANCH  18  19
ENDBRANCH  17  18
ENDBRANCH  16  17
ENDBRANCH   2  16
BRANCH   2  21
HETATM   21  S           1      39.426 -13.883   5.864  0.00  0.00    -0.125 SA
BRANCH  21  22
HETATM   22  C           1      39.024 -12.160   6.295  0.00  0.00     0.077 C 
BRANCH  22  23
HETATM   23  C           1      39.982 -11.692   7.403  0.00  0.00     0.010 C 
BRANCH  23  24
HETATM   24  C           1      39.239 -11.445   8.726  0.00  0.00    -0.004 C 
HETATM   25  C           1      40.154 -10.818   9.787  0.00  0.00     0.005 C 
ENDBRANCH  23  24
ENDBRANCH  22  23
ENDBRANCH  21  22
ENDBRANCH   2  21
BRANCH   3  26
HETATM   26  C           1      41.577 -16.084   5.461  0.00  0.00     0.105 C 
HETATM   27  N           1      40.897 -16.876   5.963  0.00  0.00    -0.151 N 
ENDBRANCH   3  26
BRANCH   1  28
HETATM   28  N           1      40.388 -16.900   2.589  0.00  0.00    -0.388 N 
HETATM   29  H           1      40.726 -17.811   2.987  0.00  0.00     0.157 HD
HETATM   30  H           1      39.915 -16.904   1.652  0.00  0.00     0.157 HD
ENDBRANCH   1  28
BRANCH   7  31
HETATM   31  C           1      43.433 -17.316   3.491  0.00  0.00    -0.026 A 
HETATM   32  C           1      43.617 -18.308   4.382  0.00  0.00     0.009 A 
HETATM   33  C           1      43.777 -19.581   3.987  0.00  0.00     0.001 A 
HETATM   34  C           1      43.760 -19.889   2.682  0.00  0.00     0.000 A 
HETATM   35  C           1      43.589 -18.914   1.779  0.00  0.00     0.001 A 
HETATM   36  C           1      43.434 -17.645   2.185  0.00  0.00     0.009 A 
ENDBRANCH   7  31
TORSDOF 11
ENDMDL
MODEL 3
REMARK VINA RESULT:      -6.1      2.380      4.382
REMARK  11 active torsions:
REMARK  status: ('A' for Active; 'I' for Inactive)
REMARK    1  A    between atoms: C_1  and  C_17 
REMARK    2  A    between atoms: C_1  and  S_18 
REMARK    3  A    between atoms: C_2  and  N_23 
REMARK    4  A    between atoms: C_3  and  C_13 
REMARK    5  A    between atoms: C_6  and  S_18 
REMARK    6  A    between atoms: C_6  and  S_19 
REMARK    7  A    between atoms: C_7  and  C_20 
REMARK    8  A    between atoms: C_7  and  C_21 
REMARK    9  A    between atoms: C_9  and  C_24 
REMARK   10  A    between atoms: C_16  and  C_17 
REMARK   11  A    between atoms: S_19  and  C_20 
ROOT
HETATM    1  C           1      42.603 -16.200   0.962  0.00  0.00     0.092 C 
HETATM    2  C           1      41.389 -14.163   1.369  0.00  0.00     0.156 C 
HETATM    3  C           1      42.091 -16.272   2.372  0.00  0.00     0.127 C 
HETATM    4  C           1      41.892 -14.775   2.721  0.00  0.00     0.136 C 
HETATM    5  C           1      43.193 -14.144   3.103  0.00  0.00     0.079 C 
HETATM    6  N           1      44.216 -13.795   3.524  0.00  0.00    -0.196 NA
HETATM    7  C           1      42.790 -16.955   3.619  0.00  0.00     0.248 C 
HETATM    8  C           1      41.107 -15.714   4.960  0.00  0.00     0.105 C 
HETATM    9  N           1      42.189 -15.082   0.424  0.00  0.00    -0.350 N 
HETATM   10  N           1      41.831 -16.974   4.853  0.00  0.00    -0.040 N 
HETATM   11  C           1      40.305 -15.556   6.228  0.00  0.00     0.075 C 
HETATM   12  C           1      41.091 -14.747   4.010  0.00  0.00     0.036 C 
HETATM   13  H           1      42.392 -14.831  -0.554  0.00  0.00     0.163 HD
HETATM   14  H           1      42.427 -17.077   5.707  0.00  0.00     0.284 HD
HETATM   15  H           1      41.177 -17.783   4.827  0.00  0.00     0.284 HD
ENDROOT
BRANCH   2  16
HETATM   16  S           1      41.958 -12.449   1.111  0.00  0.00    -0.125 SA
BRANCH  16  17
HETATM   17  C           1      40.627 -11.466   1.861  0.00  0.00     0.077 C 
BRANCH  17  18
HETATM   18  C           1      41.049 -11.062   3.283  0.00  0.00     0.010 C 
BRANCH  18  19
HETATM   19  C           1      39.829 -10.769   4.173  0.00  0.00    -0.004 C 
HETATM   20  C           1      38.716 -11.808   3.978  0.00  0.00     0.005 C 
ENDBRANCH  18  19
ENDBRANCH  17  18
ENDBRANCH  16  17
ENDBRANCH   2  16
BRANCH   2  21
HETATM   21  S           1      39.607 -14.485   1.149  0.00  0.00    -0.125 SA
BRANCH  21  22
HETATM   22  C           1      39.382 -13.932  -0.571  0.00  0.00     0.077 C 
BRANCH  22  23
HETATM   23  C           1      37.957 -13.375  -0.728  0.00  0.00     0.010 C 
BRANCH  23  24
HETATM   24  C           1      37.299 -13.113   0.636  0.00  0.00    -0.004 C 
HETATM   25  C           1      36.760 -11.680   0.744  0.00  0.00     0.005 C 
ENDBRANCH  23  24
ENDBRANCH  22  23
ENDBRANCH  21  22
ENDBRANCH   2  21
BRANCH   3  26
HETATM   26  C           1      40.814 -17.029   2.453  0.00  0.00     0.105 C 
HETATM   27  N           1      40.125 -17.601   1.718  0.00  0.00    -0.151 N 
ENDBRANCH   3  26
BRANCH   1  28
HETATM   28  N           1      43.246 -17.108   0.354  0.00  0.00    -0.388 N 
HETATM   29  H           1      43.040 -17.326  -0.653  0.00  0.00     0.157 HD
HETATM   30  H           1      43.993 -17.656   0.844  0.00  0.00     0.157 HD
ENDBRANCH   1  28
BRANCH   7  31
HETATM   31  C           1      43.344 -18.337   3.309  0.00  0.00    -0.026 A 
HETATM   32  C           1      42.924 -19.083   2.271  0.00  0.00     0.009 A 
HETATM   33  C           1      43.445 -20.296   2.027  0.00  0.00     0.001 A 
HETATM   34  C           1      44.402 -20.792   2.824  0.00  0.00     0.000 A 
HETATM   35  C           1      44.826 -20.069   3.870  0.00  0.00     0.001 A 
HETATM   36  C           1      44.296 -18.859   4.107  0.00  0.00     0.009 A 
ENDBRANCH   7  31
TORSDOF 11
ENDMDL
MODEL 4
REMARK VINA RESULT:      -6.1      2.612      4.764
REMARK  11 active torsions:
REMARK  status: ('A' for Active; 'I' for Inactive)
REMARK    1  A    between atoms: C_1  and  C_17 
REMARK    2  A    between atoms: C_1  and  S_18 
REMARK    3  A    between atoms: C_2  and  N_23 
REMARK    4  A    between atoms: C_3  and  C_13 
REMARK    5  A    between atoms: C_6  and  S_18 
REMARK    6  A    between atoms: C_6  and  S_19 
REMARK    7  A    between atoms: C_7  and  C_20 
REMARK    8  A    between atoms: C_7  and  C_21 
REMARK    9  A    between atoms: C_9  and  C_24 
REMARK   10  A    between atoms: C_16  and  C_17 
REMARK   11  A    between atoms: S_19  and  C_20 
ROOT
HETATM    1  C           1      42.624 -16.096   0.974  0.00  0.00     0.092 C 
HETATM    2  C           1      41.453 -14.029   1.359  0.00  0.00     0.156 C 
HETATM    3  C           1      42.072 -16.160   2.371  0.00  0.00     0.127 C 
HETATM    4  C           1      41.903 -14.660   2.721  0.00  0.00     0.136 C 
HETATM    5  C           1      43.209 -14.064   3.140  0.00  0.00     0.079 C 
HETATM    6  N           1      44.229 -13.742   3.591  0.00  0.00    -0.196 NA
HETATM    7  C           1      42.720 -16.865   3.633  0.00  0.00     0.248 C 
HETATM    8  C           1      41.034 -15.586   4.933  0.00  0.00     0.105 C 
HETATM    9  N           1      42.254 -14.965   0.431  0.00  0.00    -0.350 N 
HETATM   10  N           1      41.728 -16.864   4.840  0.00  0.00    -0.040 N 
HETATM   11  C           1      40.203 -15.413   6.180  0.00  0.00     0.075 C 
HETATM   12  C           1      41.068 -14.616   3.988  0.00  0.00     0.036 C 
HETATM   13  H           1      42.489 -14.715  -0.539  0.00  0.00     0.163 HD
HETATM   14  H           1      42.298 -16.986   5.710  0.00  0.00     0.284 HD
HETATM   15  H           1      41.054 -17.656   4.793  0.00  0.00     0.284 HD
ENDROOT
BRANCH   2  16
HETATM   16  S           1      42.071 -12.330   1.124  0.00  0.00    -0.125 SA
BRANCH  16  17
HETATM   17  C           1      41.589 -11.959  -0.588  0.00  0.00     0.077 C 
BRANCH  17  18
HETATM   18  C           1      42.857 -11.864  -1.451  0.00  0.00     0.010 C 
BRANCH  18  19
HETATM   19  C           1      42.743 -12.725  -2.721  0.00  0.00    -0.004 C 
HETATM   20  C           1      42.109 -11.948  -3.883  0.00  0.00     0.005 C 
ENDBRANCH  18  19
ENDBRANCH  17  18
ENDBRANCH  16  17
ENDBRANCH   2  16
BRANCH   2  21
HETATM   21  S           1      39.669 -14.305   1.089  0.00  0.00    -0.125 SA
BRANCH  21  22
HETATM   22  C           1      39.660 -14.689  -0.691  0.00  0.00     0.077 C 
BRANCH  22  23
HETATM   23  C           1      38.606 -13.807  -1.381  0.00  0.00     0.010 C 
BRANCH  23  24
HETATM   24  C           1      38.756 -13.839  -2.910  0.00  0.00    -0.004 C 
HETATM   25  C           1      39.761 -14.906  -3.364  0.00  0.00     0.005 C 
ENDBRANCH  23  24
ENDBRANCH  22  23
ENDBRANCH  21  22
ENDBRANCH   2  21
BRANCH   3  26
HETATM   26  C           1      40.775 -16.884   2.414  0.00  0.00     0.105 C 
HETATM   27  N           1      40.118 -17.483   1.670  0.00  0.00    -0.151 N 
ENDBRANCH   3  26
BRANCH   1  28
HETATM   28  N           1      43.260 -17.017   0.380  0.00  0.00    -0.388 N 
HETATM   29  H           1      43.573 -16.894  -0.615  0.00  0.00     0.157 HD
HETATM   30  H           1      43.484 -17.917   0.870  0.00  0.00     0.157 HD
ENDBRANCH   1  28
BRANCH   7  31
HETATM   31  C           1      43.247 -18.260   3.332  0.00  0.00    -0.026 A 
HETATM   32  C           1      42.804 -19.007   2.304  0.00  0.00     0.009 A 
HETATM   33  C           1      43.302 -20.232   2.067  0.00  0.00     0.001 A 
HETATM   34  C           1      44.257 -20.737   2.862  0.00  0.00     0.000 A 
HETATM   35  C           1      44.703 -20.012   3.896  0.00  0.00     0.001 A 
HETATM   36  C           1      44.196 -18.791   4.126  0.00  0.00     0.009 A 
ENDBRANCH   7  31
TORSDOF 11
ENDMDL
MODEL 5
REMARK VINA RESULT:      -6.0      3.281      5.153
REMARK  11 active torsions:
REMARK  status: ('A' for Active; 'I' for Inactive)
REMARK    1  A    between atoms: C_1  and  C_17 
REMARK    2  A    between atoms: C_1  and  S_18 
REMARK    3  A    between atoms: C_2  and  N_23 
REMARK    4  A    between atoms: C_3  and  C_13 
REMARK    5  A    between atoms: C_6  and  S_18 
REMARK    6  A    between atoms: C_6  and  S_19 
REMARK    7  A    between atoms: C_7  and  C_20 
REMARK    8  A    between atoms: C_7  and  C_21 
REMARK    9  A    between atoms: C_9  and  C_24 
REMARK   10  A    between atoms: C_16  and  C_17 
REMARK   11  A    between atoms: S_19  and  C_20 
ROOT
HETATM    1  C           1      40.704 -15.424  -0.094  0.00  0.00     0.092 C 
HETATM    2  C           1      39.398 -13.416  -0.321  0.00  0.00     0.156 C 
HETATM    3  C           1      40.914 -14.623   1.159  0.00  0.00     0.127 C 
HETATM    4  C           1      40.577 -13.187   0.685  0.00  0.00     0.136 C 
HETATM    5  C           1      41.738 -12.580  -0.035  0.00  0.00     0.079 C 
HETATM    6  N           1      42.739 -12.154  -0.440  0.00  0.00    -0.196 NA
HETATM    7  C           1      42.232 -14.530   2.035  0.00  0.00     0.248 C 
HETATM    8  C           1      41.114 -12.588   3.106  0.00  0.00     0.105 C 
HETATM    9  N           1      39.860 -14.784  -0.862  0.00  0.00    -0.350 N 
HETATM   10  N           1      41.964 -13.743   3.359  0.00  0.00    -0.040 N 
HETATM   11  C           1      40.960 -11.654   4.281  0.00  0.00     0.075 C 
HETATM   12  C           1      40.460 -12.346   1.944  0.00  0.00     0.036 C 
HETATM   13  H           1      39.539 -15.161  -1.765  0.00  0.00     0.163 HD
HETATM   14  H           1      42.888 -13.395   3.705  0.00  0.00     0.284 HD
HETATM   15  H           1      41.561 -14.353   4.101  0.00  0.00     0.284 HD
ENDROOT
BRANCH   2  16
HETATM   16  S           1      39.402 -12.227  -1.703  0.00  0.00    -0.125 SA
BRANCH  16  17
HETATM   17  C           1      39.296 -13.304  -3.162  0.00  0.00     0.077 C 
BRANCH  17  18
HETATM   18  C           1      37.815 -13.554  -3.489  0.00  0.00     0.010 C 
BRANCH  18  19
HETATM   19  C           1      37.496 -15.057  -3.554  0.00  0.00    -0.004 C 
HETATM   20  C           1      38.645 -15.859  -4.179  0.00  0.00     0.005 C 
ENDBRANCH  18  19
ENDBRANCH  17  18
ENDBRANCH  16  17
ENDBRANCH   2  16
BRANCH   2  21
HETATM   21  S           1      37.825 -13.632   0.580  0.00  0.00    -0.125 SA
BRANCH  21  22
HETATM   22  C           1      36.972 -12.088   0.129  0.00  0.00     0.077 C 
BRANCH  22  23
HETATM   23  C           1      37.022 -11.127   1.329  0.00  0.00     0.010 C 
BRANCH  23  24
HETATM   24  C           1      35.726 -10.310   1.454  0.00  0.00    -0.004 C 
HETATM   25  C           1      34.589 -10.912   0.617  0.00  0.00     0.005 C 
ENDBRANCH  23  24
ENDBRANCH  22  23
ENDBRANCH  21  22
ENDBRANCH   2  21
BRANCH   3  26
HETATM   26  C           1      40.011 -15.068   2.251  0.00  0.00     0.105 C 
HETATM   27  N           1      39.326 -15.979   2.462  0.00  0.00    -0.151 N 
ENDBRANCH   3  26
BRANCH   1  28
HETATM   28  N           1      41.181 -16.574  -0.335  0.00  0.00    -0.388 N 
HETATM   29  H           1      40.565 -17.424  -0.312  0.00  0.00     0.157 HD
HETATM   30  H           1      42.198 -16.696  -0.560  0.00  0.00     0.157 HD
ENDBRANCH   1  28
BRANCH   7  31
HETATM   31  C           1      42.870 -15.885   2.298  0.00  0.00    -0.026 A 
HETATM   32  C           1      43.628 -16.530   1.392  0.00  0.00     0.009 A 
HETATM   33  C           1      44.180 -17.723   1.667  0.00  0.00     0.001 A 
HETATM   34  C           1      43.981 -18.299   2.861  0.00  0.00     0.000 A 
HETATM   35  C           1      43.220 -17.677   3.772  0.00  0.00     0.001 A 
HETATM   36  C           1      42.670 -16.488   3.486  0.00  0.00     0.009 A 
ENDBRANCH   7  31
TORSDOF 11
ENDMDL
MODEL 6
REMARK VINA RESULT:      -5.9      3.286      5.119
REMARK  11 active torsions:
REMARK  status: ('A' for Active; 'I' for Inactive)
REMARK    1  A    between atoms: C_1  and  C_17 
REMARK    2  A    between atoms: C_1  and  S_18 
REMARK    3  A    between atoms: C_2  and  N_23 
REMARK    4  A    between atoms: C_3  and  C_13 
REMARK    5  A    between atoms: C_6  and  S_18 
REMARK    6  A    between atoms: C_6  and  S_19 
REMARK    7  A    between atoms: C_7  and  C_20 
REMARK    8  A    between atoms: C_7  and  C_21 
REMARK    9  A    between atoms: C_9  and  C_24 
REMARK   10  A    between atoms: C_16  and  C_17 
REMARK   11  A    between atoms: S_19  and  C_20 
ROOT
HETATM    1  C           1      40.673 -15.258  -0.145  0.00  0.00     0.092 C 
HETATM    2  C           1      39.383 -13.227  -0.214  0.00  0.00     0.156 C 
HETATM    3  C           1      40.778 -14.627   1.215  0.00  0.00     0.127 C 
HETATM    4  C           1      40.476 -13.139   0.905  0.00  0.00     0.136 C 
HETATM    5  C           1      41.691 -12.454   0.366  0.00  0.00     0.079 C 
HETATM    6  N           1      42.719 -11.986   0.102  0.00  0.00    -0.196 NA
HETATM    7  C           1      42.020 -14.658   2.199  0.00  0.00     0.248 C 
HETATM    8  C           1      40.812 -12.863   3.419  0.00  0.00     0.105 C 
HETATM    9  N           1      39.892 -14.517  -0.890  0.00  0.00    -0.350 N 
HETATM   10  N           1      41.643 -14.048   3.588  0.00  0.00    -0.040 N 
HETATM   11  C           1      40.561 -12.088   4.689  0.00  0.00     0.075 C 
HETATM   12  C           1      40.255 -12.468   2.249  0.00  0.00     0.036 C 
HETATM   13  H           1      39.647 -14.771  -1.856  0.00  0.00     0.163 HD
HETATM   14  H           1      42.535 -13.755   4.049  0.00  0.00     0.284 HD
HETATM   15  H           1      41.183 -14.746   4.209  0.00  0.00     0.284 HD
ENDROOT
BRANCH   2  16
HETATM   16  S           1      39.496 -11.869  -1.425  0.00  0.00    -0.125 SA
BRANCH  16  17
HETATM   17  C           1      39.716 -12.749  -2.999  0.00  0.00     0.077 C 
BRANCH  17  18
HETATM   18  C           1      40.590 -11.892  -3.930  0.00  0.00     0.010 C 
BRANCH  18  19
HETATM   19  C           1      42.062 -11.898  -3.485  0.00  0.00    -0.004 C 
HETATM   20  C           1      42.595 -10.478  -3.253  0.00  0.00     0.005 C 
ENDBRANCH  18  19
ENDBRANCH  17  18
ENDBRANCH  16  17
ENDBRANCH   2  16
BRANCH   2  21
HETATM   21  S           1      37.744 -13.546   0.521  0.00  0.00    -0.125 SA
BRANCH  21  22
HETATM   22  C           1      36.880 -12.004   0.081  0.00  0.00     0.077 C 
BRANCH  22  23
HETATM   23  C           1      36.892 -11.066   1.299  0.00  0.00     0.010 C 
BRANCH  23  24
HETATM   24  C           1      35.569 -10.295   1.433  0.00  0.00    -0.004 C 
HETATM   25  C           1      34.475 -10.877   0.528  0.00  0.00     0.005 C 
ENDBRANCH  23  24
ENDBRANCH  22  23
ENDBRANCH  21  22
ENDBRANCH   2  21
BRANCH   3  26
HETATM   26  C           1      39.790 -15.203   2.163  0.00  0.00     0.105 C 
HETATM   27  N           1      39.111 -16.142   2.208  0.00  0.00    -0.151 N 
ENDBRANCH   3  26
BRANCH   1  28
HETATM   28  N           1      41.171 -16.370  -0.494  0.00  0.00    -0.388 N 
HETATM   29  H           1      40.886 -16.825  -1.397  0.00  0.00     0.157 HD
HETATM   30  H           1      41.876 -16.855   0.113  0.00  0.00     0.157 HD
ENDBRANCH   1  28
BRANCH   7  31
HETATM   31  C           1      42.638 -16.041   2.334  0.00  0.00    -0.026 A 
HETATM   32  C           1      42.258 -16.929   3.272  0.00  0.00     0.009 A 
HETATM   33  C           1      42.824 -18.144   3.353  0.00  0.00     0.001 A 
HETATM   34  C           1      43.792 -18.496   2.494  0.00  0.00     0.000 A 
HETATM   35  C           1      44.192 -17.621   1.560  0.00  0.00     0.001 A 
HETATM   36  C           1      43.621 -16.409   1.490  0.00  0.00     0.009 A 
ENDBRANCH   7  31
TORSDOF 11
ENDMDL
MODEL 7
REMARK VINA RESULT:      -5.8      2.259      6.827
REMARK  11 active torsions:
REMARK  status: ('A' for Active; 'I' for Inactive)
REMARK    1  A    between atoms: C_1  and  C_17 
REMARK    2  A    between atoms: C_1  and  S_18 
REMARK    3  A    between atoms: C_2  and  N_23 
REMARK    4  A    between atoms: C_3  and  C_13 
REMARK    5  A    between atoms: C_6  and  S_18 
REMARK    6  A    between atoms: C_6  and  S_19 
REMARK    7  A    between atoms: C_7  and  C_20 
REMARK    8  A    between atoms: C_7  and  C_21 
REMARK    9  A    between atoms: C_9  and  C_24 
REMARK   10  A    between atoms: C_16  and  C_17 
REMARK   11  A    between atoms: S_19  and  C_20 
ROOT
HETATM    1  C           1      41.087 -14.702   5.130  0.00  0.00     0.092 C 
HETATM    2  C           1      43.023 -15.940   5.844  0.00  0.00     0.156 C 
HETATM    3  C           1      41.626 -15.408   3.917  0.00  0.00     0.127 C 
HETATM    4  C           1      43.108 -15.637   4.309  0.00  0.00     0.136 C 
HETATM    5  C           1      43.913 -14.397   4.087  0.00  0.00     0.079 C 
HETATM    6  N           1      44.468 -13.439   3.739  0.00  0.00    -0.196 NA
HETATM    7  C           1      41.612 -14.897   2.417  0.00  0.00     0.248 C 
HETATM    8  C           1      43.228 -16.738   2.011  0.00  0.00     0.105 C 
HETATM    9  N           1      41.823 -15.025   6.162  0.00  0.00    -0.350 N 
HETATM   10  N           1      42.095 -16.020   1.444  0.00  0.00    -0.040 N 
HETATM   11  C           1      43.893 -17.708   1.065  0.00  0.00     0.075 C 
HETATM   12  C           1      43.666 -16.612   3.287  0.00  0.00     0.036 C 
HETATM   13  H           1      41.621 -14.684   7.112  0.00  0.00     0.163 HD
HETATM   14  H           1      42.416 -15.551   0.565  0.00  0.00     0.284 HD
HETATM   15  H           1      41.325 -16.672   1.187  0.00  0.00     0.284 HD
ENDROOT
BRANCH   2  16
HETATM   16  S           1      44.469 -15.323   6.770  0.00  0.00    -0.125 SA
BRANCH  16  17
HETATM   17  C           1      43.920 -13.683   7.328  0.00  0.00     0.077 C 
BRANCH  17  18
HETATM   18  C           1      45.051 -13.032   8.140  0.00  0.00     0.010 C 
BRANCH  18  19
HETATM   19  C           1      44.524 -11.892   9.029  0.00  0.00    -0.004 C 
HETATM   20  C           1      45.666 -11.102   9.682  0.00  0.00     0.005 C 
ENDBRANCH  18  19
ENDBRANCH  17  18
ENDBRANCH  16  17
ENDBRANCH   2  16
BRANCH   2  21
HETATM   21  S           1      42.541 -17.677   6.125  0.00  0.00    -0.125 SA
BRANCH  21  22
HETATM   22  C           1      44.172 -18.428   6.427  0.00  0.00     0.077 C 
BRANCH  22  23
HETATM   23  C           1      44.172 -19.854   5.852  0.00  0.00     0.010 C 
BRANCH  23  24
HETATM   24  C           1      45.125 -19.980   4.652  0.00  0.00    -0.004 C 
HETATM   25  C           1      44.397 -20.473   3.394  0.00  0.00     0.005 C 
ENDBRANCH  23  24
ENDBRANCH  22  23
ENDBRANCH  21  22
ENDBRANCH   2  21
BRANCH   3  26
HETATM   26  C           1      40.918 -16.690   3.671  0.00  0.00     0.105 C 
HETATM   27  N           1      40.219 -17.397   4.268  0.00  0.00    -0.151 N 
ENDBRANCH   3  26
BRANCH   1  28
HETATM   28  N           1      40.040 -13.989   5.175  0.00  0.00    -0.388 N 
HETATM   29  H           1      39.747 -13.526   6.071  0.00  0.00     0.157 HD
HETATM   30  H           1      39.448 -13.851   4.320  0.00  0.00     0.157 HD
ENDBRANCH   1  28
BRANCH   7  31
HETATM   31  C           1      40.270 -14.319   1.997  0.00  0.00    -0.026 A 
HETATM   32  C           1      39.220 -15.081   1.639  0.00  0.00     0.009 A 
HETATM   33  C           1      38.048 -14.531   1.282  0.00  0.00     0.001 A 
HETATM   34  C           1      37.903 -13.198   1.273  0.00  0.00     0.000 A 
HETATM   35  C           1      38.941 -12.422   1.616  0.00  0.00     0.001 A 
HETATM   36  C           1      40.108 -12.982   1.968  0.00  0.00     0.009 A 
ENDBRANCH   7  31
TORSDOF 11
ENDMDL
MODEL 8
REMARK VINA RESULT:      -5.8      3.351      8.250
REMARK  11 active torsions:
REMARK  status: ('A' for Active; 'I' for Inactive)
REMARK    1  A    between atoms: C_1  and  C_17 
REMARK    2  A    between atoms: C_1  and  S_18 
REMARK    3  A    between atoms: C_2  and  N_23 
REMARK    4  A    between atoms: C_3  and  C_13 
REMARK    5  A    between atoms: C_6  and  S_18 
REMARK    6  A    between atoms: C_6  and  S_19 
REMARK    7  A    between atoms: C_7  and  C_20 
REMARK    8  A    between atoms: C_7  and  C_21 
REMARK    9  A    between atoms: C_9  and  C_24 
REMARK   10  A    between atoms: C_16  and  C_17 
REMARK   11  A    between atoms: S_19  and  C_20 
ROOT
HETATM    1  C           1      38.385 -14.404   1.152  0.00  0.00     0.092 C 
HETATM    2  C           1      40.625 -14.932   1.856  0.00  0.00     0.156 C 
HETATM    3  C           1      39.258 -13.256   0.729  0.00  0.00     0.127 C 
HETATM    4  C           1      40.454 -13.382   1.707  0.00  0.00     0.136 C 
HETATM    5  C           1      40.116 -12.786   3.036  0.00  0.00     0.079 C 
HETATM    6  N           1      39.808 -12.169   3.970  0.00  0.00    -0.196 NA
HETATM    7  C           1      38.868 -11.722   0.661  0.00  0.00     0.248 C 
HETATM    8  C           1      41.312 -11.341   0.440  0.00  0.00     0.105 C 
HETATM    9  N           1      39.136 -15.312   1.721  0.00  0.00    -0.350 N 
HETATM   10  N           1      40.005 -10.890  -0.016  0.00  0.00    -0.040 N 
HETATM   11  C           1      42.464 -10.472  -0.002  0.00  0.00     0.075 C 
HETATM   12  C           1      41.535 -12.462   1.169  0.00  0.00     0.036 C 
HETATM   13  H           1      38.759 -16.206   2.063  0.00  0.00     0.163 HD
HETATM   14  H           1      39.882  -9.895   0.286  0.00  0.00     0.284 HD
HETATM   15  H           1      39.939 -10.911  -1.055  0.00  0.00     0.284 HD
ENDROOT
BRANCH   2  16
HETATM   16  S           1      41.190 -15.428   3.517  0.00  0.00    -0.125 SA
BRANCH  16  17
HETATM   17  C           1      42.973 -15.082   3.457  0.00  0.00     0.077 C 
BRANCH  17  18
HETATM   18  C           1      43.259 -13.814   4.277  0.00  0.00     0.010 C 
BRANCH  18  19
HETATM   19  C           1      43.045 -14.054   5.782  0.00  0.00    -0.004 C 
HETATM   20  C           1      43.853 -15.256   6.289  0.00  0.00     0.005 C 
ENDBRANCH  18  19
ENDBRANCH  17  18
ENDBRANCH  16  17
ENDBRANCH   2  16
BRANCH   2  21
HETATM   21  S           1      41.545 -15.611   0.433  0.00  0.00    -0.125 SA
BRANCH  21  22
HETATM   22  C           1      41.836 -17.313   1.009  0.00  0.00     0.077 C 
BRANCH  22  23
HETATM   23  C           1      43.341 -17.617   0.909  0.00  0.00     0.010 C 
BRANCH  23  24
HETATM   24  C           1      43.831 -18.444   2.108  0.00  0.00    -0.004 C 
HETATM   25  C           1      43.474 -19.930   1.962  0.00  0.00     0.005 C 
ENDBRANCH  23  24
ENDBRANCH  22  23
ENDBRANCH  21  22
ENDBRANCH   2  21
BRANCH   3  26
HETATM   26  C           1      39.689 -13.389  -0.686  0.00  0.00     0.105 C 
HETATM   27  N           1      39.404 -14.047  -1.597  0.00  0.00    -0.151 N 
ENDBRANCH   3  26
BRANCH   1  28
HETATM   28  N           1      37.146 -14.527   0.915  0.00  0.00    -0.388 N 
HETATM   29  H           1      36.758 -14.299  -0.034  0.00  0.00     0.157 HD
HETATM   30  H           1      36.488 -14.857   1.662  0.00  0.00     0.157 HD
ENDBRANCH   1  28
BRANCH   7  31
HETATM   31  C           1      37.517 -11.479   0.006  0.00  0.00    -0.026 A 
HETATM   32  C           1      37.358 -11.348  -1.324  0.00  0.00     0.009 A 
HETATM   33  C           1      36.146 -11.142  -1.865  0.00  0.00     0.001 A 
HETATM   34  C           1      35.062 -11.058  -1.079  0.00  0.00     0.000 A 
HETATM   35  C           1      35.203 -11.175   0.249  0.00  0.00     0.001 A 
HETATM   36  C           1      36.419 -11.377   0.778  0.00  0.00     0.009 A 
ENDBRANCH   7  31
TORSDOF 11
ENDMDL
MODEL 9
REMARK VINA RESULT:      -5.6      4.297      9.040
REMARK  11 active torsions:
REMARK  status: ('A' for Active; 'I' for Inactive)
REMARK    1  A    between atoms: C_1  and  C_17 
REMARK    2  A    between atoms: C_1  and  S_18 
REMARK    3  A    between atoms: C_2  and  N_23 
REMARK    4  A    between atoms: C_3  and  C_13 
REMARK    5  A    between atoms: C_6  and  S_18 
REMARK    6  A    between atoms: C_6  and  S_19 
REMARK    7  A    between atoms: C_7  and  C_20 
REMARK    8  A    between atoms: C_7  and  C_21 
REMARK    9  A    between atoms: C_9  and  C_24 
REMARK   10  A    between atoms: C_16  and  C_17 
REMARK   11  A    between atoms: S_19  and  C_20 
ROOT
HETATM    1  C           1      41.661 -12.624  -0.983  0.00  0.00     0.092 C 
HETATM    2  C           1      40.483 -14.596  -0.265  0.00  0.00     0.156 C 
HETATM    3  C           1      40.458 -12.763  -1.873  0.00  0.00     0.127 C 
HETATM    4  C           1      40.146 -14.277  -1.762  0.00  0.00     0.136 C 
HETATM    5  C           1      41.044 -15.070  -2.657  0.00  0.00     0.079 C 
HETATM    6  N           1      41.680 -15.571  -3.489  0.00  0.00    -0.196 NA
HETATM    7  C           1      40.341 -12.372  -3.404  0.00  0.00     0.248 C 
HETATM    8  C           1      38.237 -13.690  -3.349  0.00  0.00     0.105 C 
HETATM    9  N           1      41.642 -13.592  -0.102  0.00  0.00    -0.350 N 
HETATM   10  N           1      38.863 -12.495  -3.897  0.00  0.00    -0.040 N 
HETATM   11  C           1      36.877 -14.005  -3.921  0.00  0.00     0.075 C 
HETATM   12  C           1      38.771 -14.468  -2.376  0.00  0.00     0.036 C 
HETATM   13  H           1      42.354 -13.681   0.635  0.00  0.00     0.163 HD
HETATM   14  H           1      38.891 -12.593  -4.939  0.00  0.00     0.284 HD
HETATM   15  H           1      38.306 -11.643  -3.678  0.00  0.00     0.284 HD
ENDROOT
BRANCH   2  16
HETATM   16  S           1      41.151 -16.277  -0.031  0.00  0.00    -0.125 SA
BRANCH  16  17
HETATM   17  C           1      42.565 -15.998   1.075  0.00  0.00     0.077 C 
BRANCH  17  18
HETATM   18  C           1      43.441 -17.262   1.088  0.00  0.00     0.010 C 
BRANCH  18  19
HETATM   19  C           1      42.812 -18.376   1.942  0.00  0.00    -0.004 C 
HETATM   20  C           1      43.715 -18.774   3.117  0.00  0.00     0.005 C 
ENDBRANCH  18  19
ENDBRANCH  17  18
ENDBRANCH  16  17
ENDBRANCH   2  16
BRANCH   2  21
HETATM   21  S           1      39.103 -14.096   0.819  0.00  0.00    -0.125 SA
BRANCH  21  22
HETATM   22  C           1      40.022 -13.564   2.298  0.00  0.00     0.077 C 
BRANCH  22  23
HETATM   23  C           1      39.853 -14.630   3.394  0.00  0.00     0.010 C 
BRANCH  23  24
HETATM   24  C           1      41.158 -14.849   4.175  0.00  0.00    -0.004 C 
HETATM   25  C           1      41.222 -16.250   4.799  0.00  0.00     0.005 C 
ENDBRANCH  23  24
ENDBRANCH  22  23
ENDBRANCH  21  22
ENDBRANCH   2  21
BRANCH   3  26
HETATM   26  C           1      39.324 -11.931  -1.394  0.00  0.00     0.105 C 
HETATM   27  N           1      39.159 -11.111  -0.592  0.00  0.00    -0.151 N 
ENDBRANCH   3  26
BRANCH   1  28
HETATM   28  N           1      42.505 -11.679  -1.009  0.00  0.00    -0.388 N 
HETATM   29  H           1      42.410 -10.897  -1.705  0.00  0.00     0.157 HD
HETATM   30  H           1      43.311 -11.660  -0.338  0.00  0.00     0.157 HD
ENDBRANCH   1  28
BRANCH   7  31
HETATM   31  C           1      40.933 -11.007  -3.718  0.00  0.00    -0.026 A 
HETATM   32  C           1      40.308  -9.850  -3.432  0.00  0.00     0.009 A 
HETATM   33  C           1      40.869  -8.664  -3.718  0.00  0.00     0.001 A 
HETATM   34  C           1      42.074  -8.612  -4.304  0.00  0.00     0.000 A 
HETATM   35  C           1      42.708  -9.754  -4.607  0.00  0.00     0.001 A 
HETATM   36  C           1      42.136 -10.933  -4.319  0.00  0.00     0.009 A 
ENDBRANCH   7  31
TORSDOF 11
ENDMDL
MODEL 10
REMARK VINA RESULT:      -5.5      3.310      8.413
REMARK  11 active torsions:
REMARK  status: ('A' for Active; 'I' for Inactive)
REMARK    1  A    between atoms: C_1  and  C_17 
REMARK    2  A    between atoms: C_1  and  S_18 
REMARK    3  A    between atoms: C_2  and  N_23 
REMARK    4  A    between atoms: C_3  and  C_13 
REMARK    5  A    between atoms: C_6  and  S_18 
REMARK    6  A    between atoms: C_6  and  S_19 
REMARK    7  A    between atoms: C_7  and  C_20 
REMARK    8  A    between atoms: C_7  and  C_21 
REMARK    9  A    between atoms: C_9  and  C_24 
REMARK   10  A    between atoms: C_16  and  C_17 
REMARK   11  A    between atoms: S_19  and  C_20 
ROOT
HETATM    1  C           1      39.324 -12.422   2.046  0.00  0.00     0.092 C 
HETATM    2  C           1      40.977 -14.168   2.121  0.00  0.00     0.156 C 
HETATM    3  C           1      39.457 -12.957   0.648  0.00  0.00     0.127 C 
HETATM    4  C           1      40.877 -13.576   0.674  0.00  0.00     0.136 C 
HETATM    5  C           1      41.919 -12.519   0.492  0.00  0.00     0.079 C 
HETATM    6  N           1      42.632 -11.652   0.196  0.00  0.00    -0.196 NA
HETATM    7  C           1      39.321 -12.152  -0.710  0.00  0.00     0.248 C 
HETATM    8  C           1      40.331 -14.171  -1.746  0.00  0.00     0.105 C 
HETATM    9  N           1      40.116 -13.104   2.832  0.00  0.00    -0.350 N 
HETATM   10  N           1      39.336 -13.123  -1.935  0.00  0.00    -0.040 N 
HETATM   11  C           1      40.562 -15.040  -2.958  0.00  0.00     0.075 C 
HETATM   12  C           1      40.993 -14.411  -0.589  0.00  0.00     0.036 C 
HETATM   13  H           1      40.168 -12.935   3.846  0.00  0.00     0.163 HD
HETATM   14  H           1      39.614 -12.560  -2.772  0.00  0.00     0.284 HD
HETATM   15  H           1      38.395 -13.526  -2.126  0.00  0.00     0.284 HD
ENDROOT
BRANCH   2  16
HETATM   16  S           1      42.665 -14.085   2.807  0.00  0.00    -0.125 SA
BRANCH  16  17
HETATM   17  C           1      42.370 -13.687   4.555  0.00  0.00     0.077 C 
BRANCH  17  18
HETATM   18  C           1      43.023 -14.771   5.428  0.00  0.00     0.010 C 
BRANCH  18  19
HETATM   19  C           1      41.970 -15.693   6.066  0.00  0.00    -0.004 C 
HETATM   20  C           1      40.550 -15.134   5.909  0.00  0.00     0.005 C 
ENDBRANCH  18  19
ENDBRANCH  17  18
ENDBRANCH  16  17
ENDBRANCH   2  16
BRANCH   2  21
HETATM   21  S           1      40.127 -15.780   2.209  0.00  0.00    -0.125 SA
BRANCH  21  22
HETATM   22  C           1      41.538 -16.879   2.555  0.00  0.00     0.077 C 
BRANCH  22  23
HETATM   23  C           1      41.991 -17.530   1.238  0.00  0.00     0.010 C 
BRANCH  23  24
HETATM   24  C           1      43.503 -17.801   1.232  0.00  0.00    -0.004 C 
HETATM   25  C           1      43.858 -19.079   2.006  0.00  0.00     0.005 C 
ENDBRANCH  23  24
ENDBRANCH  22  23
ENDBRANCH  21  22
ENDBRANCH   2  21
BRANCH   3  26
HETATM   26  C           1      38.418 -13.976   0.351  0.00  0.00     0.105 C 
HETATM   27  N           1      37.417 -14.324   0.822  0.00  0.00    -0.151 N 
ENDBRANCH   3  26
BRANCH   1  28
HETATM   28  N           1      38.512 -11.526   2.429  0.00  0.00    -0.388 N 
HETATM   29  H           1      37.654 -11.306   1.864  0.00  0.00     0.157 HD
HETATM   30  H           1      38.683 -10.991   3.315  0.00  0.00     0.157 HD
ENDBRANCH   1  28
BRANCH   7  31
HETATM   31  C           1      38.117 -11.224  -0.735  0.00  0.00    -0.026 A 
HETATM   32  C           1      36.882 -11.630  -1.082  0.00  0.00     0.009 A 
HETATM   33  C           1      35.842 -10.780  -1.084  0.00  0.00     0.001 A 
HETATM   34  C           1      36.020  -9.497  -0.739  0.00  0.00     0.000 A 
HETATM   35  C           1      37.244  -9.070  -0.400  0.00  0.00     0.001 A 
HETATM   36  C           1      38.277  -9.928  -0.406  0.00  0.00     0.009 A 
ENDBRANCH   7  31
TORSDOF 11
ENDMDL
