MODEL 1
REMARK VINA RESULT:      -8.0      0.000      0.000
REMARK  5 active torsions:
REMARK  status: ('A' for Active; 'I' for Inactive)
REMARK    1  A    between atoms: C_2  and  N_3 
REMARK    2  A    between atoms: C_6  and  N_7 
REMARK       I    between atoms: N_7  and  C_8 
REMARK       I    between atoms: C_8  and  N_9 
REMARK    3  A    between atoms: N_9  and  C_10 
REMARK    4  A    between atoms: C_10  and  C_11 
REMARK    5  A    between atoms: C_12  and  C_13 
ROOT
HETATM    1  N   UNL     1      40.566 -16.951   2.948  1.00  0.00    -0.306 N 
HETATM    2  C   UNL     1      41.444 -17.292   3.924  1.00  0.00     0.321 C 
HETATM    3  N   UNL     1      42.777 -17.242   3.648  1.00  0.00    -0.339 N 
HETATM    4  O   UNL     1      41.000 -17.650   5.014  1.00  0.00    -0.247 OA
HETATM    5  H   UNL     1      39.607 -17.105   3.233  1.00  0.00     0.171 HD
HETATM    6  H   UNL     1      43.012 -17.463   2.692  1.00  0.00     0.164 HD
ENDROOT
BRANCH   3   7
HETATM    7  C   UNL     1      43.729 -17.704   4.640  1.00  0.00     0.163 C 
BRANCH   7   8
HETATM    8  C   UNL     1      44.037 -19.189   4.579  1.00  0.00    -0.022 A 
HETATM    9  C   UNL     1      44.150 -19.944   5.778  1.00  0.00     0.056 A 
HETATM   10  C   UNL     1      44.502 -21.308   5.711  1.00  0.00     0.020 A 
HETATM   11  C   UNL     1      44.741 -21.924   4.485  1.00  0.00     0.043 A 
HETATM   12  C   UNL     1      44.637 -21.181   3.319  1.00  0.00     0.117 A 
HETATM   13  F   UNL     1      44.879 -21.767   2.140  1.00  0.00    -0.206 F 
HETATM   14  C   UNL     1      44.297 -19.831   3.355  1.00  0.00     0.052 A 
BRANCH   9  15
HETATM   15  C   UNL     1      43.936 -19.309   7.140  1.00  0.00     0.418 C 
HETATM   16  F   UNL     1      44.980 -18.523   7.522  1.00  0.00    -0.166 F 
HETATM   17  F   UNL     1      42.834 -18.510   7.203  1.00  0.00    -0.166 F 
HETATM   18  F   UNL     1      43.781 -20.235   8.125  1.00  0.00    -0.166 F 
ENDBRANCH   9  15
ENDBRANCH   7   8
ENDBRANCH   3   7
BRANCH   1  19
HETATM   19  C   UNL     1      40.746 -16.390   1.701  1.00  0.00     0.072 A 
HETATM   20  C   UNL     1      41.382 -16.819   0.518  1.00  0.00     0.169 A 
HETATM   21  N   UNL     1      41.288 -15.923  -0.470  1.00  0.00    -0.183 NA
HETATM   22  N   UNL     1      40.617 -14.897   0.088  1.00  0.00    -0.275 N 
HETATM   23  C   UNL     1      40.288 -15.128   1.395  1.00  0.00     0.143 A 
BRANCH  22  24
HETATM   24  C   UNL     1      40.331 -13.703  -0.700  1.00  0.00     0.101 C 
HETATM   25  C   UNL     1      39.178 -13.948  -1.673  1.00  0.00     0.034 C 
HETATM   26  C   UNL     1      41.574 -13.193  -1.431  1.00  0.00     0.034 C 
ENDBRANCH  22  24
ENDBRANCH   1  19
TORSDOF 5
ENDMDL
MODEL 2
REMARK VINA RESULT:      -7.8      1.925      3.783
REMARK  5 active torsions:
REMARK  status: ('A' for Active; 'I' for Inactive)
REMARK    1  A    between atoms: C_2  and  N_3 
REMARK    2  A    between atoms: C_6  and  N_7 
REMARK       I    between atoms: N_7  and  C_8 
REMARK       I    between atoms: C_8  and  N_9 
REMARK    3  A    between atoms: N_9  and  C_10 
REMARK    4  A    between atoms: C_10  and  C_11 
REMARK    5  A    between atoms: C_12  and  C_13 
ROOT
HETATM    1  N   UNL     1      40.851 -16.050   0.811  1.00  0.00    -0.306 N 
HETATM    2  C   UNL     1      41.391 -17.267   1.071  1.00  0.00     0.321 C 
HETATM    3  N   UNL     1      42.744 -17.368   1.185  1.00  0.00    -0.339 N 
HETATM    4  O   UNL     1      40.637 -18.233   1.178  1.00  0.00    -0.247 OA
HETATM    5  H   UNL     1      39.851 -16.105   0.663  1.00  0.00     0.171 HD
HETATM    6  H   UNL     1      43.260 -16.729   0.597  1.00  0.00     0.164 HD
ENDROOT
BRANCH   3   7
HETATM    7  C   UNL     1      43.350 -18.674   1.357  1.00  0.00     0.163 C 
BRANCH   7   8
HETATM    8  C   UNL     1      43.853 -18.958   2.760  1.00  0.00    -0.022 A 
HETATM    9  C   UNL     1      44.146 -20.292   3.157  1.00  0.00     0.056 A 
HETATM   10  C   UNL     1      44.549 -20.552   4.483  1.00  0.00     0.020 A 
HETATM   11  C   UNL     1      44.663 -19.518   5.409  1.00  0.00     0.043 A 
HETATM   12  C   UNL     1      44.370 -18.220   5.019  1.00  0.00     0.117 A 
HETATM   13  F   UNL     1      44.467 -17.227   5.912  1.00  0.00    -0.206 F 
HETATM   14  C   UNL     1      43.964 -17.935   3.719  1.00  0.00     0.052 A 
BRANCH   9  15
HETATM   15  C   UNL     1      43.999 -21.458   2.195  1.00  0.00     0.418 C 
HETATM   16  F   UNL     1      42.747 -21.548   1.668  1.00  0.00    -0.166 F 
HETATM   17  F   UNL     1      44.842 -21.392   1.126  1.00  0.00    -0.166 F 
HETATM   18  F   UNL     1      44.247 -22.656   2.791  1.00  0.00    -0.166 F 
ENDBRANCH   9  15
ENDBRANCH   7   8
ENDBRANCH   3   7
BRANCH   1  19
HETATM   19  C   UNL     1      41.401 -14.786   0.776  1.00  0.00     0.072 A 
HETATM   20  C   UNL     1      41.963 -13.937   1.750  1.00  0.00     0.169 A 
HETATM   21  N   UNL     1      42.392 -12.778   1.237  1.00  0.00    -0.183 NA
HETATM   22  N   UNL     1      42.073 -12.868  -0.068  1.00  0.00    -0.275 N 
HETATM   23  C   UNL     1      41.461 -14.048  -0.385  1.00  0.00     0.143 A 
BRANCH  22  24
HETATM   24  C   UNL     1      42.382 -11.760  -0.967  1.00  0.00     0.101 C 
HETATM   25  C   UNL     1      41.211 -10.782  -1.060  1.00  0.00     0.034 C 
HETATM   26  C   UNL     1      42.803 -12.253  -2.352  1.00  0.00     0.034 C 
ENDBRANCH  22  24
ENDBRANCH   1  19
TORSDOF 5
ENDMDL
MODEL 3
REMARK VINA RESULT:      -7.8      2.102      2.648
REMARK  5 active torsions:
REMARK  status: ('A' for Active; 'I' for Inactive)
REMARK    1  A    between atoms: C_2  and  N_3 
REMARK    2  A    between atoms: C_6  and  N_7 
REMARK       I    between atoms: N_7  and  C_8 
REMARK       I    between atoms: C_8  and  N_9 
REMARK    3  A    between atoms: N_9  and  C_10 
REMARK    4  A    between atoms: C_10  and  C_11 
REMARK    5  A    between atoms: C_12  and  C_13 
ROOT
HETATM    1  N   UNL     1      42.625 -13.361   2.058  1.00  0.00    -0.306 N 
HETATM    2  C   UNL     1      43.156 -14.078   3.081  1.00  0.00     0.321 C 
HETATM    3  N   UNL     1      42.601 -15.282   3.390  1.00  0.00    -0.339 N 
HETATM    4  O   UNL     1      44.108 -13.602   3.699  1.00  0.00    -0.247 OA
HETATM    5  H   UNL     1      43.057 -12.450   1.972  1.00  0.00     0.171 HD
HETATM    6  H   UNL     1      41.605 -15.334   3.234  1.00  0.00     0.164 HD
ENDROOT
BRANCH   3   7
HETATM    7  C   UNL     1      43.084 -16.015   4.544  1.00  0.00     0.163 C 
BRANCH   7   8
HETATM    8  C   UNL     1      43.532 -17.435   4.250  1.00  0.00    -0.022 A 
HETATM    9  C   UNL     1      44.198 -18.195   5.251  1.00  0.00     0.056 A 
HETATM   10  C   UNL     1      44.668 -19.489   4.945  1.00  0.00     0.020 A 
HETATM   11  C   UNL     1      44.489 -20.031   3.675  1.00  0.00     0.043 A 
HETATM   12  C   UNL     1      43.845 -19.284   2.701  1.00  0.00     0.117 A 
HETATM   13  F   UNL     1      43.684 -19.798   1.475  1.00  0.00    -0.206 F 
HETATM   14  C   UNL     1      43.376 -18.001   2.972  1.00  0.00     0.052 A 
BRANCH   9  15
HETATM   15  C   UNL     1      44.451 -17.633   6.639  1.00  0.00     0.418 C 
HETATM   16  F   UNL     1      45.229 -18.450   7.401  1.00  0.00    -0.166 F 
HETATM   17  F   UNL     1      45.083 -16.426   6.632  1.00  0.00    -0.166 F 
HETATM   18  F   UNL     1      43.300 -17.446   7.340  1.00  0.00    -0.166 F 
ENDBRANCH   9  15
ENDBRANCH   7   8
ENDBRANCH   3   7
BRANCH   1  19
HETATM   19  C   UNL     1      41.673 -13.674   1.111  1.00  0.00     0.072 A 
HETATM   20  C   UNL     1      41.680 -14.457  -0.061  1.00  0.00     0.169 A 
HETATM   21  N   UNL     1      40.490 -14.484  -0.670  1.00  0.00    -0.183 NA
HETATM   22  N   UNL     1      39.720 -13.688   0.096  1.00  0.00    -0.275 N 
HETATM   23  C   UNL     1      40.395 -13.166   1.165  1.00  0.00     0.143 A 
BRANCH  22  24
HETATM   24  C   UNL     1      38.326 -13.459  -0.269  1.00  0.00     0.101 C 
HETATM   25  C   UNL     1      37.378 -14.119   0.732  1.00  0.00     0.034 C 
HETATM   26  C   UNL     1      38.030 -13.917  -1.698  1.00  0.00     0.034 C 
ENDBRANCH  22  24
ENDBRANCH   1  19
TORSDOF 5
ENDMDL
MODEL 4
REMARK VINA RESULT:      -7.6      2.782      3.502
REMARK  5 active torsions:
REMARK  status: ('A' for Active; 'I' for Inactive)
REMARK    1  A    between atoms: C_2  and  N_3 
REMARK    2  A    between atoms: C_6  and  N_7 
REMARK       I    between atoms: N_7  and  C_8 
REMARK       I    between atoms: C_8  and  N_9 
REMARK    3  A    between atoms: N_9  and  C_10 
REMARK    4  A    between atoms: C_10  and  C_11 
REMARK    5  A    between atoms: C_12  and  C_13 
ROOT
HETATM    1  N   UNL     1      40.185 -15.453   5.933  1.00  0.00    -0.306 N 
HETATM    2  C   UNL     1      41.328 -16.176   6.042  1.00  0.00     0.321 C 
HETATM    3  N   UNL     1      42.358 -15.896   5.196  1.00  0.00    -0.339 N 
HETATM    4  O   UNL     1      41.382 -17.066   6.890  1.00  0.00    -0.247 OA
HETATM    5  H   UNL     1      39.460 -15.800   6.549  1.00  0.00     0.171 HD
HETATM    6  H   UNL     1      42.071 -15.586   4.280  1.00  0.00     0.164 HD
ENDROOT
BRANCH   3   7
HETATM    7  C   UNL     1      43.548 -16.724   5.223  1.00  0.00     0.163 C 
BRANCH   7   8
HETATM    8  C   UNL     1      43.671 -17.694   4.062  1.00  0.00    -0.022 A 
HETATM    9  C   UNL     1      44.054 -19.043   4.297  1.00  0.00     0.056 A 
HETATM   10  C   UNL     1      44.229 -19.918   3.204  1.00  0.00     0.020 A 
HETATM   11  C   UNL     1      44.032 -19.476   1.898  1.00  0.00     0.043 A 
HETATM   12  C   UNL     1      43.665 -18.158   1.675  1.00  0.00     0.117 A 
HETATM   13  F   UNL     1      43.488 -17.728   0.419  1.00  0.00    -0.206 F 
HETATM   14  C   UNL     1      43.491 -17.270   2.733  1.00  0.00     0.052 A 
BRANCH   9  15
HETATM   15  C   UNL     1      44.318 -19.562   5.699  1.00  0.00     0.418 C 
HETATM   16  F   UNL     1      43.207 -19.536   6.486  1.00  0.00    -0.166 F 
HETATM   17  F   UNL     1      44.757 -20.852   5.730  1.00  0.00    -0.166 F 
HETATM   18  F   UNL     1      45.262 -18.832   6.353  1.00  0.00    -0.166 F 
ENDBRANCH   9  15
ENDBRANCH   7   8
ENDBRANCH   3   7
BRANCH   1  19
HETATM   19  C   UNL     1      39.871 -14.329   5.199  1.00  0.00     0.072 A 
HETATM   20  C   UNL     1      39.678 -12.971   5.524  1.00  0.00     0.169 A 
HETATM   21  N   UNL     1      39.397 -12.221   4.453  1.00  0.00    -0.183 NA
HETATM   22  N   UNL     1      39.376 -13.105   3.438  1.00  0.00    -0.275 N 
HETATM   23  C   UNL     1      39.637 -14.384   3.844  1.00  0.00     0.143 A 
BRANCH  22  24
HETATM   24  C   UNL     1      39.082 -12.647   2.084  1.00  0.00     0.101 C 
HETATM   25  C   UNL     1      38.099 -11.477   2.098  1.00  0.00     0.034 C 
HETATM   26  C   UNL     1      38.576 -13.785   1.196  1.00  0.00     0.034 C 
ENDBRANCH  22  24
ENDBRANCH   1  19
TORSDOF 5
ENDMDL
MODEL 5
REMARK VINA RESULT:      -7.5      7.346      9.467
REMARK  5 active torsions:
REMARK  status: ('A' for Active; 'I' for Inactive)
REMARK    1  A    between atoms: C_2  and  N_3 
REMARK    2  A    between atoms: C_6  and  N_7 
REMARK       I    between atoms: N_7  and  C_8 
REMARK       I    between atoms: C_8  and  N_9 
REMARK    3  A    between atoms: N_9  and  C_10 
REMARK    4  A    between atoms: C_10  and  C_11 
REMARK    5  A    between atoms: C_12  and  C_13 
ROOT
HETATM    1  N   UNL     1      45.095 -13.778   7.572  1.00  0.00    -0.306 N 
HETATM    2  C   UNL     1      44.965 -12.782   8.486  1.00  0.00     0.321 C 
HETATM    3  N   UNL     1      43.789 -12.097   8.538  1.00  0.00    -0.339 N 
HETATM    4  O   UNL     1      45.920 -12.528   9.218  1.00  0.00    -0.247 OA
HETATM    5  H   UNL     1      46.032 -14.160   7.563  1.00  0.00     0.171 HD
HETATM    6  H   UNL     1      43.327 -11.995   7.647  1.00  0.00     0.164 HD
ENDROOT
BRANCH   3   7
HETATM    7  C   UNL     1      43.665 -10.962   9.432  1.00  0.00     0.163 C 
BRANCH   7   8
HETATM    8  C   UNL     1      42.275 -10.758  10.007  1.00  0.00    -0.022 A 
HETATM    9  C   UNL     1      42.062 -10.849  11.410  1.00  0.00     0.056 A 
HETATM   10  C   UNL     1      40.756 -10.723  11.926  1.00  0.00     0.020 A 
HETATM   11  C   UNL     1      39.671 -10.511  11.078  1.00  0.00     0.043 A 
HETATM   12  C   UNL     1      39.883 -10.430   9.710  1.00  0.00     0.117 A 
HETATM   13  F   UNL     1      38.840 -10.240   8.892  1.00  0.00    -0.206 F 
HETATM   14  C   UNL     1      41.161 -10.557   9.172  1.00  0.00     0.052 A 
BRANCH   9  15
HETATM   15  C   UNL     1      43.206 -11.117  12.371  1.00  0.00     0.418 C 
HETATM   16  F   UNL     1      44.234 -10.237  12.221  1.00  0.00    -0.166 F 
HETATM   17  F   UNL     1      42.846 -11.038  13.683  1.00  0.00    -0.166 F 
HETATM   18  F   UNL     1      43.742 -12.357  12.207  1.00  0.00    -0.166 F 
ENDBRANCH   9  15
ENDBRANCH   7   8
ENDBRANCH   3   7
BRANCH   1  19
HETATM   19  C   UNL     1      44.185 -14.379   6.728  1.00  0.00     0.072 A 
HETATM   20  C   UNL     1      43.583 -14.003   5.511  1.00  0.00     0.169 A 
HETATM   21  N   UNL     1      42.752 -14.938   5.037  1.00  0.00    -0.183 NA
HETATM   22  N   UNL     1      42.795 -15.908   5.971  1.00  0.00    -0.275 N 
HETATM   23  C   UNL     1      43.628 -15.606   7.012  1.00  0.00     0.143 A 
BRANCH  22  24
HETATM   24  C   UNL     1      41.988 -17.112   5.802  1.00  0.00     0.101 C 
HETATM   25  C   UNL     1      42.032 -17.608   4.357  1.00  0.00     0.034 C 
HETATM   26  C   UNL     1      40.548 -16.901   6.271  1.00  0.00     0.034 C 
ENDBRANCH  22  24
ENDBRANCH   1  19
TORSDOF 5
ENDMDL
MODEL 6
REMARK VINA RESULT:      -7.4      1.849      2.742
REMARK  5 active torsions:
REMARK  status: ('A' for Active; 'I' for Inactive)
REMARK    1  A    between atoms: C_2  and  N_3 
REMARK    2  A    between atoms: C_6  and  N_7 
REMARK       I    between atoms: N_7  and  C_8 
REMARK       I    between atoms: C_8  and  N_9 
REMARK    3  A    between atoms: N_9  and  C_10 
REMARK    4  A    between atoms: C_10  and  C_11 
REMARK    5  A    between atoms: C_12  and  C_13 
ROOT
HETATM    1  N   UNL     1      40.528 -15.462   0.807  1.00  0.00    -0.306 N 
HETATM    2  C   UNL     1      40.566 -16.257   1.906  1.00  0.00     0.321 C 
HETATM    3  N   UNL     1      41.546 -16.047   2.828  1.00  0.00    -0.339 N 
HETATM    4  O   UNL     1      39.724 -17.146   2.017  1.00  0.00    -0.247 OA
HETATM    5  H   UNL     1      39.816 -15.760   0.152  1.00  0.00     0.171 HD
HETATM    6  H   UNL     1      42.419 -15.721   2.440  1.00  0.00     0.164 HD
ENDROOT
BRANCH   3   7
HETATM    7  C   UNL     1      41.670 -16.950   3.956  1.00  0.00     0.163 C 
BRANCH   7   8
HETATM    8  C   UNL     1      42.688 -18.061   3.768  1.00  0.00    -0.022 A 
HETATM    9  C   UNL     1      43.724 -18.249   4.724  1.00  0.00     0.056 A 
HETATM   10  C   UNL     1      44.702 -19.241   4.505  1.00  0.00     0.020 A 
HETATM   11  C   UNL     1      44.666 -20.038   3.363  1.00  0.00     0.043 A 
HETATM   12  C   UNL     1      43.659 -19.845   2.431  1.00  0.00     0.117 A 
HETATM   13  F   UNL     1      43.631 -20.601   1.326  1.00  0.00    -0.206 F 
HETATM   14  C   UNL     1      42.683 -18.870   2.617  1.00  0.00     0.052 A 
BRANCH   9  15
HETATM   15  C   UNL     1      43.827 -17.380   5.964  1.00  0.00     0.418 C 
HETATM   16  F   UNL     1      43.868 -16.051   5.672  1.00  0.00    -0.166 F 
HETATM   17  F   UNL     1      42.783 -17.533   6.826  1.00  0.00    -0.166 F 
HETATM   18  F   UNL     1      44.949 -17.642   6.689  1.00  0.00    -0.166 F 
ENDBRANCH   9  15
ENDBRANCH   7   8
ENDBRANCH   3   7
BRANCH   1  19
HETATM   19  C   UNL     1      41.225 -14.321   0.470  1.00  0.00     0.072 A 
HETATM   20  C   UNL     1      41.688 -13.207   1.198  1.00  0.00     0.169 A 
HETATM   21  N   UNL     1      42.347 -12.330   0.433  1.00  0.00    -0.183 NA
HETATM   22  N   UNL     1      42.280 -12.866  -0.801  1.00  0.00    -0.275 N 
HETATM   23  C   UNL     1      41.600 -14.052  -0.827  1.00  0.00     0.143 A 
BRANCH  22  24
HETATM   24  C   UNL     1      42.891 -12.170  -1.928  1.00  0.00     0.101 C 
HETATM   25  C   UNL     1      43.200 -10.715  -1.576  1.00  0.00     0.034 C 
HETATM   26  C   UNL     1      42.030 -12.264  -3.189  1.00  0.00     0.034 C 
ENDBRANCH  22  24
ENDBRANCH   1  19
TORSDOF 5
ENDMDL
MODEL 7
REMARK VINA RESULT:      -7.3      2.610      4.538
REMARK  5 active torsions:
REMARK  status: ('A' for Active; 'I' for Inactive)
REMARK    1  A    between atoms: C_2  and  N_3 
REMARK    2  A    between atoms: C_6  and  N_7 
REMARK       I    between atoms: N_7  and  C_8 
REMARK       I    between atoms: C_8  and  N_9 
REMARK    3  A    between atoms: N_9  and  C_10 
REMARK    4  A    between atoms: C_10  and  C_11 
REMARK    5  A    between atoms: C_12  and  C_13 
ROOT
HETATM    1  N   UNL     1      40.895 -16.142   2.763  1.00  0.00    -0.306 N 
HETATM    2  C   UNL     1      41.804 -17.124   2.535  1.00  0.00     0.321 C 
HETATM    3  N   UNL     1      42.727 -17.393   3.500  1.00  0.00    -0.339 N 
HETATM    4  O   UNL     1      41.767 -17.720   1.460  1.00  0.00    -0.247 OA
HETATM    5  H   UNL     1      40.315 -15.971   1.951  1.00  0.00     0.171 HD
HETATM    6  H   UNL     1      43.013 -16.588   4.037  1.00  0.00     0.164 HD
ENDROOT
BRANCH   3   7
HETATM    7  C   UNL     1      43.772 -18.363   3.236  1.00  0.00     0.163 C 
BRANCH   7   8
HETATM    8  C   UNL     1      43.983 -19.382   4.340  1.00  0.00    -0.022 A 
HETATM    9  C   UNL     1      44.367 -20.713   4.019  1.00  0.00     0.056 A 
HETATM   10  C   UNL     1      44.496 -21.669   5.048  1.00  0.00     0.020 A 
HETATM   11  C   UNL     1      44.250 -21.325   6.375  1.00  0.00     0.043 A 
HETATM   12  C   UNL     1      43.869 -20.028   6.682  1.00  0.00     0.117 A 
HETATM   13  F   UNL     1      43.619 -19.699   7.956  1.00  0.00    -0.206 F 
HETATM   14  C   UNL     1      43.728 -19.065   5.687  1.00  0.00     0.052 A 
BRANCH   9  15
HETATM   15  C   UNL     1      44.608 -21.146   2.584  1.00  0.00     0.418 C 
HETATM   16  F   UNL     1      45.675 -20.516   2.018  1.00  0.00    -0.166 F 
HETATM   17  F   UNL     1      44.858 -22.479   2.451  1.00  0.00    -0.166 F 
HETATM   18  F   UNL     1      43.544 -20.885   1.778  1.00  0.00    -0.166 F 
ENDBRANCH   9  15
ENDBRANCH   7   8
ENDBRANCH   3   7
BRANCH   1  19
HETATM   19  C   UNL     1      40.594 -15.408   3.891  1.00  0.00     0.072 A 
HETATM   20  C   UNL     1      40.829 -15.591   5.268  1.00  0.00     0.169 A 
HETATM   21  N   UNL     1      40.357 -14.582   6.009  1.00  0.00    -0.183 NA
HETATM   22  N   UNL     1      39.786 -13.761   5.107  1.00  0.00    -0.275 N 
HETATM   23  C   UNL     1      39.889 -14.227   3.826  1.00  0.00     0.143 A 
BRANCH  22  24
HETATM   24  C   UNL     1      39.138 -12.532   5.554  1.00  0.00     0.101 C 
HETATM   25  C   UNL     1      39.021 -11.524   4.412  1.00  0.00     0.034 C 
HETATM   26  C   UNL     1      39.851 -11.921   6.762  1.00  0.00     0.034 C 
ENDBRANCH  22  24
ENDBRANCH   1  19
TORSDOF 5
ENDMDL
MODEL 8
REMARK VINA RESULT:      -7.3      3.998      6.578
REMARK  5 active torsions:
REMARK  status: ('A' for Active; 'I' for Inactive)
REMARK    1  A    between atoms: C_2  and  N_3 
REMARK    2  A    between atoms: C_6  and  N_7 
REMARK       I    between atoms: N_7  and  C_8 
REMARK       I    between atoms: C_8  and  N_9 
REMARK    3  A    between atoms: N_9  and  C_10 
REMARK    4  A    between atoms: C_10  and  C_11 
REMARK    5  A    between atoms: C_12  and  C_13 
ROOT
HETATM    1  N   UNL     1      44.408 -19.583   7.001  1.00  0.00    -0.306 N 
HETATM    2  C   UNL     1      43.656 -18.518   7.377  1.00  0.00     0.321 C 
HETATM    3  N   UNL     1      42.879 -17.906   6.441  1.00  0.00    -0.339 N 
HETATM    4  O   UNL     1      43.719 -18.138   8.546  1.00  0.00    -0.247 OA
HETATM    5  H   UNL     1      45.007 -19.905   7.751  1.00  0.00     0.171 HD
HETATM    6  H   UNL     1      43.266 -17.915   5.509  1.00  0.00     0.164 HD
ENDROOT
BRANCH   3   7
HETATM    7  C   UNL     1      42.150 -16.703   6.795  1.00  0.00     0.163 C 
BRANCH   7   8
HETATM    8  C   UNL     1      42.227 -15.591   5.765  1.00  0.00    -0.022 A 
HETATM    9  C   UNL     1      43.308 -14.668   5.791  1.00  0.00     0.056 A 
HETATM   10  C   UNL     1      43.334 -13.599   4.871  1.00  0.00     0.020 A 
HETATM   11  C   UNL     1      42.313 -13.437   3.938  1.00  0.00     0.043 A 
HETATM   12  C   UNL     1      41.258 -14.335   3.922  1.00  0.00     0.117 A 
HETATM   13  F   UNL     1      40.268 -14.173   3.034  1.00  0.00    -0.206 F 
HETATM   14  C   UNL     1      41.202 -15.396   4.821  1.00  0.00     0.052 A 
BRANCH   9  15
HETATM   15  C   UNL     1      44.425 -14.781   6.813  1.00  0.00     0.418 C 
HETATM   16  F   UNL     1      45.252 -13.699   6.808  1.00  0.00    -0.166 F 
HETATM   17  F   UNL     1      43.981 -14.895   8.096  1.00  0.00    -0.166 F 
HETATM   18  F   UNL     1      45.219 -15.864   6.596  1.00  0.00    -0.166 F 
ENDBRANCH   9  15
ENDBRANCH   7   8
ENDBRANCH   3   7
BRANCH   1  19
HETATM   19  C   UNL     1      44.449 -20.316   5.833  1.00  0.00     0.072 A 
HETATM   20  C   UNL     1      44.600 -21.686   5.544  1.00  0.00     0.169 A 
HETATM   21  N   UNL     1      44.564 -21.942   4.231  1.00  0.00    -0.183 NA
HETATM   22  N   UNL     1      44.421 -20.726   3.671  1.00  0.00    -0.275 N 
HETATM   23  C   UNL     1      44.366 -19.720   4.595  1.00  0.00     0.143 A 
BRANCH  22  24
HETATM   24  C   UNL     1      44.355 -20.600   2.219  1.00  0.00     0.101 C 
HETATM   25  C   UNL     1      43.486 -19.412   1.807  1.00  0.00     0.034 C 
HETATM   26  C   UNL     1      43.875 -21.893   1.558  1.00  0.00     0.034 C 
ENDBRANCH  22  24
ENDBRANCH   1  19
TORSDOF 5
ENDMDL
MODEL 9
REMARK VINA RESULT:      -7.3      3.873      4.728
REMARK  5 active torsions:
REMARK  status: ('A' for Active; 'I' for Inactive)
REMARK    1  A    between atoms: C_2  and  N_3 
REMARK    2  A    between atoms: C_6  and  N_7 
REMARK       I    between atoms: N_7  and  C_8 
REMARK       I    between atoms: C_8  and  N_9 
REMARK    3  A    between atoms: N_9  and  C_10 
REMARK    4  A    between atoms: C_10  and  C_11 
REMARK    5  A    between atoms: C_12  and  C_13 
ROOT
HETATM    1  N   UNL     1      43.210 -13.854   6.380  1.00  0.00    -0.306 N 
HETATM    2  C   UNL     1      43.383 -15.200   6.369  1.00  0.00     0.321 C 
HETATM    3  N   UNL     1      42.567 -15.956   5.582  1.00  0.00    -0.339 N 
HETATM    4  O   UNL     1      44.260 -15.685   7.083  1.00  0.00    -0.247 OA
HETATM    5  H   UNL     1      43.809 -13.403   7.059  1.00  0.00     0.171 HD
HETATM    6  H   UNL     1      41.632 -15.591   5.483  1.00  0.00     0.164 HD
ENDROOT
BRANCH   3   7
HETATM    7  C   UNL     1      42.665 -17.402   5.636  1.00  0.00     0.163 C 
BRANCH   7   8
HETATM    8  C   UNL     1      42.844 -18.074   4.287  1.00  0.00    -0.022 A 
HETATM    9  C   UNL     1      43.833 -19.081   4.117  1.00  0.00     0.056 A 
HETATM   10  C   UNL     1      44.035 -19.651   2.843  1.00  0.00     0.020 A 
HETATM   11  C   UNL     1      43.277 -19.239   1.749  1.00  0.00     0.043 A 
HETATM   12  C   UNL     1      42.319 -18.252   1.919  1.00  0.00     0.117 A 
HETATM   13  F   UNL     1      41.599 -17.846   0.865  1.00  0.00    -0.206 F 
HETATM   14  C   UNL     1      42.102 -17.667   3.163  1.00  0.00     0.052 A 
BRANCH   9  15
HETATM   15  C   UNL     1      44.710 -19.536   5.270  1.00  0.00     0.418 C 
HETATM   16  F   UNL     1      43.987 -19.948   6.347  1.00  0.00    -0.166 F 
HETATM   17  F   UNL     1      45.525 -20.582   4.955  1.00  0.00    -0.166 F 
HETATM   18  F   UNL     1      45.529 -18.548   5.720  1.00  0.00    -0.166 F 
ENDBRANCH   9  15
ENDBRANCH   7   8
ENDBRANCH   3   7
BRANCH   1  19
HETATM   19  C   UNL     1      42.429 -13.019   5.608  1.00  0.00     0.072 A 
HETATM   20  C   UNL     1      42.346 -12.760   4.226  1.00  0.00     0.169 A 
HETATM   21  N   UNL     1      41.405 -11.857   3.927  1.00  0.00    -0.183 NA
HETATM   22  N   UNL     1      40.901 -11.510   5.127  1.00  0.00    -0.275 N 
HETATM   23  C   UNL     1      41.499 -12.170   6.164  1.00  0.00     0.143 A 
BRANCH  22  24
HETATM   24  C   UNL     1      39.837 -10.514   5.205  1.00  0.00     0.101 C 
HETATM   25  C   UNL     1      39.482 -10.200   6.658  1.00  0.00     0.034 C 
HETATM   26  C   UNL     1      38.601 -10.940   4.411  1.00  0.00     0.034 C 
ENDBRANCH  22  24
ENDBRANCH   1  19
TORSDOF 5
ENDMDL
MODEL 10
REMARK VINA RESULT:      -7.2      3.823      4.756
REMARK  5 active torsions:
REMARK  status: ('A' for Active; 'I' for Inactive)
REMARK    1  A    between atoms: C_2  and  N_3 
REMARK    2  A    between atoms: C_6  and  N_7 
REMARK       I    between atoms: N_7  and  C_8 
REMARK       I    between atoms: C_8  and  N_9 
REMARK    3  A    between atoms: N_9  and  C_10 
REMARK    4  A    between atoms: C_10  and  C_11 
REMARK    5  A    between atoms: C_12  and  C_13 
ROOT
HETATM    1  N   UNL     1      42.387 -13.046   6.234  1.00  0.00    -0.306 N 
HETATM    2  C   UNL     1      43.177 -14.124   5.991  1.00  0.00     0.321 C 
HETATM    3  N   UNL     1      42.618 -15.224   5.416  1.00  0.00    -0.339 N 
HETATM    4  O   UNL     1      44.362 -14.068   6.316  1.00  0.00    -0.247 OA
HETATM    5  H   UNL     1      42.883 -12.322   6.738  1.00  0.00     0.171 HD
HETATM    6  H   UNL     1      41.654 -15.382   5.670  1.00  0.00     0.164 HD
ENDROOT
BRANCH   3   7
HETATM    7  C   UNL     1      43.416 -16.422   5.245  1.00  0.00     0.163 C 
BRANCH   7   8
HETATM    8  C   UNL     1      43.398 -17.000   3.841  1.00  0.00    -0.022 A 
HETATM    9  C   UNL     1      43.905 -18.307   3.601  1.00  0.00     0.056 A 
HETATM   10  C   UNL     1      43.943 -18.807   2.283  1.00  0.00     0.020 A 
HETATM   11  C   UNL     1      43.492 -18.036   1.214  1.00  0.00     0.043 A 
HETATM   12  C   UNL     1      43.006 -16.761   1.453  1.00  0.00     0.117 A 
HETATM   13  F   UNL     1      42.585 -16.013   0.425  1.00  0.00    -0.206 F 
HETATM   14  C   UNL     1      42.961 -16.238   2.743  1.00  0.00     0.052 A 
BRANCH   9  15
HETATM   15  C   UNL     1      44.443 -19.170   4.728  1.00  0.00     0.418 C 
HETATM   16  F   UNL     1      44.996 -20.331   4.280  1.00  0.00    -0.166 F 
HETATM   17  F   UNL     1      45.414 -18.562   5.465  1.00  0.00    -0.166 F 
HETATM   18  F   UNL     1      43.474 -19.530   5.613  1.00  0.00    -0.166 F 
ENDBRANCH   9  15
ENDBRANCH   7   8
ENDBRANCH   3   7
BRANCH   1  19
HETATM   19  C   UNL     1      41.090 -12.754   5.870  1.00  0.00     0.072 A 
HETATM   20  C   UNL     1      39.844 -12.860   6.520  1.00  0.00     0.169 A 
HETATM   21  N   UNL     1      38.830 -12.431   5.761  1.00  0.00    -0.183 NA
HETATM   22  N   UNL     1      39.421 -12.077   4.604  1.00  0.00    -0.275 N 
HETATM   23  C   UNL     1      40.775 -12.271   4.619  1.00  0.00     0.143 A 
BRANCH  22  24
HETATM   24  C   UNL     1      38.612 -11.562   3.504  1.00  0.00     0.101 C 
HETATM   25  C   UNL     1      39.352 -11.680   2.172  1.00  0.00     0.034 C 
HETATM   26  C   UNL     1      38.156 -10.124   3.759  1.00  0.00     0.034 C 
ENDBRANCH  22  24
ENDBRANCH   1  19
TORSDOF 5
ENDMDL
