MODEL 1
REMARK VINA RESULT:      -8.9      0.000      0.000
REMARK  6 active torsions:
REMARK  status: ('A' for Active; 'I' for Inactive)
REMARK    1  A    between atoms: O_2  and  C_3 
REMARK    2  A    between atoms: C_6  and  C_7 
REMARK    3  A    between atoms: C_7  and  N_8 
REMARK       I    between atoms: N_8  and  C_9 
REMARK    4  A    between atoms: C_9  and  C_10 
REMARK    5  A    between atoms: C_10  and  O_11 
REMARK    6  A    between atoms: N_12  and  C_13 
ROOT
HETATM    1  C   UNL     1      40.744 -14.677   3.360  1.00  0.00     0.256 C 
HETATM    2  N   UNL     1      40.905 -14.319   4.774  1.00  0.00    -0.248 N 
HETATM    3  C   UNL     1      40.012 -13.447   5.374  1.00  0.00     0.330 C 
HETATM    4  O   UNL     1      39.819 -13.369   6.588  1.00  0.00    -0.246 OA
HETATM    5  N   UNL     1      39.305 -12.618   4.556  1.00  0.00    -0.308 N 
HETATM    6  C   UNL     1      39.459 -12.543   3.178  1.00  0.00     0.048 A 
HETATM    7  C   UNL     1      40.215 -13.516   2.529  1.00  0.00     0.034 A 
HETATM    8  C   UNL     1      38.855 -11.496   2.478  1.00  0.00     0.030 A 
HETATM    9  C   UNL     1      39.028 -11.399   1.100  1.00  0.00     0.002 A 
HETATM   10  C   UNL     1      39.782 -12.357   0.428  1.00  0.00     0.001 A 
HETATM   11  C   UNL     1      40.362 -13.416   1.133  1.00  0.00     0.015 A 
HETATM   12  H   UNL     1      38.722 -11.950   5.041  1.00  0.00     0.170 HD
ENDROOT
BRANCH   1  13
HETATM   13  C   UNL     1      42.091 -15.225   2.705  1.00  0.00     0.279 C 
HETATM   14  N   UNL     1      41.996 -16.549   2.298  1.00  0.00    -0.352 N 
HETATM   15  H   UNL     1      41.084 -16.991   2.373  1.00  0.00     0.162 HD
HETATM   16  O   UNL     1      43.115 -14.560   2.563  1.00  0.00    -0.268 OA
BRANCH  14  17
HETATM   17  C   UNL     1      43.080 -17.265   1.678  1.00  0.00     0.161 C 
BRANCH  17  18
HETATM   18  C   UNL     1      43.632 -18.324   2.593  1.00  0.00    -0.040 A 
HETATM   19  C   UNL     1      43.914 -18.024   3.933  1.00  0.00     0.011 A 
HETATM   20  C   UNL     1      44.402 -19.009   4.798  1.00  0.00     0.037 A 
HETATM   21  C   UNL     1      44.621 -20.305   4.333  1.00  0.00     0.068 A 
HETATM   22  C   UNL     1      44.380 -20.597   2.990  1.00  0.00     0.037 A 
HETATM   23  C   UNL     1      43.889 -19.618   2.123  1.00  0.00     0.011 A 
BRANCH  21  24
HETATM   24  O   UNL     1      45.074 -21.358   5.079  1.00  0.00    -0.356 OA
HETATM   25  C   UNL     1      44.760 -22.659   4.596  1.00  0.00     0.210 C 
ENDBRANCH  21  24
ENDBRANCH  17  18
ENDBRANCH  14  17
ENDBRANCH   1  13
BRANCH   1  26
HETATM   26  O   UNL     1      39.732 -15.692   3.290  1.00  0.00    -0.359 OA
HETATM   27  H   UNL     1      39.545 -15.773   2.339  1.00  0.00     0.213 HD
ENDBRANCH   1  26
BRANCH   2  28
HETATM   28  C   UNL     1      41.861 -14.983   5.618  1.00  0.00     0.120 A 
HETATM   29  C   UNL     1      43.130 -14.458   5.886  1.00  0.00     0.146 A 
HETATM   30  F   UNL     1      43.532 -13.326   5.289  1.00  0.00    -0.204 F 
HETATM   31  C   UNL     1      44.037 -15.114   6.721  1.00  0.00     0.045 A 
HETATM   32  C   UNL     1      43.687 -16.326   7.312  1.00  0.00     0.006 A 
HETATM   33  C   UNL     1      42.431 -16.873   7.062  1.00  0.00     0.045 A 
HETATM   34  C   UNL     1      41.535 -16.205   6.226  1.00  0.00     0.146 A 
HETATM   35  F   UNL     1      40.309 -16.734   6.080  1.00  0.00    -0.204 F 
ENDBRANCH   2  28
TORSDOF 6
ENDMDL
MODEL 2
REMARK VINA RESULT:      -8.9      2.411      6.910
REMARK  6 active torsions:
REMARK  status: ('A' for Active; 'I' for Inactive)
REMARK    1  A    between atoms: O_2  and  C_3 
REMARK    2  A    between atoms: C_6  and  C_7 
REMARK    3  A    between atoms: C_7  and  N_8 
REMARK       I    between atoms: N_8  and  C_9 
REMARK    4  A    between atoms: C_9  and  C_10 
REMARK    5  A    between atoms: C_10  and  O_11 
REMARK    6  A    between atoms: N_12  and  C_13 
ROOT
HETATM    1  C   UNL     1      43.439 -17.799   2.638  1.00  0.00     0.256 C 
HETATM    2  N   UNL     1      43.314 -17.204   3.974  1.00  0.00    -0.248 N 
HETATM    3  C   UNL     1      44.090 -17.679   5.019  1.00  0.00     0.330 C 
HETATM    4  O   UNL     1      44.346 -17.045   6.043  1.00  0.00    -0.246 OA
HETATM    5  N   UNL     1      44.598 -18.938   4.898  1.00  0.00    -0.308 N 
HETATM    6  C   UNL     1      44.344 -19.795   3.836  1.00  0.00     0.048 A 
HETATM    7  C   UNL     1      43.717 -19.295   2.698  1.00  0.00     0.034 A 
HETATM    8  C   UNL     1      44.721 -21.137   3.935  1.00  0.00     0.030 A 
HETATM    9  C   UNL     1      44.446 -22.009   2.886  1.00  0.00     0.002 A 
HETATM   10  C   UNL     1      43.816 -21.535   1.739  1.00  0.00     0.001 A 
HETATM   11  C   UNL     1      43.465 -20.185   1.637  1.00  0.00     0.015 A 
HETATM   12  H   UNL     1      45.094 -19.268   5.713  1.00  0.00     0.170 HD
ENDROOT
BRANCH   1  13
HETATM   13  C   UNL     1      42.161 -17.534   1.723  1.00  0.00     0.279 C 
HETATM   14  N   UNL     1      42.354 -16.513   0.803  1.00  0.00    -0.352 N 
HETATM   15  H   UNL     1      43.287 -16.113   0.747  1.00  0.00     0.162 HD
HETATM   16  O   UNL     1      41.106 -18.161   1.805  1.00  0.00    -0.268 OA
BRANCH  14  17
HETATM   17  C   UNL     1      41.346 -16.091  -0.134  1.00  0.00     0.161 C 
BRANCH  17  18
HETATM   18  C   UNL     1      40.545 -14.937   0.405  1.00  0.00    -0.040 A 
HETATM   19  C   UNL     1      40.863 -13.622   0.037  1.00  0.00     0.011 A 
HETATM   20  C   UNL     1      40.107 -12.545   0.512  1.00  0.00     0.037 A 
HETATM   21  C   UNL     1      39.028 -12.768   1.366  1.00  0.00     0.068 A 
HETATM   22  C   UNL     1      38.734 -14.072   1.767  1.00  0.00     0.037 A 
HETATM   23  C   UNL     1      39.483 -15.151   1.293  1.00  0.00     0.011 A 
BRANCH  21  24
HETATM   24  O   UNL     1      38.202 -11.806   1.882  1.00  0.00    -0.356 OA
HETATM   25  C   UNL     1      38.496 -11.360   3.201  1.00  0.00     0.210 C 
ENDBRANCH  21  24
ENDBRANCH  17  18
ENDBRANCH  14  17
ENDBRANCH   1  13
BRANCH   1  26
HETATM   26  O   UNL     1      44.597 -17.219   2.020  1.00  0.00    -0.359 OA
HETATM   27  H   UNL     1      44.303 -16.330   1.756  1.00  0.00     0.213 HD
ENDBRANCH   1  26
BRANCH   2  28
HETATM   28  C   UNL     1      42.537 -16.017   4.203  1.00  0.00     0.120 A 
HETATM   29  C   UNL     1      42.959 -14.745   3.801  1.00  0.00     0.146 A 
HETATM   30  F   UNL     1      44.167 -14.580   3.241  1.00  0.00    -0.204 F 
HETATM   31  C   UNL     1      42.180 -13.607   4.022  1.00  0.00     0.045 A 
HETATM   32  C   UNL     1      40.946 -13.722   4.659  1.00  0.00     0.006 A 
HETATM   33  C   UNL     1      40.502 -14.974   5.072  1.00  0.00     0.045 A 
HETATM   34  C   UNL     1      41.291 -16.103   4.844  1.00  0.00     0.146 A 
HETATM   35  F   UNL     1      40.783 -17.297   5.189  1.00  0.00    -0.204 F 
ENDBRANCH   2  28
TORSDOF 6
ENDMDL
MODEL 3
REMARK VINA RESULT:      -8.7      2.579      7.057
REMARK  6 active torsions:
REMARK  status: ('A' for Active; 'I' for Inactive)
REMARK    1  A    between atoms: O_2  and  C_3 
REMARK    2  A    between atoms: C_6  and  C_7 
REMARK    3  A    between atoms: C_7  and  N_8 
REMARK       I    between atoms: N_8  and  C_9 
REMARK    4  A    between atoms: C_9  and  C_10 
REMARK    5  A    between atoms: C_10  and  O_11 
REMARK    6  A    between atoms: N_12  and  C_13 
ROOT
HETATM    1  C   UNL     1      43.338 -17.619   2.678  1.00  0.00     0.256 C 
HETATM    2  N   UNL     1      43.205 -17.036   4.018  1.00  0.00    -0.248 N 
HETATM    3  C   UNL     1      43.987 -17.509   5.060  1.00  0.00     0.330 C 
HETATM    4  O   UNL     1      44.234 -16.880   6.089  1.00  0.00    -0.246 OA
HETATM    5  N   UNL     1      44.510 -18.760   4.929  1.00  0.00    -0.308 N 
HETATM    6  C   UNL     1      44.268 -19.613   3.860  1.00  0.00     0.048 A 
HETATM    7  C   UNL     1      43.635 -19.111   2.725  1.00  0.00     0.034 A 
HETATM    8  C   UNL     1      44.662 -20.950   3.949  1.00  0.00     0.030 A 
HETATM    9  C   UNL     1      44.399 -21.817   2.892  1.00  0.00     0.002 A 
HETATM   10  C   UNL     1      43.763 -21.342   1.749  1.00  0.00     0.001 A 
HETATM   11  C   UNL     1      43.395 -19.996   1.658  1.00  0.00     0.015 A 
HETATM   12  H   UNL     1      45.010 -19.091   5.742  1.00  0.00     0.170 HD
ENDROOT
BRANCH   1  13
HETATM   13  C   UNL     1      42.057 -17.363   1.763  1.00  0.00     0.279 C 
HETATM   14  N   UNL     1      42.341 -16.615   0.629  1.00  0.00    -0.352 N 
HETATM   15  H   UNL     1      43.317 -16.391   0.456  1.00  0.00     0.162 HD
HETATM   16  O   UNL     1      40.929 -17.780   2.017  1.00  0.00    -0.268 OA
BRANCH  14  17
HETATM   17  C   UNL     1      41.348 -16.255  -0.350  1.00  0.00     0.161 C 
BRANCH  17  18
HETATM   18  C   UNL     1      41.352 -14.775  -0.617  1.00  0.00    -0.040 A 
HETATM   19  C   UNL     1      41.681 -13.873   0.404  1.00  0.00     0.011 A 
HETATM   20  C   UNL     1      41.714 -12.496   0.158  1.00  0.00     0.037 A 
HETATM   21  C   UNL     1      41.413 -12.003  -1.111  1.00  0.00     0.068 A 
HETATM   22  C   UNL     1      41.046 -12.895  -2.119  1.00  0.00     0.037 A 
HETATM   23  C   UNL     1      41.015 -14.271  -1.879  1.00  0.00     0.011 A 
BRANCH  21  24
HETATM   24  O   UNL     1      41.429 -10.687  -1.484  1.00  0.00    -0.356 OA
HETATM   25  C   UNL     1      41.313 -10.422  -2.877  1.00  0.00     0.210 C 
ENDBRANCH  21  24
ENDBRANCH  17  18
ENDBRANCH  14  17
ENDBRANCH   1  13
BRANCH   1  26
HETATM   26  O   UNL     1      44.489 -17.019   2.065  1.00  0.00    -0.359 OA
HETATM   27  H   UNL     1      44.115 -16.376   1.437  1.00  0.00     0.213 HD
ENDBRANCH   1  26
BRANCH   2  28
HETATM   28  C   UNL     1      42.412 -15.861   4.256  1.00  0.00     0.120 A 
HETATM   29  C   UNL     1      42.805 -14.584   3.840  1.00  0.00     0.146 A 
HETATM   30  F   UNL     1      44.000 -14.402   3.256  1.00  0.00    -0.204 F 
HETATM   31  C   UNL     1      42.012 -13.458   4.069  1.00  0.00     0.045 A 
HETATM   32  C   UNL     1      40.793 -13.590   4.731  1.00  0.00     0.006 A 
HETATM   33  C   UNL     1      40.377 -14.847   5.158  1.00  0.00     0.045 A 
HETATM   34  C   UNL     1      41.180 -15.964   4.920  1.00  0.00     0.146 A 
HETATM   35  F   UNL     1      40.698 -17.165   5.281  1.00  0.00    -0.204 F 
ENDBRANCH   2  28
TORSDOF 6
ENDMDL
MODEL 4
REMARK VINA RESULT:      -8.6      2.218      4.025
REMARK  6 active torsions:
REMARK  status: ('A' for Active; 'I' for Inactive)
REMARK    1  A    between atoms: O_2  and  C_3 
REMARK    2  A    between atoms: C_6  and  C_7 
REMARK    3  A    between atoms: C_7  and  N_8 
REMARK       I    between atoms: N_8  and  C_9 
REMARK    4  A    between atoms: C_9  and  C_10 
REMARK    5  A    between atoms: C_10  and  O_11 
REMARK    6  A    between atoms: N_12  and  C_13 
ROOT
HETATM    1  C   UNL     1      42.070 -13.604   3.229  1.00  0.00     0.256 C 
HETATM    2  N   UNL     1      41.339 -14.824   2.867  1.00  0.00    -0.248 N 
HETATM    3  C   UNL     1      39.983 -14.762   2.586  1.00  0.00     0.330 C 
HETATM    4  O   UNL     1      39.366 -15.602   1.931  1.00  0.00    -0.246 OA
HETATM    5  N   UNL     1      39.293 -13.694   3.078  1.00  0.00    -0.308 N 
HETATM    6  C   UNL     1      39.835 -12.704   3.886  1.00  0.00     0.048 A 
HETATM    7  C   UNL     1      41.218 -12.641   4.043  1.00  0.00     0.034 A 
HETATM    8  C   UNL     1      38.984 -11.797   4.521  1.00  0.00     0.030 A 
HETATM    9  C   UNL     1      39.518 -10.817   5.354  1.00  0.00     0.002 A 
HETATM   10  C   UNL     1      40.896 -10.737   5.531  1.00  0.00     0.001 A 
HETATM   11  C   UNL     1      41.743 -11.632   4.872  1.00  0.00     0.015 A 
HETATM   12  H   UNL     1      38.297 -13.729   2.912  1.00  0.00     0.170 HD
ENDROOT
BRANCH   1  13
HETATM   13  C   UNL     1      43.424 -13.907   4.015  1.00  0.00     0.279 C 
HETATM   14  N   UNL     1      43.212 -14.331   5.319  1.00  0.00    -0.352 N 
HETATM   15  H   UNL     1      42.248 -14.488   5.602  1.00  0.00     0.162 HD
HETATM   16  O   UNL     1      44.549 -13.786   3.532  1.00  0.00    -0.268 OA
BRANCH  14  17
HETATM   17  C   UNL     1      44.278 -14.666   6.226  1.00  0.00     0.161 C 
BRANCH  17  18
HETATM   18  C   UNL     1      44.164 -16.087   6.706  1.00  0.00    -0.040 A 
HETATM   19  C   UNL     1      43.419 -16.387   7.856  1.00  0.00     0.011 A 
HETATM   20  C   UNL     1      43.284 -17.709   8.295  1.00  0.00     0.037 A 
HETATM   21  C   UNL     1      43.897 -18.746   7.594  1.00  0.00     0.068 A 
HETATM   22  C   UNL     1      44.672 -18.447   6.473  1.00  0.00     0.037 A 
HETATM   23  C   UNL     1      44.807 -17.130   6.028  1.00  0.00     0.011 A 
BRANCH  21  24
HETATM   24  O   UNL     1      43.826 -20.076   7.907  1.00  0.00    -0.356 OA
HETATM   25  C   UNL     1      43.775 -20.983   6.812  1.00  0.00     0.210 C 
ENDBRANCH  21  24
ENDBRANCH  17  18
ENDBRANCH  14  17
ENDBRANCH   1  13
BRANCH   1  26
HETATM   26  O   UNL     1      42.372 -12.911   2.009  1.00  0.00    -0.359 OA
HETATM   27  H   UNL     1      43.284 -13.181   1.803  1.00  0.00     0.213 HD
ENDBRANCH   1  26
BRANCH   2  28
HETATM   28  C   UNL     1      42.017 -16.067   2.618  1.00  0.00     0.120 A 
HETATM   29  C   UNL     1      42.089 -17.095   3.564  1.00  0.00     0.146 A 
HETATM   30  F   UNL     1      41.577 -16.919   4.792  1.00  0.00    -0.204 F 
HETATM   31  C   UNL     1      42.741 -18.300   3.295  1.00  0.00     0.045 A 
HETATM   32  C   UNL     1      43.344 -18.502   2.055  1.00  0.00     0.006 A 
HETATM   33  C   UNL     1      43.290 -17.496   1.094  1.00  0.00     0.045 A 
HETATM   34  C   UNL     1      42.633 -16.297   1.378  1.00  0.00     0.146 A 
HETATM   35  F   UNL     1      42.540 -15.390   0.392  1.00  0.00    -0.204 F 
ENDBRANCH   2  28
TORSDOF 6
ENDMDL
MODEL 5
REMARK VINA RESULT:      -8.5      1.990      3.832
REMARK  6 active torsions:
REMARK  status: ('A' for Active; 'I' for Inactive)
REMARK    1  A    between atoms: O_2  and  C_3 
REMARK    2  A    between atoms: C_6  and  C_7 
REMARK    3  A    between atoms: C_7  and  N_8 
REMARK       I    between atoms: N_8  and  C_9 
REMARK    4  A    between atoms: C_9  and  C_10 
REMARK    5  A    between atoms: C_10  and  O_11 
REMARK    6  A    between atoms: N_12  and  C_13 
ROOT
HETATM    1  C   UNL     1      42.229 -13.314   4.773  1.00  0.00     0.256 C 
HETATM    2  N   UNL     1      41.373 -14.318   4.131  1.00  0.00    -0.248 N 
HETATM    3  C   UNL     1      40.077 -13.992   3.766  1.00  0.00     0.330 C 
HETATM    4  O   UNL     1      39.418 -14.593   2.917  1.00  0.00    -0.246 OA
HETATM    5  N   UNL     1      39.498 -12.933   4.399  1.00  0.00    -0.308 N 
HETATM    6  C   UNL     1      40.089 -12.202   5.421  1.00  0.00     0.048 A 
HETATM    7  C   UNL     1      41.442 -12.389   5.691  1.00  0.00     0.034 A 
HETATM    8  C   UNL     1      39.314 -11.298   6.152  1.00  0.00     0.030 A 
HETATM    9  C   UNL     1      39.892 -10.580   7.194  1.00  0.00     0.002 A 
HETATM   10  C   UNL     1      41.242 -10.753   7.487  1.00  0.00     0.001 A 
HETATM   11  C   UNL     1      42.017 -11.639   6.734  1.00  0.00     0.015 A 
HETATM   12  H   UNL     1      38.530 -12.779   4.155  1.00  0.00     0.170 HD
ENDROOT
BRANCH   1  13
HETATM   13  C   UNL     1      43.438 -13.963   5.586  1.00  0.00     0.279 C 
HETATM   14  N   UNL     1      43.016 -14.789   6.619  1.00  0.00    -0.352 N 
HETATM   15  H   UNL     1      42.017 -14.962   6.693  1.00  0.00     0.162 HD
HETATM   16  O   UNL     1      44.626 -13.767   5.338  1.00  0.00    -0.268 OA
BRANCH  14  17
HETATM   17  C   UNL     1      43.921 -15.488   7.493  1.00  0.00     0.161 C 
BRANCH  17  18
HETATM   18  C   UNL     1      44.060 -16.932   7.095  1.00  0.00    -0.040 A 
HETATM   19  C   UNL     1      43.224 -17.905   7.660  1.00  0.00     0.011 A 
HETATM   20  C   UNL     1      43.327 -19.247   7.277  1.00  0.00     0.037 A 
HETATM   21  C   UNL     1      44.273 -19.634   6.329  1.00  0.00     0.068 A 
HETATM   22  C   UNL     1      45.135 -18.675   5.795  1.00  0.00     0.037 A 
HETATM   23  C   UNL     1      45.033 -17.334   6.171  1.00  0.00     0.011 A 
BRANCH  21  24
HETATM   24  O   UNL     1      44.461 -20.904   5.857  1.00  0.00    -0.356 OA
HETATM   25  C   UNL     1      44.955 -21.020   4.527  1.00  0.00     0.210 C 
ENDBRANCH  21  24
ENDBRANCH  17  18
ENDBRANCH  14  17
ENDBRANCH   1  13
BRANCH   1  26
HETATM   26  O   UNL     1      42.751 -12.472   3.735  1.00  0.00    -0.359 OA
HETATM   27  H   UNL     1      43.183 -13.092   3.122  1.00  0.00     0.213 HD
ENDBRANCH   1  26
BRANCH   2  28
HETATM   28  C   UNL     1      41.890 -15.588   3.700  1.00  0.00     0.120 A 
HETATM   29  C   UNL     1      42.771 -15.722   2.621  1.00  0.00     0.146 A 
HETATM   30  F   UNL     1      43.111 -14.649   1.890  1.00  0.00    -0.204 F 
HETATM   31  C   UNL     1      43.272 -16.965   2.229  1.00  0.00     0.045 A 
HETATM   32  C   UNL     1      42.894 -18.116   2.918  1.00  0.00     0.006 A 
HETATM   33  C   UNL     1      42.017 -18.013   3.995  1.00  0.00     0.045 A 
HETATM   34  C   UNL     1      41.526 -16.763   4.376  1.00  0.00     0.146 A 
HETATM   35  F   UNL     1      40.747 -16.708   5.468  1.00  0.00    -0.204 F 
ENDBRANCH   2  28
TORSDOF 6
ENDMDL
MODEL 6
REMARK VINA RESULT:      -8.3      2.218      4.199
REMARK  6 active torsions:
REMARK  status: ('A' for Active; 'I' for Inactive)
REMARK    1  A    between atoms: O_2  and  C_3 
REMARK    2  A    between atoms: C_6  and  C_7 
REMARK    3  A    between atoms: C_7  and  N_8 
REMARK       I    between atoms: N_8  and  C_9 
REMARK    4  A    between atoms: C_9  and  C_10 
REMARK    5  A    between atoms: C_10  and  O_11 
REMARK    6  A    between atoms: N_12  and  C_13 
ROOT
HETATM    1  C   UNL     1      42.374 -13.658   4.586  1.00  0.00     0.256 C 
HETATM    2  N   UNL     1      41.902 -13.850   3.210  1.00  0.00    -0.248 N 
HETATM    3  C   UNL     1      41.765 -12.760   2.366  1.00  0.00     0.330 C 
HETATM    4  O   UNL     1      41.747 -12.826   1.137  1.00  0.00    -0.246 OA
HETATM    5  N   UNL     1      41.636 -11.534   2.947  1.00  0.00    -0.308 N 
HETATM    6  C   UNL     1      41.572 -11.308   4.316  1.00  0.00     0.048 A 
HETATM    7  C   UNL     1      41.879 -12.350   5.188  1.00  0.00     0.034 A 
HETATM    8  C   UNL     1      41.202 -10.045   4.784  1.00  0.00     0.030 A 
HETATM    9  C   UNL     1      41.110  -9.819   6.155  1.00  0.00     0.002 A 
HETATM   10  C   UNL     1      41.407 -10.845   7.047  1.00  0.00     0.001 A 
HETATM   11  C   UNL     1      41.801 -12.099   6.570  1.00  0.00     0.015 A 
HETATM   12  H   UNL     1      41.464 -10.780   2.297  1.00  0.00     0.170 HD
ENDROOT
BRANCH   1  13
HETATM   13  C   UNL     1      41.978 -14.866   5.549  1.00  0.00     0.279 C 
HETATM   14  N   UNL     1      43.080 -15.523   6.077  1.00  0.00    -0.352 N 
HETATM   15  H   UNL     1      43.994 -15.126   5.877  1.00  0.00     0.162 HD
HETATM   16  O   UNL     1      40.822 -15.195   5.811  1.00  0.00    -0.268 OA
BRANCH  14  17
HETATM   17  C   UNL     1      42.978 -16.645   6.974  1.00  0.00     0.161 C 
BRANCH  17  18
HETATM   18  C   UNL     1      43.494 -17.906   6.336  1.00  0.00    -0.040 A 
HETATM   19  C   UNL     1      43.570 -19.094   7.076  1.00  0.00     0.011 A 
HETATM   20  C   UNL     1      44.022 -20.277   6.484  1.00  0.00     0.037 A 
HETATM   21  C   UNL     1      44.411 -20.287   5.145  1.00  0.00     0.068 A 
HETATM   22  C   UNL     1      44.375 -19.098   4.416  1.00  0.00     0.037 A 
HETATM   23  C   UNL     1      43.921 -17.914   5.002  1.00  0.00     0.011 A 
BRANCH  21  24
HETATM   24  O   UNL     1      44.851 -21.378   4.446  1.00  0.00    -0.356 OA
HETATM   25  C   UNL     1      45.180 -22.531   5.212  1.00  0.00     0.210 C 
ENDBRANCH  21  24
ENDBRANCH  17  18
ENDBRANCH  14  17
ENDBRANCH   1  13
BRANCH   1  26
HETATM   26  O   UNL     1      43.803 -13.539   4.534  1.00  0.00    -0.359 OA
HETATM   27  H   UNL     1      43.967 -13.007   3.736  1.00  0.00     0.213 HD
ENDBRANCH   1  26
BRANCH   2  28
HETATM   28  C   UNL     1      41.744 -15.161   2.641  1.00  0.00     0.120 A 
HETATM   29  C   UNL     1      40.495 -15.763   2.459  1.00  0.00     0.146 A 
HETATM   30  F   UNL     1      39.381 -15.151   2.890  1.00  0.00    -0.204 F 
HETATM   31  C   UNL     1      40.364 -17.032   1.891  1.00  0.00     0.045 A 
HETATM   32  C   UNL     1      41.498 -17.733   1.488  1.00  0.00     0.006 A 
HETATM   33  C   UNL     1      42.755 -17.160   1.658  1.00  0.00     0.045 A 
HETATM   34  C   UNL     1      42.870 -15.890   2.227  1.00  0.00     0.146 A 
HETATM   35  F   UNL     1      44.097 -15.348   2.297  1.00  0.00    -0.204 F 
ENDBRANCH   2  28
TORSDOF 6
ENDMDL
MODEL 7
REMARK VINA RESULT:      -8.2      2.496      3.796
REMARK  6 active torsions:
REMARK  status: ('A' for Active; 'I' for Inactive)
REMARK    1  A    between atoms: O_2  and  C_3 
REMARK    2  A    between atoms: C_6  and  C_7 
REMARK    3  A    between atoms: C_7  and  N_8 
REMARK       I    between atoms: N_8  and  C_9 
REMARK    4  A    between atoms: C_9  and  C_10 
REMARK    5  A    between atoms: C_10  and  O_11 
REMARK    6  A    between atoms: N_12  and  C_13 
ROOT
HETATM    1  C   UNL     1      40.664 -15.020   0.934  1.00  0.00     0.256 C 
HETATM    2  N   UNL     1      41.345 -14.029   1.775  1.00  0.00    -0.248 N 
HETATM    3  C   UNL     1      41.588 -12.755   1.287  1.00  0.00     0.330 C 
HETATM    4  O   UNL     1      41.795 -11.766   1.990  1.00  0.00    -0.246 OA
HETATM    5  N   UNL     1      41.601 -12.598  -0.066  1.00  0.00    -0.308 N 
HETATM    6  C   UNL     1      41.449 -13.628  -0.985  1.00  0.00     0.048 A 
HETATM    7  C   UNL     1      41.034 -14.879  -0.536  1.00  0.00     0.034 A 
HETATM    8  C   UNL     1      41.717 -13.385  -2.335  1.00  0.00     0.030 A 
HETATM    9  C   UNL     1      41.593 -14.419  -3.259  1.00  0.00     0.002 A 
HETATM   10  C   UNL     1      41.185 -15.680  -2.834  1.00  0.00     0.001 A 
HETATM   11  C   UNL     1      40.893 -15.908  -1.486  1.00  0.00     0.015 A 
HETATM   12  H   UNL     1      41.855 -11.671  -0.377  1.00  0.00     0.170 HD
ENDROOT
BRANCH   1  13
HETATM   13  C   UNL     1      40.933 -16.519   1.405  1.00  0.00     0.279 C 
HETATM   14  N   UNL     1      42.282 -16.840   1.454  1.00  0.00    -0.352 N 
HETATM   15  H   UNL     1      42.942 -16.087   1.279  1.00  0.00     0.162 HD
HETATM   16  O   UNL     1      40.050 -17.322   1.702  1.00  0.00    -0.268 OA
BRANCH  14  17
HETATM   17  C   UNL     1      42.774 -18.133   1.852  1.00  0.00     0.161 C 
BRANCH  17  18
HETATM   18  C   UNL     1      42.973 -18.209   3.341  1.00  0.00    -0.040 A 
HETATM   19  C   UNL     1      41.874 -18.127   4.207  1.00  0.00     0.011 A 
HETATM   20  C   UNL     1      42.046 -18.223   5.592  1.00  0.00     0.037 A 
HETATM   21  C   UNL     1      43.320 -18.398   6.130  1.00  0.00     0.068 A 
HETATM   22  C   UNL     1      44.422 -18.439   5.273  1.00  0.00     0.037 A 
HETATM   23  C   UNL     1      44.254 -18.347   3.890  1.00  0.00     0.011 A 
BRANCH  21  24
HETATM   24  O   UNL     1      43.618 -18.526   7.459  1.00  0.00    -0.356 OA
HETATM   25  C   UNL     1      43.418 -17.372   8.267  1.00  0.00     0.210 C 
ENDBRANCH  21  24
ENDBRANCH  17  18
ENDBRANCH  14  17
ENDBRANCH   1  13
BRANCH   1  26
HETATM   26  O   UNL     1      39.258 -14.743   1.003  1.00  0.00    -0.359 OA
HETATM   27  H   UNL     1      38.840 -15.618   0.921  1.00  0.00     0.213 HD
ENDBRANCH   1  26
BRANCH   2  28
HETATM   28  C   UNL     1      41.616 -14.276   3.165  1.00  0.00     0.120 A 
HETATM   29  C   UNL     1      40.608 -14.342   4.134  1.00  0.00     0.146 A 
HETATM   30  F   UNL     1      39.332 -14.097   3.799  1.00  0.00    -0.204 F 
HETATM   31  C   UNL     1      40.893 -14.597   5.477  1.00  0.00     0.045 A 
HETATM   32  C   UNL     1      42.212 -14.794   5.882  1.00  0.00     0.006 A 
HETATM   33  C   UNL     1      43.235 -14.732   4.941  1.00  0.00     0.045 A 
HETATM   34  C   UNL     1      42.934 -14.477   3.602  1.00  0.00     0.146 A 
HETATM   35  F   UNL     1      43.947 -14.507   2.720  1.00  0.00    -0.204 F 
ENDBRANCH   2  28
TORSDOF 6
ENDMDL
MODEL 8
REMARK VINA RESULT:      -8.2      2.619      4.921
REMARK  6 active torsions:
REMARK  status: ('A' for Active; 'I' for Inactive)
REMARK    1  A    between atoms: O_2  and  C_3 
REMARK    2  A    between atoms: C_6  and  C_7 
REMARK    3  A    between atoms: C_7  and  N_8 
REMARK       I    between atoms: N_8  and  C_9 
REMARK    4  A    between atoms: C_9  and  C_10 
REMARK    5  A    between atoms: C_10  and  O_11 
REMARK    6  A    between atoms: N_12  and  C_13 
ROOT
HETATM    1  C   UNL     1      41.356 -13.932   1.909  1.00  0.00     0.256 C 
HETATM    2  N   UNL     1      40.670 -13.094   0.918  1.00  0.00    -0.248 N 
HETATM    3  C   UNL     1      40.164 -11.858   1.286  1.00  0.00     0.330 C 
HETATM    4  O   UNL     1      39.920 -10.941   0.501  1.00  0.00    -0.246 OA
HETATM    5  N   UNL     1      39.919 -11.654   2.611  1.00  0.00    -0.308 N 
HETATM    6  C   UNL     1      40.081 -12.611   3.603  1.00  0.00     0.048 A 
HETATM    7  C   UNL     1      40.746 -13.796   3.298  1.00  0.00     0.034 A 
HETATM    8  C   UNL     1      39.574 -12.364   4.882  1.00  0.00     0.030 A 
HETATM    9  C   UNL     1      39.710 -13.330   5.875  1.00  0.00     0.002 A 
HETATM   10  C   UNL     1      40.366 -14.525   5.593  1.00  0.00     0.001 A 
HETATM   11  C   UNL     1      40.893 -14.753   4.318  1.00  0.00     0.015 A 
HETATM   12  H   UNL     1      39.482 -10.768   2.823  1.00  0.00     0.170 HD
ENDROOT
BRANCH   1  13
HETATM   13  C   UNL     1      41.394 -15.471   1.496  1.00  0.00     0.279 C 
HETATM   14  N   UNL     1      42.684 -15.953   1.319  1.00  0.00    -0.352 N 
HETATM   15  H   UNL     1      43.447 -15.325   1.551  1.00  0.00     0.162 HD
HETATM   16  O   UNL     1      40.397 -16.175   1.347  1.00  0.00    -0.268 OA
BRANCH  14  17
HETATM   17  C   UNL     1      42.975 -17.313   0.947  1.00  0.00     0.161 C 
BRANCH  17  18
HETATM   18  C   UNL     1      43.461 -18.112   2.125  1.00  0.00    -0.040 A 
HETATM   19  C   UNL     1      43.607 -17.505   3.380  1.00  0.00     0.011 A 
HETATM   20  C   UNL     1      44.033 -18.246   4.488  1.00  0.00     0.037 A 
HETATM   21  C   UNL     1      44.323 -19.603   4.354  1.00  0.00     0.068 A 
HETATM   22  C   UNL     1      44.218 -20.202   3.097  1.00  0.00     0.037 A 
HETATM   23  C   UNL     1      43.790 -19.467   1.989  1.00  0.00     0.011 A 
BRANCH  21  24
HETATM   24  O   UNL     1      44.727 -20.439   5.358  1.00  0.00    -0.356 OA
HETATM   25  C   UNL     1      44.977 -21.791   4.995  1.00  0.00     0.210 C 
ENDBRANCH  21  24
ENDBRANCH  17  18
ENDBRANCH  14  17
ENDBRANCH   1  13
BRANCH   1  26
HETATM   26  O   UNL     1      42.697 -13.436   2.030  1.00  0.00    -0.359 OA
HETATM   27  H   UNL     1      42.746 -12.722   1.371  1.00  0.00     0.213 HD
ENDBRANCH   1  26
BRANCH   2  28
HETATM   28  C   UNL     1      40.658 -13.433  -0.479  1.00  0.00     0.120 A 
HETATM   29  C   UNL     1      41.760 -13.233  -1.317  1.00  0.00     0.146 A 
HETATM   30  F   UNL     1      42.866 -12.635  -0.848  1.00  0.00    -0.204 F 
HETATM   31  C   UNL     1      41.731 -13.583  -2.669  1.00  0.00     0.045 A 
HETATM   32  C   UNL     1      40.581 -14.147  -3.216  1.00  0.00     0.006 A 
HETATM   33  C   UNL     1      39.467 -14.356  -2.406  1.00  0.00     0.045 A 
HETATM   34  C   UNL     1      39.512 -14.002  -1.057  1.00  0.00     0.146 A 
HETATM   35  F   UNL     1      38.442 -14.296  -0.301  1.00  0.00    -0.204 F 
ENDBRANCH   2  28
TORSDOF 6
ENDMDL
MODEL 9
REMARK VINA RESULT:      -8.1      2.669      5.140
REMARK  6 active torsions:
REMARK  status: ('A' for Active; 'I' for Inactive)
REMARK    1  A    between atoms: O_2  and  C_3 
REMARK    2  A    between atoms: C_6  and  C_7 
REMARK    3  A    between atoms: C_7  and  N_8 
REMARK       I    between atoms: N_8  and  C_9 
REMARK    4  A    between atoms: C_9  and  C_10 
REMARK    5  A    between atoms: C_10  and  O_11 
REMARK    6  A    between atoms: N_12  and  C_13 
ROOT
HETATM    1  C   UNL     1      41.307 -13.852   1.858  1.00  0.00     0.256 C 
HETATM    2  N   UNL     1      40.684 -13.017   0.825  1.00  0.00    -0.248 N 
HETATM    3  C   UNL     1      40.184 -11.767   1.153  1.00  0.00     0.330 C 
HETATM    4  O   UNL     1      39.993 -10.857   0.346  1.00  0.00    -0.246 OA
HETATM    5  N   UNL     1      39.880 -11.541   2.462  1.00  0.00    -0.308 N 
HETATM    6  C   UNL     1      39.977 -12.487   3.473  1.00  0.00     0.048 A 
HETATM    7  C   UNL     1      40.635 -13.688   3.214  1.00  0.00     0.034 A 
HETATM    8  C   UNL     1      39.416 -12.214   4.722  1.00  0.00     0.030 A 
HETATM    9  C   UNL     1      39.486 -13.168   5.734  1.00  0.00     0.002 A 
HETATM   10  C   UNL     1      40.133 -14.378   5.498  1.00  0.00     0.001 A 
HETATM   11  C   UNL     1      40.716 -14.633   4.253  1.00  0.00     0.015 A 
HETATM   12  H   UNL     1      39.449 -10.645   2.642  1.00  0.00     0.170 HD
ENDROOT
BRANCH   1  13
HETATM   13  C   UNL     1      41.337 -15.398   1.467  1.00  0.00     0.279 C 
HETATM   14  N   UNL     1      42.625 -15.896   1.323  1.00  0.00    -0.352 N 
HETATM   15  H   UNL     1      43.391 -15.272   1.562  1.00  0.00     0.162 HD
HETATM   16  O   UNL     1      40.336 -16.093   1.308  1.00  0.00    -0.268 OA
BRANCH  14  17
HETATM   17  C   UNL     1      42.909 -17.264   0.975  1.00  0.00     0.161 C 
BRANCH  17  18
HETATM   18  C   UNL     1      43.436 -18.032   2.156  1.00  0.00    -0.040 A 
HETATM   19  C   UNL     1      43.468 -17.441   3.427  1.00  0.00     0.011 A 
HETATM   20  C   UNL     1      43.931 -18.156   4.537  1.00  0.00     0.037 A 
HETATM   21  C   UNL     1      44.374 -19.470   4.389  1.00  0.00     0.068 A 
HETATM   22  C   UNL     1      44.382 -20.048   3.118  1.00  0.00     0.037 A 
HETATM   23  C   UNL     1      43.917 -19.339   2.008  1.00  0.00     0.011 A 
BRANCH  21  24
HETATM   24  O   UNL     1      44.831 -20.279   5.393  1.00  0.00    -0.356 OA
HETATM   25  C   UNL     1      44.814 -21.678   5.135  1.00  0.00     0.210 C 
ENDBRANCH  21  24
ENDBRANCH  17  18
ENDBRANCH  14  17
ENDBRANCH   1  13
BRANCH   1  26
HETATM   26  O   UNL     1      42.650 -13.379   2.037  1.00  0.00    -0.359 OA
HETATM   27  H   UNL     1      42.607 -12.846   2.849  1.00  0.00     0.213 HD
ENDBRANCH   1  26
BRANCH   2  28
HETATM   28  C   UNL     1      40.732 -13.374  -0.567  1.00  0.00     0.120 A 
HETATM   29  C   UNL     1      39.652 -13.956  -1.238  1.00  0.00     0.146 A 
HETATM   30  F   UNL     1      38.534 -14.276  -0.569  1.00  0.00    -0.204 F 
HETATM   31  C   UNL     1      39.716 -14.282  -2.594  1.00  0.00     0.045 A 
HETATM   32  C   UNL     1      40.881 -14.028  -3.316  1.00  0.00     0.006 A 
HETATM   33  C   UNL     1      41.973 -13.451  -2.673  1.00  0.00     0.045 A 
HETATM   34  C   UNL     1      41.893 -13.130  -1.317  1.00  0.00     0.146 A 
HETATM   35  F   UNL     1      42.944 -12.503  -0.763  1.00  0.00    -0.204 F 
ENDBRANCH   2  28
TORSDOF 6
ENDMDL
MODEL 10
REMARK VINA RESULT:      -7.9      3.365      6.639
REMARK  6 active torsions:
REMARK  status: ('A' for Active; 'I' for Inactive)
REMARK    1  A    between atoms: O_2  and  C_3 
REMARK    2  A    between atoms: C_6  and  C_7 
REMARK    3  A    between atoms: C_7  and  N_8 
REMARK       I    between atoms: N_8  and  C_9 
REMARK    4  A    between atoms: C_9  and  C_10 
REMARK    5  A    between atoms: C_10  and  O_11 
REMARK    6  A    between atoms: N_12  and  C_13 
ROOT
HETATM    1  C   UNL     1      40.097 -14.492   2.378  1.00  0.00     0.256 C 
HETATM    2  N   UNL     1      40.956 -15.360   3.192  1.00  0.00    -0.248 N 
HETATM    3  C   UNL     1      40.752 -15.451   4.560  1.00  0.00     0.330 C 
HETATM    4  O   UNL     1      41.135 -16.387   5.263  1.00  0.00    -0.246 OA
HETATM    5  N   UNL     1      40.083 -14.426   5.160  1.00  0.00    -0.308 N 
HETATM    6  C   UNL     1      39.649 -13.277   4.514  1.00  0.00     0.048 A 
HETATM    7  C   UNL     1      39.682 -13.230   3.122  1.00  0.00     0.034 A 
HETATM    8  C   UNL     1      39.190 -12.197   5.272  1.00  0.00     0.030 A 
HETATM    9  C   UNL     1      38.777 -11.031   4.633  1.00  0.00     0.002 A 
HETATM   10  C   UNL     1      38.806 -10.958   3.243  1.00  0.00     0.001 A 
HETATM   11  C   UNL     1      39.242 -12.053   2.490  1.00  0.00     0.015 A 
HETATM   12  H   UNL     1      40.023 -14.500   6.166  1.00  0.00     0.170 HD
ENDROOT
BRANCH   1  13
HETATM   13  C   UNL     1      40.766 -14.091   0.988  1.00  0.00     0.279 C 
HETATM   14  N   UNL     1      40.204 -14.752  -0.096  1.00  0.00    -0.352 N 
HETATM   15  H   UNL     1      39.393 -15.336   0.089  1.00  0.00     0.162 HD
HETATM   16  O   UNL     1      41.682 -13.280   0.866  1.00  0.00    -0.268 OA
BRANCH  14  17
HETATM   17  C   UNL     1      40.638 -14.556  -1.454  1.00  0.00     0.161 C 
BRANCH  17  18
HETATM   18  C   UNL     1      39.483 -14.632  -2.415  1.00  0.00    -0.040 A 
HETATM   19  C   UNL     1      39.469 -15.600  -3.429  1.00  0.00     0.011 A 
HETATM   20  C   UNL     1      38.387 -15.696  -4.311  1.00  0.00     0.037 A 
HETATM   21  C   UNL     1      37.308 -14.821  -4.194  1.00  0.00     0.068 A 
HETATM   22  C   UNL     1      37.337 -13.830  -3.211  1.00  0.00     0.037 A 
HETATM   23  C   UNL     1      38.413 -13.733  -2.327  1.00  0.00     0.011 A 
BRANCH  21  24
HETATM   24  O   UNL     1      36.186 -14.824  -4.976  1.00  0.00    -0.356 OA
HETATM   25  C   UNL     1      35.688 -13.551  -5.374  1.00  0.00     0.210 C 
ENDBRANCH  21  24
ENDBRANCH  17  18
ENDBRANCH  14  17
ENDBRANCH   1  13
BRANCH   1  26
HETATM   26  O   UNL     1      38.879 -15.210   2.132  1.00  0.00    -0.359 OA
HETATM   27  H   UNL     1      38.182 -14.607   2.446  1.00  0.00     0.213 HD
ENDBRANCH   1  26
BRANCH   2  28
HETATM   28  C   UNL     1      41.899 -16.265   2.595  1.00  0.00     0.120 A 
HETATM   29  C   UNL     1      43.274 -16.013   2.559  1.00  0.00     0.146 A 
HETATM   30  F   UNL     1      43.761 -14.853   3.027  1.00  0.00    -0.204 F 
HETATM   31  C   UNL     1      44.174 -16.914   1.986  1.00  0.00     0.045 A 
HETATM   32  C   UNL     1      43.708 -18.103   1.429  1.00  0.00     0.006 A 
HETATM   33  C   UNL     1      42.343 -18.380   1.449  1.00  0.00     0.045 A 
HETATM   34  C   UNL     1      41.456 -17.470   2.026  1.00  0.00     0.146 A 
HETATM   35  F   UNL     1      40.161 -17.819   2.091  1.00  0.00    -0.204 F 
ENDBRANCH   2  28
TORSDOF 6
ENDMDL
