MODEL 1
REMARK VINA RESULT:      -9.1      0.000      0.000
REMARK  2 active torsions:
REMARK  status: ('A' for Active; 'I' for Inactive)
REMARK       I    between atoms: N_4  and  C_5 
REMARK       I    between atoms: C_5  and  N_6 
REMARK    1  A    between atoms: N_6  and  C_7 
REMARK    2  A    between atoms: C_20  and  C_21 
ROOT
HETATM    1  C   UNL     1      39.994 -12.249   3.513  1.00  0.00     0.011 C 
HETATM    2  C   UNL     1      39.100 -12.806   2.405  1.00  0.00     0.002 C 
HETATM    3  C   UNL     1      39.244 -14.322   2.289  1.00  0.00     0.132 C 
HETATM    4  N   UNL     1      40.318 -14.506   1.329  1.00  0.00    -0.325 N 
HETATM    5  C   UNL     1      41.364 -15.408   1.408  1.00  0.00     0.323 C 
HETATM    6  N   UNL     1      41.140 -16.447   2.284  1.00  0.00    -0.309 N 
HETATM    7  O   UNL     1      42.388 -15.264   0.745  1.00  0.00    -0.247 OA
HETATM    8  C   UNL     1      40.367 -13.393   0.387  1.00  0.00     0.125 C 
HETATM    9  C   UNL     1      39.516 -12.277   1.025  1.00  0.00     0.036 C 
HETATM   10  H   UNL     1      40.169 -16.661   2.445  1.00  0.00     0.170 HD
ENDROOT
BRANCH   6  11
HETATM   11  C   UNL     1      42.084 -17.384   2.751  1.00  0.00     0.038 A 
HETATM   12  C   UNL     1      42.317 -18.616   2.131  1.00  0.00     0.062 A 
HETATM   13  C   UNL     1      43.289 -19.482   2.637  1.00  0.00     0.070 A 
HETATM   14  C   UNL     1      44.040 -19.127   3.757  1.00  0.00     0.096 A 
HETATM   15  N   UNL     1      43.532 -20.692   1.987  1.00  0.00    -0.323 N 
HETATM   16  O   UNL     1      45.030 -19.907   4.289  1.00  0.00    -0.335 OA
HETATM   17  C   UNL     1      43.826 -17.894   4.367  1.00  0.00     0.041 A 
HETATM   18  C   UNL     1      45.053 -21.256   3.830  1.00  0.00     0.217 C 
HETATM   19  C   UNL     1      44.447 -21.591   2.459  1.00  0.00     0.251 C 
HETATM   20  C   UNL     1      44.388 -22.129   4.891  1.00  0.00     0.050 C 
HETATM   21  O   UNL     1      44.697 -22.628   1.848  1.00  0.00    -0.270 OA
HETATM   22  C   UNL     1      42.851 -17.026   3.865  1.00  0.00     0.032 A 
HETATM   23  H   UNL     1      43.057 -20.924   1.124  1.00  0.00     0.169 HD
ENDBRANCH   6  11
BRANCH   8  24
HETATM   24  C   UNL     1      39.918 -13.830  -0.996  1.00  0.00     0.003 A 
HETATM   25  C   UNL     1      40.810 -14.031  -2.056  1.00  0.00     0.124 A 
HETATM   26  F   UNL     1      42.127 -13.840  -1.885  1.00  0.00    -0.205 F 
HETATM   27  C   UNL     1      40.371 -14.420  -3.321  1.00  0.00     0.043 A 
HETATM   28  C   UNL     1      39.010 -14.593  -3.558  1.00  0.00     0.003 A 
HETATM   29  C   UNL     1      38.097 -14.369  -2.529  1.00  0.00     0.001 A 
HETATM   30  C   UNL     1      38.547 -13.989  -1.260  1.00  0.00     0.012 A 
ENDBRANCH   8  24
TORSDOF 2
ENDMDL
MODEL 2
REMARK VINA RESULT:      -8.8      1.325      1.883
REMARK  2 active torsions:
REMARK  status: ('A' for Active; 'I' for Inactive)
REMARK       I    between atoms: N_4  and  C_5 
REMARK       I    between atoms: C_5  and  N_6 
REMARK    1  A    between atoms: N_6  and  C_7 
REMARK    2  A    between atoms: C_20  and  C_21 
ROOT
HETATM    1  C   UNL     1      41.062 -12.231   5.798  1.00  0.00     0.011 C 
HETATM    2  C   UNL     1      39.862 -12.602   4.926  1.00  0.00     0.002 C 
HETATM    3  C   UNL     1      39.824 -14.103   4.647  1.00  0.00     0.132 C 
HETATM    4  N   UNL     1      40.591 -14.259   3.423  1.00  0.00    -0.325 N 
HETATM    5  C   UNL     1      41.530 -15.235   3.143  1.00  0.00     0.323 C 
HETATM    6  N   UNL     1      41.441 -16.344   3.955  1.00  0.00    -0.309 N 
HETATM    7  O   UNL     1      42.356 -15.092   2.245  1.00  0.00    -0.247 OA
HETATM    8  C   UNL     1      40.500 -13.057   2.601  1.00  0.00     0.125 C 
HETATM    9  C   UNL     1      39.955 -11.959   3.535  1.00  0.00     0.036 C 
HETATM   10  H   UNL     1      40.529 -16.505   4.352  1.00  0.00     0.170 HD
ENDROOT
BRANCH   6  11
HETATM   11  C   UNL     1      42.379 -17.390   4.072  1.00  0.00     0.038 A 
HETATM   12  C   UNL     1      42.473 -18.444   3.159  1.00  0.00     0.062 A 
HETATM   13  C   UNL     1      43.448 -19.432   3.326  1.00  0.00     0.070 A 
HETATM   14  C   UNL     1      44.338 -19.373   4.397  1.00  0.00     0.096 A 
HETATM   15  N   UNL     1      43.548 -20.458   2.387  1.00  0.00    -0.323 N 
HETATM   16  O   UNL     1      45.337 -20.282   4.608  1.00  0.00    -0.335 OA
HETATM   17  C   UNL     1      44.262 -18.315   5.299  1.00  0.00     0.041 A 
HETATM   18  C   UNL     1      45.235 -21.484   3.847  1.00  0.00     0.217 C 
HETATM   19  C   UNL     1      44.460 -21.468   2.521  1.00  0.00     0.251 C 
HETATM   20  C   UNL     1      44.647 -22.567   4.750  1.00  0.00     0.050 C 
HETATM   21  O   UNL     1      44.583 -22.336   1.660  1.00  0.00    -0.270 OA
HETATM   22  C   UNL     1      43.286 -17.327   5.137  1.00  0.00     0.032 A 
HETATM   23  H   UNL     1      42.967 -20.465   1.559  1.00  0.00     0.169 HD
ENDBRANCH   6  11
BRANCH   8  24
HETATM   24  C   UNL     1      39.669 -13.310   1.357  1.00  0.00     0.003 A 
HETATM   25  C   UNL     1      40.219 -13.345   0.069  1.00  0.00     0.124 A 
HETATM   26  F   UNL     1      41.533 -13.151  -0.116  1.00  0.00    -0.205 F 
HETATM   27  C   UNL     1      39.431 -13.566  -1.060  1.00  0.00     0.043 A 
HETATM   28  C   UNL     1      38.057 -13.735  -0.922  1.00  0.00     0.003 A 
HETATM   29  C   UNL     1      37.478 -13.673   0.344  1.00  0.00     0.001 A 
HETATM   30  C   UNL     1      38.277 -13.461   1.473  1.00  0.00     0.012 A 
ENDBRANCH   8  24
TORSDOF 2
ENDMDL
MODEL 3
REMARK VINA RESULT:      -8.7      2.268      3.067
REMARK  2 active torsions:
REMARK  status: ('A' for Active; 'I' for Inactive)
REMARK       I    between atoms: N_4  and  C_5 
REMARK       I    between atoms: C_5  and  N_6 
REMARK    1  A    between atoms: N_6  and  C_7 
REMARK    2  A    between atoms: C_20  and  C_21 
ROOT
HETATM    1  C   UNL     1      38.357 -11.745   2.166  1.00  0.00     0.011 C 
HETATM    2  C   UNL     1      37.730 -12.633   1.092  1.00  0.00     0.002 C 
HETATM    3  C   UNL     1      38.004 -14.111   1.366  1.00  0.00     0.132 C 
HETATM    4  N   UNL     1      39.249 -14.379   0.669  1.00  0.00    -0.325 N 
HETATM    5  C   UNL     1      40.324 -15.114   1.133  1.00  0.00     0.323 C 
HETATM    6  N   UNL     1      40.017 -15.952   2.182  1.00  0.00    -0.309 N 
HETATM    7  O   UNL     1      41.442 -15.004   0.633  1.00  0.00    -0.247 OA
HETATM    8  C   UNL     1      39.391 -13.504  -0.490  1.00  0.00     0.125 C 
HETATM    9  C   UNL     1      38.357 -12.380  -0.286  1.00  0.00     0.036 C 
HETATM   10  H   UNL     1      39.051 -16.234   2.227  1.00  0.00     0.170 HD
ENDROOT
BRANCH   6  11
HETATM   11  C   UNL     1      40.923 -16.647   3.008  1.00  0.00     0.038 A 
HETATM   12  C   UNL     1      41.118 -16.348   4.359  1.00  0.00     0.062 A 
HETATM   13  C   UNL     1      42.014 -17.101   5.123  1.00  0.00     0.070 A 
HETATM   14  C   UNL     1      42.717 -18.160   4.548  1.00  0.00     0.096 A 
HETATM   15  N   UNL     1      42.172 -16.809   6.477  1.00  0.00    -0.323 N 
HETATM   16  O   UNL     1      43.584 -18.961   5.238  1.00  0.00    -0.335 OA
HETATM   17  C   UNL     1      42.512 -18.476   3.208  1.00  0.00     0.041 A 
HETATM   18  C   UNL     1      43.981 -18.469   6.515  1.00  0.00     0.217 C 
HETATM   19  C   UNL     1      43.060 -17.492   7.261  1.00  0.00     0.251 C 
HETATM   20  C   UNL     1      45.362 -17.833   6.369  1.00  0.00     0.050 C 
HETATM   21  O   UNL     1      43.151 -17.268   8.466  1.00  0.00    -0.270 OA
HETATM   22  C   UNL     1      41.618 -17.722   2.441  1.00  0.00     0.032 A 
HETATM   23  H   UNL     1      41.605 -16.102   6.927  1.00  0.00     0.169 HD
ENDBRANCH   6  11
BRANCH   8  24
HETATM   24  C   UNL     1      39.242 -14.285  -1.783  1.00  0.00     0.003 A 
HETATM   25  C   UNL     1      40.339 -14.741  -2.526  1.00  0.00     0.124 A 
HETATM   26  F   UNL     1      41.591 -14.498  -2.112  1.00  0.00    -0.205 F 
HETATM   27  C   UNL     1      40.175 -15.446  -3.718  1.00  0.00     0.043 A 
HETATM   28  C   UNL     1      38.895 -15.689  -4.208  1.00  0.00     0.003 A 
HETATM   29  C   UNL     1      37.787 -15.219  -3.505  1.00  0.00     0.001 A 
HETATM   30  C   UNL     1      37.959 -14.522  -2.305  1.00  0.00     0.012 A 
ENDBRANCH   8  24
TORSDOF 2
ENDMDL
MODEL 4
REMARK VINA RESULT:      -8.4      3.235      8.441
REMARK  2 active torsions:
REMARK  status: ('A' for Active; 'I' for Inactive)
REMARK       I    between atoms: N_4  and  C_5 
REMARK       I    between atoms: C_5  and  N_6 
REMARK    1  A    between atoms: N_6  and  C_7 
REMARK    2  A    between atoms: C_20  and  C_21 
ROOT
HETATM    1  C   UNL     1      43.605 -15.400   7.497  1.00  0.00     0.011 C 
HETATM    2  C   UNL     1      44.561 -16.455   6.942  1.00  0.00     0.002 C 
HETATM    3  C   UNL     1      44.564 -16.449   5.414  1.00  0.00     0.132 C 
HETATM    4  N   UNL     1      43.525 -17.396   5.052  1.00  0.00    -0.325 N 
HETATM    5  C   UNL     1      42.569 -17.250   4.063  1.00  0.00     0.323 C 
HETATM    6  N   UNL     1      42.879 -16.293   3.124  1.00  0.00    -0.309 N 
HETATM    7  O   UNL     1      41.543 -17.928   4.056  1.00  0.00    -0.247 OA
HETATM    8  C   UNL     1      43.382 -18.425   6.077  1.00  0.00     0.125 C 
HETATM    9  C   UNL     1      44.115 -17.875   7.317  1.00  0.00     0.036 C 
HETATM   10  H   UNL     1      43.865 -16.110   3.018  1.00  0.00     0.170 HD
ENDROOT
BRANCH   6  11
HETATM   11  C   UNL     1      42.024 -15.756   2.140  1.00  0.00     0.038 A 
HETATM   12  C   UNL     1      42.177 -15.997   0.772  1.00  0.00     0.062 A 
HETATM   13  C   UNL     1      41.272 -15.453  -0.142  1.00  0.00     0.070 A 
HETATM   14  C   UNL     1      40.205 -14.671   0.299  1.00  0.00     0.096 A 
HETATM   15  N   UNL     1      41.421 -15.731  -1.501  1.00  0.00    -0.323 N 
HETATM   16  O   UNL     1      39.261 -14.132  -0.531  1.00  0.00    -0.335 OA
HETATM   17  C   UNL     1      40.035 -14.443   1.662  1.00  0.00     0.041 A 
HETATM   18  C   UNL     1      39.592 -14.147  -1.918  1.00  0.00     0.217 C 
HETATM   19  C   UNL     1      40.584 -15.196  -2.440  1.00  0.00     0.251 C 
HETATM   20  C   UNL     1      40.097 -12.756  -2.298  1.00  0.00     0.050 C 
HETATM   21  O   UNL     1      40.686 -15.492  -3.629  1.00  0.00    -0.270 OA
HETATM   22  C   UNL     1      40.941 -14.984   2.579  1.00  0.00     0.032 A 
HETATM   23  H   UNL     1      42.137 -16.367  -1.826  1.00  0.00     0.169 HD
ENDBRANCH   6  11
BRANCH   8  24
HETATM   24  C   UNL     1      43.888 -19.766   5.577  1.00  0.00     0.003 A 
HETATM   25  C   UNL     1      43.906 -20.916   6.375  1.00  0.00     0.124 A 
HETATM   26  F   UNL     1      43.466 -20.875   7.642  1.00  0.00    -0.205 F 
HETATM   27  C   UNL     1      44.387 -22.134   5.896  1.00  0.00     0.043 A 
HETATM   28  C   UNL     1      44.890 -22.219   4.601  1.00  0.00     0.003 A 
HETATM   29  C   UNL     1      44.913 -21.081   3.796  1.00  0.00     0.001 A 
HETATM   30  C   UNL     1      44.418 -19.866   4.280  1.00  0.00     0.012 A 
ENDBRANCH   8  24
TORSDOF 2
ENDMDL
MODEL 5
REMARK VINA RESULT:      -8.4      3.671      4.657
REMARK  2 active torsions:
REMARK  status: ('A' for Active; 'I' for Inactive)
REMARK       I    between atoms: N_4  and  C_5 
REMARK       I    between atoms: C_5  and  N_6 
REMARK    1  A    between atoms: N_6  and  C_7 
REMARK    2  A    between atoms: C_20  and  C_21 
ROOT
HETATM    1  C   UNL     1      43.302 -10.625  -1.469  1.00  0.00     0.011 C 
HETATM    2  C   UNL     1      41.856 -10.906  -1.878  1.00  0.00     0.002 C 
HETATM    3  C   UNL     1      41.064 -11.517  -0.724  1.00  0.00     0.132 C 
HETATM    4  N   UNL     1      41.245 -12.948  -0.885  1.00  0.00    -0.325 N 
HETATM    5  C   UNL     1      41.503 -13.875   0.109  1.00  0.00     0.323 C 
HETATM    6  N   UNL     1      41.191 -13.436   1.376  1.00  0.00    -0.309 N 
HETATM    7  O   UNL     1      41.972 -14.981  -0.151  1.00  0.00    -0.247 OA
HETATM    8  C   UNL     1      41.446 -13.290  -2.289  1.00  0.00     0.125 C 
HETATM    9  C   UNL     1      41.779 -11.959  -2.992  1.00  0.00     0.036 C 
HETATM   10  H   UNL     1      40.483 -12.720   1.412  1.00  0.00     0.170 HD
ENDROOT
BRANCH   6  11
HETATM   11  C   UNL     1      41.543 -14.044   2.598  1.00  0.00     0.038 A 
HETATM   12  C   UNL     1      42.626 -13.632   3.379  1.00  0.00     0.062 A 
HETATM   13  C   UNL     1      42.897 -14.267   4.594  1.00  0.00     0.070 A 
HETATM   14  C   UNL     1      42.089 -15.312   5.042  1.00  0.00     0.096 A 
HETATM   15  N   UNL     1      43.962 -13.821   5.376  1.00  0.00    -0.323 N 
HETATM   16  O   UNL     1      42.271 -15.958   6.233  1.00  0.00    -0.335 OA
HETATM   17  C   UNL     1      40.997 -15.714   4.278  1.00  0.00     0.041 A 
HETATM   18  C   UNL     1      43.526 -15.724   6.866  1.00  0.00     0.217 C 
HETATM   19  C   UNL     1      44.291 -14.429   6.556  1.00  0.00     0.251 C 
HETATM   20  C   UNL     1      44.434 -16.916   6.573  1.00  0.00     0.050 C 
HETATM   21  O   UNL     1      45.194 -13.994   7.268  1.00  0.00    -0.270 OA
HETATM   22  C   UNL     1      40.725 -15.083   3.060  1.00  0.00     0.032 A 
HETATM   23  H   UNL     1      44.502 -13.009   5.106  1.00  0.00     0.169 HD
ENDBRANCH   6  11
BRANCH   8  24
HETATM   24  C   UNL     1      40.241 -14.025  -2.849  1.00  0.00     0.003 A 
HETATM   25  C   UNL     1      40.304 -15.347  -3.306  1.00  0.00     0.124 A 
HETATM   26  F   UNL     1      41.458 -16.030  -3.265  1.00  0.00    -0.205 F 
HETATM   27  C   UNL     1      39.185 -15.997  -3.827  1.00  0.00     0.043 A 
HETATM   28  C   UNL     1      37.974 -15.318  -3.926  1.00  0.00     0.003 A 
HETATM   29  C   UNL     1      37.892 -13.991  -3.508  1.00  0.00     0.001 A 
HETATM   30  C   UNL     1      39.016 -13.350  -2.976  1.00  0.00     0.012 A 
ENDBRANCH   8  24
TORSDOF 2
ENDMDL
MODEL 6
REMARK VINA RESULT:      -8.4      3.280      8.194
REMARK  2 active torsions:
REMARK  status: ('A' for Active; 'I' for Inactive)
REMARK       I    between atoms: N_4  and  C_5 
REMARK       I    between atoms: C_5  and  N_6 
REMARK    1  A    between atoms: N_6  and  C_7 
REMARK    2  A    between atoms: C_20  and  C_21 
ROOT
HETATM    1  C   UNL     1      42.982 -13.159   6.446  1.00  0.00     0.011 C 
HETATM    2  C   UNL     1      43.972 -14.266   6.085  1.00  0.00     0.002 C 
HETATM    3  C   UNL     1      43.937 -14.573   4.590  1.00  0.00     0.132 C 
HETATM    4  N   UNL     1      42.934 -15.615   4.463  1.00  0.00    -0.325 N 
HETATM    5  C   UNL     1      41.948 -15.713   3.497  1.00  0.00     0.323 C 
HETATM    6  N   UNL     1      42.191 -14.956   2.372  1.00  0.00    -0.309 N 
HETATM    7  O   UNL     1      40.955 -16.418   3.662  1.00  0.00    -0.247 OA
HETATM    8  C   UNL     1      42.864 -16.417   5.679  1.00  0.00     0.125 C 
HETATM    9  C   UNL     1      43.600 -15.596   6.756  1.00  0.00     0.036 C 
HETATM   10  H   UNL     1      43.164 -14.760   2.199  1.00  0.00     0.170 HD
ENDROOT
BRANCH   6  11
HETATM   11  C   UNL     1      41.288 -14.668   1.330  1.00  0.00     0.038 A 
HETATM   12  C   UNL     1      41.387 -15.223   0.051  1.00  0.00     0.062 A 
HETATM   13  C   UNL     1      40.436 -14.910  -0.925  1.00  0.00     0.070 A 
HETATM   14  C   UNL     1      39.379 -14.048  -0.633  1.00  0.00     0.096 A 
HETATM   15  N   UNL     1      40.531 -15.498  -2.186  1.00  0.00    -0.323 N 
HETATM   16  O   UNL     1      38.394 -13.721  -1.523  1.00  0.00    -0.335 OA
HETATM   17  C   UNL     1      39.265 -13.508   0.645  1.00  0.00     0.041 A 
HETATM   18  C   UNL     1      38.666 -14.060  -2.881  1.00  0.00     0.217 C 
HETATM   19  C   UNL     1      39.649 -15.200  -3.186  1.00  0.00     0.251 C 
HETATM   20  C   UNL     1      39.138 -12.796  -3.598  1.00  0.00     0.050 C 
HETATM   21  O   UNL     1      39.703 -15.767  -4.276  1.00  0.00    -0.270 OA
HETATM   22  C   UNL     1      40.216 -13.816   1.623  1.00  0.00     0.032 A 
HETATM   23  H   UNL     1      41.241 -16.192  -2.384  1.00  0.00     0.169 HD
ENDBRANCH   6  11
BRANCH   8  24
HETATM   24  C   UNL     1      43.419 -17.811   5.446  1.00  0.00     0.003 A 
HETATM   25  C   UNL     1      43.473 -18.784   6.451  1.00  0.00     0.124 A 
HETATM   26  F   UNL     1      43.026 -18.515   7.687  1.00  0.00    -0.205 F 
HETATM   27  C   UNL     1      43.999 -20.054   6.215  1.00  0.00     0.043 A 
HETATM   28  C   UNL     1      44.510 -20.369   4.959  1.00  0.00     0.003 A 
HETATM   29  C   UNL     1      44.497 -19.408   3.950  1.00  0.00     0.001 A 
HETATM   30  C   UNL     1      43.959 -18.140   4.192  1.00  0.00     0.012 A 
ENDBRANCH   8  24
TORSDOF 2
ENDMDL
MODEL 7
REMARK VINA RESULT:      -8.3      4.096      9.282
REMARK  2 active torsions:
REMARK  status: ('A' for Active; 'I' for Inactive)
REMARK       I    between atoms: N_4  and  C_5 
REMARK       I    between atoms: C_5  and  N_6 
REMARK    1  A    between atoms: N_6  and  C_7 
REMARK    2  A    between atoms: C_20  and  C_21 
ROOT
HETATM    1  C   UNL     1      43.563 -17.663   0.957  1.00  0.00     0.011 C 
HETATM    2  C   UNL     1      43.204 -18.641   2.076  1.00  0.00     0.002 C 
HETATM    3  C   UNL     1      42.017 -18.134   2.893  1.00  0.00     0.132 C 
HETATM    4  N   UNL     1      42.622 -17.351   3.955  1.00  0.00    -0.325 N 
HETATM    5  C   UNL     1      42.202 -16.121   4.430  1.00  0.00     0.323 C 
HETATM    6  N   UNL     1      40.899 -15.815   4.109  1.00  0.00    -0.309 N 
HETATM    7  O   UNL     1      42.953 -15.391   5.074  1.00  0.00    -0.247 OA
HETATM    8  C   UNL     1      43.952 -17.857   4.278  1.00  0.00     0.125 C 
HETATM    9  C   UNL     1      44.342 -18.770   3.098  1.00  0.00     0.036 C 
HETATM   10  H   UNL     1      40.306 -16.613   3.945  1.00  0.00     0.170 HD
ENDROOT
BRANCH   6  11
HETATM   11  C   UNL     1      40.260 -14.566   4.246  1.00  0.00     0.038 A 
HETATM   12  C   UNL     1      39.861 -13.782   3.160  1.00  0.00     0.062 A 
HETATM   13  C   UNL     1      39.208 -12.565   3.376  1.00  0.00     0.070 A 
HETATM   14  C   UNL     1      38.942 -12.124   4.671  1.00  0.00     0.096 A 
HETATM   15  N   UNL     1      38.788 -11.811   2.280  1.00  0.00    -0.323 N 
HETATM   16  O   UNL     1      38.279 -10.964   4.960  1.00  0.00    -0.335 OA
HETATM   17  C   UNL     1      39.319 -12.910   5.757  1.00  0.00     0.041 A 
HETATM   18  C   UNL     1      38.141 -10.056   3.870  1.00  0.00     0.217 C 
HETATM   19  C   UNL     1      38.176 -10.599   2.434  1.00  0.00     0.251 C 
HETATM   20  C   UNL     1      39.210  -8.975   4.016  1.00  0.00     0.050 C 
HETATM   21  O   UNL     1      37.755  -9.968   1.466  1.00  0.00    -0.270 OA
HETATM   22  C   UNL     1      39.976 -14.126   5.545  1.00  0.00     0.032 A 
HETATM   23  H   UNL     1      38.896 -12.160   1.336  1.00  0.00     0.169 HD
ENDBRANCH   6  11
BRANCH   8  24
HETATM   24  C   UNL     1      43.963 -18.530   5.639  1.00  0.00     0.003 A 
HETATM   25  C   UNL     1      44.453 -17.903   6.791  1.00  0.00     0.124 A 
HETATM   26  F   UNL     1      44.943 -16.656   6.734  1.00  0.00    -0.205 F 
HETATM   27  C   UNL     1      44.464 -18.548   8.028  1.00  0.00     0.043 A 
HETATM   28  C   UNL     1      44.001 -19.856   8.131  1.00  0.00     0.003 A 
HETATM   29  C   UNL     1      43.537 -20.514   6.993  1.00  0.00     0.001 A 
HETATM   30  C   UNL     1      43.520 -19.858   5.759  1.00  0.00     0.012 A 
ENDBRANCH   8  24
TORSDOF 2
ENDMDL
MODEL 8
REMARK VINA RESULT:      -8.3      2.955      8.406
REMARK  2 active torsions:
REMARK  status: ('A' for Active; 'I' for Inactive)
REMARK       I    between atoms: N_4  and  C_5 
REMARK       I    between atoms: C_5  and  N_6 
REMARK    1  A    between atoms: N_6  and  C_7 
REMARK    2  A    between atoms: C_20  and  C_21 
ROOT
HETATM    1  C   UNL     1      41.846 -14.659   5.114  1.00  0.00     0.011 C 
HETATM    2  C   UNL     1      43.041 -15.526   4.720  1.00  0.00     0.002 C 
HETATM    3  C   UNL     1      43.257 -15.515   3.207  1.00  0.00     0.132 C 
HETATM    4  N   UNL     1      42.461 -16.629   2.725  1.00  0.00    -0.325 N 
HETATM    5  C   UNL     1      41.642 -16.650   1.610  1.00  0.00     0.323 C 
HETATM    6  N   UNL     1      41.909 -15.649   0.702  1.00  0.00    -0.309 N 
HETATM    7  O   UNL     1      40.764 -17.499   1.475  1.00  0.00    -0.247 OA
HETATM    8  C   UNL     1      42.359 -17.670   3.741  1.00  0.00     0.125 C 
HETATM    9  C   UNL     1      42.803 -17.004   5.059  1.00  0.00     0.036 C 
HETATM   10  H   UNL     1      42.852 -15.295   0.730  1.00  0.00     0.170 HD
ENDROOT
BRANCH   6  11
HETATM   11  C   UNL     1      41.119 -15.269  -0.401  1.00  0.00     0.038 A 
HETATM   12  C   UNL     1      40.067 -14.352  -0.316  1.00  0.00     0.062 A 
HETATM   13  C   UNL     1      39.346 -14.004  -1.461  1.00  0.00     0.070 A 
HETATM   14  C   UNL     1      39.669 -14.560  -2.697  1.00  0.00     0.096 A 
HETATM   15  N   UNL     1      38.321 -13.062  -1.362  1.00  0.00    -0.323 N 
HETATM   16  O   UNL     1      39.031 -14.244  -3.865  1.00  0.00    -0.335 OA
HETATM   17  C   UNL     1      40.728 -15.459  -2.793  1.00  0.00     0.041 A 
HETATM   18  C   UNL     1      37.800 -13.542  -3.713  1.00  0.00     0.217 C 
HETATM   19  C   UNL     1      37.562 -12.712  -2.444  1.00  0.00     0.251 C 
HETATM   20  C   UNL     1      36.660 -14.548  -3.866  1.00  0.00     0.050 C 
HETATM   21  O   UNL     1      36.700 -11.839  -2.363  1.00  0.00    -0.270 OA
HETATM   22  C   UNL     1      41.450 -15.812  -1.649  1.00  0.00     0.032 A 
HETATM   23  H   UNL     1      38.133 -12.586  -0.490  1.00  0.00     0.169 HD
ENDBRANCH   6  11
BRANCH   8  24
HETATM   24  C   UNL     1      43.158 -18.899   3.345  1.00  0.00     0.003 A 
HETATM   25  C   UNL     1      44.276 -19.342   4.062  1.00  0.00     0.124 A 
HETATM   26  F   UNL     1      44.692 -18.681   5.153  1.00  0.00    -0.205 F 
HETATM   27  C   UNL     1      45.000 -20.467   3.670  1.00  0.00     0.043 A 
HETATM   28  C   UNL     1      44.630 -21.164   2.524  1.00  0.00     0.003 A 
HETATM   29  C   UNL     1      43.540 -20.726   1.773  1.00  0.00     0.001 A 
HETATM   30  C   UNL     1      42.812 -19.603   2.179  1.00  0.00     0.012 A 
ENDBRANCH   8  24
TORSDOF 2
ENDMDL
MODEL 9
REMARK VINA RESULT:      -8.2      4.523      6.861
REMARK  2 active torsions:
REMARK  status: ('A' for Active; 'I' for Inactive)
REMARK       I    between atoms: N_4  and  C_5 
REMARK       I    between atoms: C_5  and  N_6 
REMARK    1  A    between atoms: N_6  and  C_7 
REMARK    2  A    between atoms: C_20  and  C_21 
ROOT
HETATM    1  C   UNL     1      43.227 -18.791   2.198  1.00  0.00     0.011 C 
HETATM    2  C   UNL     1      42.849 -17.678   1.221  1.00  0.00     0.002 C 
HETATM    3  C   UNL     1      43.218 -16.305   1.779  1.00  0.00     0.132 C 
HETATM    4  N   UNL     1      42.034 -15.884   2.507  1.00  0.00    -0.325 N 
HETATM    5  C   UNL     1      41.988 -15.278   3.749  1.00  0.00     0.323 C 
HETATM    6  N   UNL     1      43.179 -14.706   4.136  1.00  0.00    -0.309 N 
HETATM    7  O   UNL     1      40.960 -15.271   4.423  1.00  0.00    -0.247 OA
HETATM    8  C   UNL     1      40.832 -16.467   1.919  1.00  0.00     0.125 C 
HETATM    9  C   UNL     1      41.330 -17.606   1.008  1.00  0.00     0.036 C 
HETATM   10  H   UNL     1      43.785 -14.440   3.376  1.00  0.00     0.170 HD
ENDROOT
BRANCH   6  11
HETATM   11  C   UNL     1      43.514 -14.222   5.416  1.00  0.00     0.038 A 
HETATM   12  C   UNL     1      42.952 -13.071   5.976  1.00  0.00     0.062 A 
HETATM   13  C   UNL     1      43.315 -12.668   7.264  1.00  0.00     0.070 A 
HETATM   14  C   UNL     1      44.233 -13.410   8.005  1.00  0.00     0.096 A 
HETATM   15  N   UNL     1      42.719 -11.535   7.819  1.00  0.00    -0.323 N 
HETATM   16  O   UNL     1      44.611 -13.098   9.282  1.00  0.00    -0.335 OA
HETATM   17  C   UNL     1      44.781 -14.569   7.462  1.00  0.00     0.041 A 
HETATM   18  C   UNL     1      44.256 -11.788   9.717  1.00  0.00     0.217 C 
HETATM   19  C   UNL     1      43.063 -11.078   9.060  1.00  0.00     0.251 C 
HETATM   20  C   UNL     1      45.490 -10.897   9.594  1.00  0.00     0.050 C 
HETATM   21  O   UNL     1      42.492 -10.114   9.566  1.00  0.00    -0.270 OA
HETATM   22  C   UNL     1      44.423 -14.973   6.172  1.00  0.00     0.032 A 
HETATM   23  H   UNL     1      41.988 -11.038   7.327  1.00  0.00     0.169 HD
ENDBRANCH   6  11
BRANCH   8  24
HETATM   24  C   UNL     1      39.998 -15.407   1.222  1.00  0.00     0.003 A 
HETATM   25  C   UNL     1      40.435 -14.730   0.076  1.00  0.00     0.124 A 
HETATM   26  F   UNL     1      41.635 -14.998  -0.459  1.00  0.00    -0.205 F 
HETATM   27  C   UNL     1      39.655 -13.751  -0.539  1.00  0.00     0.043 A 
HETATM   28  C   UNL     1      38.419 -13.410   0.001  1.00  0.00     0.003 A 
HETATM   29  C   UNL     1      37.973 -14.047   1.159  1.00  0.00     0.001 A 
HETATM   30  C   UNL     1      38.757 -15.034   1.764  1.00  0.00     0.012 A 
ENDBRANCH   8  24
TORSDOF 2
ENDMDL
MODEL 10
REMARK VINA RESULT:      -8.2      2.590      4.269
REMARK  2 active torsions:
REMARK  status: ('A' for Active; 'I' for Inactive)
REMARK       I    between atoms: N_4  and  C_5 
REMARK       I    between atoms: C_5  and  N_6 
REMARK    1  A    between atoms: N_6  and  C_7 
REMARK    2  A    between atoms: C_20  and  C_21 
ROOT
HETATM    1  C   UNL     1      40.424 -15.906  -3.307  1.00  0.00     0.011 C 
HETATM    2  C   UNL     1      40.441 -14.434  -2.896  1.00  0.00     0.002 C 
HETATM    3  C   UNL     1      41.311 -14.215  -1.660  1.00  0.00     0.132 C 
HETATM    4  N   UNL     1      40.395 -14.376  -0.545  1.00  0.00    -0.325 N 
HETATM    5  C   UNL     1      40.626 -15.061   0.634  1.00  0.00     0.323 C 
HETATM    6  N   UNL     1      41.959 -15.281   0.901  1.00  0.00    -0.309 N 
HETATM    7  O   UNL     1      39.701 -15.429   1.355  1.00  0.00    -0.247 OA
HETATM    8  C   UNL     1      39.040 -13.995  -0.930  1.00  0.00     0.125 C 
HETATM    9  C   UNL     1      39.047 -13.951  -2.470  1.00  0.00     0.036 C 
HETATM   10  H   UNL     1      42.588 -14.619   0.474  1.00  0.00     0.170 HD
ENDROOT
BRANCH   6  11
HETATM   11  C   UNL     1      42.501 -16.131   1.885  1.00  0.00     0.038 A 
HETATM   12  C   UNL     1      42.200 -16.023   3.246  1.00  0.00     0.062 A 
HETATM   13  C   UNL     1      42.756 -16.922   4.161  1.00  0.00     0.070 A 
HETATM   14  C   UNL     1      43.609 -17.936   3.727  1.00  0.00     0.096 A 
HETATM   15  N   UNL     1      42.418 -16.820   5.510  1.00  0.00    -0.323 N 
HETATM   16  O   UNL     1      44.164 -18.871   4.556  1.00  0.00    -0.335 OA
HETATM   17  C   UNL     1      43.897 -18.061   2.371  1.00  0.00     0.041 A 
HETATM   18  C   UNL     1      44.079 -18.574   5.948  1.00  0.00     0.217 C 
HETATM   19  C   UNL     1      42.960 -17.650   6.451  1.00  0.00     0.251 C 
HETATM   20  C   UNL     1      45.426 -18.007   6.394  1.00  0.00     0.050 C 
HETATM   21  O   UNL     1      42.613 -17.593   7.629  1.00  0.00    -0.270 OA
HETATM   22  C   UNL     1      43.345 -17.161   1.453  1.00  0.00     0.032 A 
HETATM   23  H   UNL     1      41.734 -16.145   5.826  1.00  0.00     0.169 HD
ENDBRANCH   6  11
BRANCH   8  24
HETATM   24  C   UNL     1      38.625 -12.701  -0.254  1.00  0.00     0.003 A 
HETATM   25  C   UNL     1      37.554 -12.622   0.645  1.00  0.00     0.124 A 
HETATM   26  F   UNL     1      36.837 -13.715   0.949  1.00  0.00    -0.205 F 
HETATM   27  C   UNL     1      37.185 -11.418   1.243  1.00  0.00     0.043 A 
HETATM   28  C   UNL     1      37.874 -10.250   0.930  1.00  0.00     0.003 A 
HETATM   29  C   UNL     1      38.924 -10.294   0.015  1.00  0.00     0.001 A 
HETATM   30  C   UNL     1      39.295 -11.507  -0.573  1.00  0.00     0.012 A 
ENDBRANCH   8  24
TORSDOF 2
ENDMDL
