MODEL 1
REMARK VINA RESULT:      -8.2      0.000      0.000
REMARK  5 active torsions:
REMARK  status: ('A' for Active; 'I' for Inactive)
REMARK    1  A    between atoms: C_6  and  N_7 
REMARK       I    between atoms: N_7  and  C_8 
REMARK    2  A    between atoms: C_8  and  C_9 
REMARK    3  A    between atoms: C_11  and  O_12 
REMARK    4  A    between atoms: C_15  and  O_16 
REMARK    5  A    between atoms: C_20  and  C_21 
ROOT
HETATM    1  C   UNL     1      44.127 -18.451   8.015  1.00  0.00     0.073 C 
HETATM    2  C   UNL     1      43.789 -17.320   7.117  1.00  0.00     0.065 A 
HETATM    3  N   UNL     1      43.535 -16.110   7.631  1.00  0.00    -0.177 NA
HETATM    4  N   UNL     1      43.236 -15.357   6.557  1.00  0.00    -0.262 N 
HETATM    5  H   UNL     1      42.981 -14.380   6.679  1.00  0.00     0.191 HD
HETATM    6  C   UNL     1      43.327 -16.032   5.368  1.00  0.00     0.137 A 
HETATM    7  C   UNL     1      43.671 -17.328   5.699  1.00  0.00     0.046 A 
ENDROOT
BRANCH   6   8
HETATM    8  N   UNL     1      43.103 -15.452   4.133  1.00  0.00    -0.307 N 
HETATM    9  C   UNL     1      41.841 -15.058   3.729  1.00  0.00     0.257 C 
HETATM   10  O   UNL     1      40.810 -15.171   4.382  1.00  0.00    -0.267 OA
HETATM   11  H   UNL     1      43.884 -15.393   3.491  1.00  0.00     0.170 HD
BRANCH   9  12
HETATM   12  C   UNL     1      41.793 -14.508   2.357  1.00  0.00     0.037 A 
HETATM   13  C   UNL     1      41.424 -15.355   1.311  1.00  0.00     0.054 A 
HETATM   14  C   UNL     1      41.442 -14.885  -0.001  1.00  0.00     0.071 A 
HETATM   15  C   UNL     1      41.787 -13.554  -0.245  1.00  0.00     0.073 A 
HETATM   16  C   UNL     1      42.121 -12.692   0.808  1.00  0.00     0.071 A 
HETATM   17  C   UNL     1      42.137 -13.172   2.116  1.00  0.00     0.054 A 
BRANCH  14  18
HETATM   18  O   UNL     1      41.107 -15.815  -0.946  1.00  0.00    -0.356 OA
HETATM   19  C   UNL     1      41.002 -15.356  -2.289  1.00  0.00     0.210 C 
ENDBRANCH  14  18
BRANCH  16  20
HETATM   20  O   UNL     1      42.426 -11.414   0.422  1.00  0.00    -0.356 OA
HETATM   21  C   UNL     1      42.779 -11.217  -0.942  1.00  0.00     0.210 C 
ENDBRANCH  16  20
ENDBRANCH   9  12
ENDBRANCH   6   8
BRANCH   7  22
HETATM   22  C   UNL     1      43.838 -18.406   4.745  1.00  0.00    -0.020 A 
HETATM   23  C   UNL     1      43.025 -18.475   3.608  1.00  0.00     0.014 A 
HETATM   24  C   UNL     1      43.185 -19.518   2.691  1.00  0.00     0.020 A 
HETATM   25  C   UNL     1      44.159 -20.490   2.911  1.00  0.00     0.011 A 
HETATM   26 BR   UNL     1      44.371 -21.903   1.673  1.00  0.00    -0.051 Br
HETATM   27  C   UNL     1      44.978 -20.429   4.037  1.00  0.00     0.020 A 
HETATM   28  C   UNL     1      44.820 -19.386   4.951  1.00  0.00     0.014 A 
ENDBRANCH   7  22
TORSDOF 5
ENDMDL
MODEL 2
REMARK VINA RESULT:      -8.1      3.356      5.711
REMARK  5 active torsions:
REMARK  status: ('A' for Active; 'I' for Inactive)
REMARK    1  A    between atoms: C_6  and  N_7 
REMARK       I    between atoms: N_7  and  C_8 
REMARK    2  A    between atoms: C_8  and  C_9 
REMARK    3  A    between atoms: C_11  and  O_12 
REMARK    4  A    between atoms: C_15  and  O_16 
REMARK    5  A    between atoms: C_20  and  C_21 
ROOT
HETATM    1  C   UNL     1      44.075 -21.615   2.241  1.00  0.00     0.073 C 
HETATM    2  C   UNL     1      44.319 -20.615   3.310  1.00  0.00     0.065 A 
HETATM    3  N   UNL     1      44.939 -20.981   4.440  1.00  0.00    -0.177 NA
HETATM    4  N   UNL     1      44.954 -19.858   5.180  1.00  0.00    -0.262 N 
HETATM    5  H   UNL     1      45.360 -19.871   6.111  1.00  0.00     0.191 HD
HETATM    6  C   UNL     1      44.399 -18.774   4.549  1.00  0.00     0.137 A 
HETATM    7  C   UNL     1      43.956 -19.240   3.327  1.00  0.00     0.046 A 
ENDROOT
BRANCH   6   8
HETATM    8  N   UNL     1      44.339 -17.508   5.101  1.00  0.00    -0.307 N 
HETATM    9  C   UNL     1      43.177 -17.007   5.656  1.00  0.00     0.257 C 
HETATM   10  O   UNL     1      42.103 -17.593   5.724  1.00  0.00    -0.267 OA
HETATM   11  H   UNL     1      45.159 -16.918   5.017  1.00  0.00     0.170 HD
BRANCH   9  12
HETATM   12  C   UNL     1      43.296 -15.617   6.147  1.00  0.00     0.037 A 
HETATM   13  C   UNL     1      42.366 -14.673   5.709  1.00  0.00     0.054 A 
HETATM   14  C   UNL     1      42.496 -13.340   6.095  1.00  0.00     0.071 A 
HETATM   15  C   UNL     1      43.534 -12.977   6.955  1.00  0.00     0.073 A 
HETATM   16  C   UNL     1      44.447 -13.931   7.426  1.00  0.00     0.071 A 
HETATM   17  C   UNL     1      44.337 -15.256   7.012  1.00  0.00     0.054 A 
BRANCH  14  18
HETATM   18  O   UNL     1      41.556 -12.498   5.569  1.00  0.00    -0.356 OA
HETATM   19  C   UNL     1      40.196 -12.785   5.871  1.00  0.00     0.210 C 
ENDBRANCH  14  18
BRANCH  16  20
HETATM   20  O   UNL     1      45.404 -13.434   8.270  1.00  0.00    -0.356 OA
HETATM   21  C   UNL     1      45.085 -12.243   8.980  1.00  0.00     0.210 C 
ENDBRANCH  16  20
ENDBRANCH   9  12
ENDBRANCH   6   8
BRANCH   7  22
HETATM   22  C   UNL     1      43.265 -18.435   2.339  1.00  0.00    -0.020 A 
HETATM   23  C   UNL     1      43.990 -17.730   1.371  1.00  0.00     0.014 A 
HETATM   24  C   UNL     1      43.322 -16.952   0.421  1.00  0.00     0.020 A 
HETATM   25  C   UNL     1      41.930 -16.881   0.438  1.00  0.00     0.011 A 
HETATM   26 BR   UNL     1      41.028 -15.825  -0.844  1.00  0.00    -0.051 Br
HETATM   27  C   UNL     1      41.198 -17.584   1.393  1.00  0.00     0.020 A 
HETATM   28  C   UNL     1      41.865 -18.363   2.340  1.00  0.00     0.014 A 
ENDBRANCH   7  22
TORSDOF 5
ENDMDL
MODEL 3
REMARK VINA RESULT:      -8.0      0.397      2.125
REMARK  5 active torsions:
REMARK  status: ('A' for Active; 'I' for Inactive)
REMARK    1  A    between atoms: C_6  and  N_7 
REMARK       I    between atoms: N_7  and  C_8 
REMARK    2  A    between atoms: C_8  and  C_9 
REMARK    3  A    between atoms: C_11  and  O_12 
REMARK    4  A    between atoms: C_15  and  O_16 
REMARK    5  A    between atoms: C_20  and  C_21 
ROOT
HETATM    1  C   UNL     1      43.980 -18.168   7.805  1.00  0.00     0.073 C 
HETATM    2  C   UNL     1      43.681 -17.074   6.848  1.00  0.00     0.065 A 
HETATM    3  N   UNL     1      43.439 -15.836   7.301  1.00  0.00    -0.177 NA
HETATM    4  N   UNL     1      43.175 -15.130   6.187  1.00  0.00    -0.262 N 
HETATM    5  H   UNL     1      42.936 -14.144   6.258  1.00  0.00     0.191 HD
HETATM    6  C   UNL     1      43.275 -15.862   5.032  1.00  0.00     0.137 A 
HETATM    7  C   UNL     1      43.589 -17.146   5.430  1.00  0.00     0.046 A 
ENDROOT
BRANCH   6   8
HETATM    8  N   UNL     1      43.085 -15.336   3.768  1.00  0.00    -0.307 N 
HETATM    9  C   UNL     1      41.833 -14.978   3.306  1.00  0.00     0.257 C 
HETATM   10  O   UNL     1      40.782 -15.079   3.929  1.00  0.00    -0.267 OA
HETATM   11  H   UNL     1      43.887 -15.293   3.150  1.00  0.00     0.170 HD
BRANCH   9  12
HETATM   12  C   UNL     1      41.824 -14.486   1.911  1.00  0.00     0.037 A 
HETATM   13  C   UNL     1      42.208 -13.167   1.666  1.00  0.00     0.054 A 
HETATM   14  C   UNL     1      42.139 -12.654   0.373  1.00  0.00     0.071 A 
HETATM   15  C   UNL     1      41.726 -13.484  -0.671  1.00  0.00     0.073 A 
HETATM   16  C   UNL     1      41.375 -14.821  -0.432  1.00  0.00     0.071 A 
HETATM   17  C   UNL     1      41.412 -15.323   0.866  1.00  0.00     0.054 A 
BRANCH  14  18
HETATM   18  O   UNL     1      42.495 -11.338   0.260  1.00  0.00    -0.356 OA
HETATM   19  C   UNL     1      42.923 -10.897  -1.023  1.00  0.00     0.210 C 
ENDBRANCH  14  18
BRANCH  16  20
HETATM   20  O   UNL     1      41.002 -15.518  -1.549  1.00  0.00    -0.356 OA
HETATM   21  C   UNL     1      41.051 -14.826  -2.791  1.00  0.00     0.210 C 
ENDBRANCH  16  20
ENDBRANCH   9  12
ENDBRANCH   6   8
BRANCH   7  22
HETATM   22  C   UNL     1      43.754 -18.271   4.531  1.00  0.00    -0.020 A 
HETATM   23  C   UNL     1      42.958 -18.381   3.385  1.00  0.00     0.014 A 
HETATM   24  C   UNL     1      43.116 -19.469   2.522  1.00  0.00     0.020 A 
HETATM   25  C   UNL     1      44.070 -20.444   2.803  1.00  0.00     0.011 A 
HETATM   26 BR   UNL     1      44.279 -21.917   1.637  1.00  0.00    -0.051 Br
HETATM   27  C   UNL     1      44.872 -20.343   3.938  1.00  0.00     0.020 A 
HETATM   28  C   UNL     1      44.716 -19.255   4.800  1.00  0.00     0.014 A 
ENDBRANCH   7  22
TORSDOF 5
ENDMDL
MODEL 4
REMARK VINA RESULT:      -8.0      3.659      7.536
REMARK  5 active torsions:
REMARK  status: ('A' for Active; 'I' for Inactive)
REMARK    1  A    between atoms: C_6  and  N_7 
REMARK       I    between atoms: N_7  and  C_8 
REMARK    2  A    between atoms: C_8  and  C_9 
REMARK    3  A    between atoms: C_11  and  O_12 
REMARK    4  A    between atoms: C_15  and  O_16 
REMARK    5  A    between atoms: C_20  and  C_21 
ROOT
HETATM    1  C   UNL     1      40.292 -13.218  -0.609  1.00  0.00     0.073 C 
HETATM    2  C   UNL     1      40.856 -14.512  -0.150  1.00  0.00     0.065 A 
HETATM    3  N   UNL     1      41.024 -15.515  -1.022  1.00  0.00    -0.177 NA
HETATM    4  N   UNL     1      41.508 -16.520  -0.270  1.00  0.00    -0.262 N 
HETATM    5  H   UNL     1      41.707 -17.420  -0.698  1.00  0.00     0.191 HD
HETATM    6  C   UNL     1      41.693 -16.184   1.046  1.00  0.00     0.137 A 
HETATM    7  C   UNL     1      41.259 -14.879   1.164  1.00  0.00     0.046 A 
ENDROOT
BRANCH   6   8
HETATM    8  N   UNL     1      42.215 -17.045   1.994  1.00  0.00    -0.307 N 
HETATM    9  C   UNL     1      43.563 -17.343   2.047  1.00  0.00     0.257 C 
HETATM   10  O   UNL     1      44.426 -16.903   1.294  1.00  0.00    -0.267 OA
HETATM   11  H   UNL     1      41.564 -17.521   2.608  1.00  0.00     0.170 HD
BRANCH   9  12
HETATM   12  C   UNL     1      43.923 -18.323   3.094  1.00  0.00     0.037 A 
HETATM   13  C   UNL     1      44.259 -19.621   2.706  1.00  0.00     0.054 A 
HETATM   14  C   UNL     1      44.530 -20.586   3.674  1.00  0.00     0.071 A 
HETATM   15  C   UNL     1      44.504 -20.226   5.024  1.00  0.00     0.073 A 
HETATM   16  C   UNL     1      44.203 -18.913   5.413  1.00  0.00     0.071 A 
HETATM   17  C   UNL     1      43.899 -17.958   4.446  1.00  0.00     0.054 A 
BRANCH  14  18
HETATM   18  O   UNL     1      44.801 -21.832   3.180  1.00  0.00    -0.356 OA
HETATM   19  C   UNL     1      44.359 -22.106   1.856  1.00  0.00     0.210 C 
ENDBRANCH  14  18
BRANCH  16  20
HETATM   20  O   UNL     1      44.227 -18.702   6.765  1.00  0.00    -0.356 OA
HETATM   21  C   UNL     1      43.200 -17.881   7.310  1.00  0.00     0.210 C 
ENDBRANCH  16  20
ENDBRANCH   9  12
ENDBRANCH   6   8
BRANCH   7  22
HETATM   22  C   UNL     1      41.236 -14.126   2.402  1.00  0.00    -0.020 A 
HETATM   23  C   UNL     1      40.040 -13.970   3.111  1.00  0.00     0.014 A 
HETATM   24  C   UNL     1      40.019 -13.240   4.303  1.00  0.00     0.020 A 
HETATM   25  C   UNL     1      41.195 -12.667   4.785  1.00  0.00     0.011 A 
HETATM   26 BR   UNL     1      41.165 -11.676   6.394  1.00  0.00    -0.051 Br
HETATM   27  C   UNL     1      42.393 -12.820   4.091  1.00  0.00     0.020 A 
HETATM   28  C   UNL     1      42.414 -13.552   2.901  1.00  0.00     0.014 A 
ENDBRANCH   7  22
TORSDOF 5
ENDMDL
MODEL 5
REMARK VINA RESULT:      -8.0      3.667      7.961
REMARK  5 active torsions:
REMARK  status: ('A' for Active; 'I' for Inactive)
REMARK    1  A    between atoms: C_6  and  N_7 
REMARK       I    between atoms: N_7  and  C_8 
REMARK    2  A    between atoms: C_8  and  C_9 
REMARK    3  A    between atoms: C_11  and  O_12 
REMARK    4  A    between atoms: C_15  and  O_16 
REMARK    5  A    between atoms: C_20  and  C_21 
ROOT
HETATM    1  C   UNL     1      40.203 -13.268  -0.780  1.00  0.00     0.073 C 
HETATM    2  C   UNL     1      40.778 -14.568  -0.354  1.00  0.00     0.065 A 
HETATM    3  N   UNL     1      40.966 -15.543  -1.253  1.00  0.00    -0.177 NA
HETATM    4  N   UNL     1      41.454 -16.565  -0.526  1.00  0.00    -0.262 N 
HETATM    5  H   UNL     1      41.668 -17.450  -0.978  1.00  0.00     0.191 HD
HETATM    6  C   UNL     1      41.621 -16.267   0.802  1.00  0.00     0.137 A 
HETATM    7  C   UNL     1      41.171 -14.970   0.954  1.00  0.00     0.046 A 
ENDROOT
BRANCH   6   8
HETATM    8  N   UNL     1      42.143 -17.149   1.730  1.00  0.00    -0.307 N 
HETATM    9  C   UNL     1      43.485 -17.475   1.753  1.00  0.00     0.257 C 
HETATM   10  O   UNL     1      44.342 -17.045   0.989  1.00  0.00    -0.267 OA
HETATM   11  H   UNL     1      41.494 -17.619   2.351  1.00  0.00     0.170 HD
BRANCH   9  12
HETATM   12  C   UNL     1      43.844 -18.475   2.782  1.00  0.00     0.037 A 
HETATM   13  C   UNL     1      43.971 -18.055   4.106  1.00  0.00     0.054 A 
HETATM   14  C   UNL     1      44.380 -18.959   5.085  1.00  0.00     0.071 A 
HETATM   15  C   UNL     1      44.614 -20.290   4.731  1.00  0.00     0.073 A 
HETATM   16  C   UNL     1      44.450 -20.722   3.407  1.00  0.00     0.071 A 
HETATM   17  C   UNL     1      44.075 -19.810   2.424  1.00  0.00     0.054 A 
BRANCH  14  18
HETATM   18  O   UNL     1      44.516 -18.425   6.336  1.00  0.00    -0.356 OA
HETATM   19  C   UNL     1      43.703 -18.981   7.363  1.00  0.00     0.210 C 
ENDBRANCH  14  18
BRANCH  16  20
HETATM   20  O   UNL     1      44.703 -22.053   3.209  1.00  0.00    -0.356 OA
HETATM   21  C   UNL     1      44.722 -22.886   4.362  1.00  0.00     0.210 C 
ENDBRANCH  16  20
ENDBRANCH   9  12
ENDBRANCH   6   8
BRANCH   7  22
HETATM   22  C   UNL     1      41.127 -14.254   2.213  1.00  0.00    -0.020 A 
HETATM   23  C   UNL     1      42.259 -13.574   2.677  1.00  0.00     0.014 A 
HETATM   24  C   UNL     1      42.215 -12.887   3.894  1.00  0.00     0.020 A 
HETATM   25  C   UNL     1      41.041 -12.879   4.644  1.00  0.00     0.011 A 
HETATM   26 BR   UNL     1      40.985 -11.953   6.291  1.00  0.00    -0.051 Br
HETATM   27  C   UNL     1      39.906 -13.548   4.189  1.00  0.00     0.020 A 
HETATM   28  C   UNL     1      39.948 -14.232   2.972  1.00  0.00     0.014 A 
ENDBRANCH   7  22
TORSDOF 5
ENDMDL
MODEL 6
REMARK VINA RESULT:      -7.8      3.256      6.919
REMARK  5 active torsions:
REMARK  status: ('A' for Active; 'I' for Inactive)
REMARK    1  A    between atoms: C_6  and  N_7 
REMARK       I    between atoms: N_7  and  C_8 
REMARK    2  A    between atoms: C_8  and  C_9 
REMARK    3  A    between atoms: C_11  and  O_12 
REMARK    4  A    between atoms: C_15  and  O_16 
REMARK    5  A    between atoms: C_20  and  C_21 
ROOT
HETATM    1  C   UNL     1      38.719 -11.382   4.551  1.00  0.00     0.073 C 
HETATM    2  C   UNL     1      39.370 -12.593   5.108  1.00  0.00     0.065 A 
HETATM    3  N   UNL     1      39.388 -12.793   6.433  1.00  0.00    -0.177 NA
HETATM    4  N   UNL     1      40.077 -13.940   6.577  1.00  0.00    -0.262 N 
HETATM    5  H   UNL     1      40.252 -14.310   7.508  1.00  0.00     0.191 HD
HETATM    6  C   UNL     1      40.468 -14.502   5.390  1.00  0.00     0.137 A 
HETATM    7  C   UNL     1      40.036 -13.636   4.406  1.00  0.00     0.046 A 
ENDROOT
BRANCH   6   8
HETATM    8  N   UNL     1      41.153 -15.700   5.293  1.00  0.00    -0.307 N 
HETATM    9  C   UNL     1      42.523 -15.746   5.124  1.00  0.00     0.257 C 
HETATM   10  O   UNL     1      43.270 -14.777   5.040  1.00  0.00    -0.267 OA
HETATM   11  H   UNL     1      40.608 -16.554   5.270  1.00  0.00     0.170 HD
BRANCH   9  12
HETATM   12  C   UNL     1      43.067 -17.115   4.987  1.00  0.00     0.037 A 
HETATM   13  C   UNL     1      43.202 -17.897   6.135  1.00  0.00     0.054 A 
HETATM   14  C   UNL     1      43.779 -19.162   6.048  1.00  0.00     0.071 A 
HETATM   15  C   UNL     1      44.176 -19.648   4.800  1.00  0.00     0.073 A 
HETATM   16  C   UNL     1      44.007 -18.878   3.641  1.00  0.00     0.071 A 
HETATM   17  C   UNL     1      43.461 -17.600   3.734  1.00  0.00     0.054 A 
BRANCH  14  18
HETATM   18  O   UNL     1      43.902 -19.818   7.242  1.00  0.00    -0.356 OA
HETATM   19  C   UNL     1      43.551 -21.196   7.256  1.00  0.00     0.210 C 
ENDBRANCH  14  18
BRANCH  16  20
HETATM   20  O   UNL     1      44.430 -19.485   2.489  1.00  0.00    -0.356 OA
HETATM   21  C   UNL     1      43.630 -20.550   1.988  1.00  0.00     0.210 C 
ENDBRANCH  16  20
ENDBRANCH   9  12
ENDBRANCH   6   8
BRANCH   7  22
HETATM   22  C   UNL     1      40.269 -13.817   2.987  1.00  0.00    -0.020 A 
HETATM   23  C   UNL     1      39.362 -14.550   2.212  1.00  0.00     0.014 A 
HETATM   24  C   UNL     1      39.591 -14.727   0.844  1.00  0.00     0.020 A 
HETATM   25  C   UNL     1      40.723 -14.170   0.252  1.00  0.00     0.011 A 
HETATM   26 BR   UNL     1      41.032 -14.414  -1.597  1.00  0.00    -0.051 Br
HETATM   27  C   UNL     1      41.629 -13.433   1.012  1.00  0.00     0.020 A 
HETATM   28  C   UNL     1      41.400 -13.255   2.379  1.00  0.00     0.014 A 
ENDBRANCH   7  22
TORSDOF 5
ENDMDL
MODEL 7
REMARK VINA RESULT:      -7.7      3.254      6.780
REMARK  5 active torsions:
REMARK  status: ('A' for Active; 'I' for Inactive)
REMARK    1  A    between atoms: C_6  and  N_7 
REMARK       I    between atoms: N_7  and  C_8 
REMARK    2  A    between atoms: C_8  and  C_9 
REMARK    3  A    between atoms: C_11  and  O_12 
REMARK    4  A    between atoms: C_15  and  O_16 
REMARK    5  A    between atoms: C_20  and  C_21 
ROOT
HETATM    1  C   UNL     1      38.860 -11.509   4.681  1.00  0.00     0.073 C 
HETATM    2  C   UNL     1      39.530 -12.782   5.047  1.00  0.00     0.065 A 
HETATM    3  N   UNL     1      39.571 -13.171   6.328  1.00  0.00    -0.177 NA
HETATM    4  N   UNL     1      40.271 -14.320   6.295  1.00  0.00    -0.262 N 
HETATM    5  H   UNL     1      40.465 -14.819   7.159  1.00  0.00     0.191 HD
HETATM    6  C   UNL     1      40.648 -14.700   5.033  1.00  0.00     0.137 A 
HETATM    7  C   UNL     1      40.193 -13.705   4.191  1.00  0.00     0.046 A 
ENDROOT
BRANCH   6   8
HETATM    8  N   UNL     1      41.341 -15.864   4.753  1.00  0.00    -0.307 N 
HETATM    9  C   UNL     1      42.554 -16.152   5.348  1.00  0.00     0.257 C 
HETATM   10  O   UNL     1      43.143 -15.445   6.158  1.00  0.00    -0.267 OA
HETATM   11  H   UNL     1      40.970 -16.471   4.032  1.00  0.00     0.170 HD
BRANCH   9  12
HETATM   12  C   UNL     1      43.167 -17.415   4.883  1.00  0.00     0.037 A 
HETATM   13  C   UNL     1      43.412 -17.575   3.518  1.00  0.00     0.054 A 
HETATM   14  C   UNL     1      43.920 -18.782   3.042  1.00  0.00     0.071 A 
HETATM   15  C   UNL     1      44.220 -19.802   3.947  1.00  0.00     0.073 A 
HETATM   16  C   UNL     1      44.010 -19.629   5.322  1.00  0.00     0.071 A 
HETATM   17  C   UNL     1      43.470 -18.435   5.794  1.00  0.00     0.054 A 
BRANCH  14  18
HETATM   18  O   UNL     1      44.075 -18.841   1.684  1.00  0.00    -0.356 OA
HETATM   19  C   UNL     1      43.673 -17.696   0.942  1.00  0.00     0.210 C 
ENDBRANCH  14  18
BRANCH  16  20
HETATM   20  O   UNL     1      44.359 -20.707   6.091  1.00  0.00    -0.356 OA
HETATM   21  C   UNL     1      44.764 -21.886   5.405  1.00  0.00     0.210 C 
ENDBRANCH  16  20
ENDBRANCH   9  12
ENDBRANCH   6   8
BRANCH   7  22
HETATM   22  C   UNL     1      40.404 -13.676   2.757  1.00  0.00    -0.020 A 
HETATM   23  C   UNL     1      39.470 -14.263   1.895  1.00  0.00     0.014 A 
HETATM   24  C   UNL     1      39.677 -14.238   0.513  1.00  0.00     0.020 A 
HETATM   25  C   UNL     1      40.815 -13.625  -0.006  1.00  0.00     0.011 A 
HETATM   26 BR   UNL     1      41.096 -13.596  -1.875  1.00  0.00    -0.051 Br
HETATM   27  C   UNL     1      41.750 -13.033   0.842  1.00  0.00     0.020 A 
HETATM   28  C   UNL     1      41.542 -13.056   2.223  1.00  0.00     0.014 A 
ENDBRANCH   7  22
TORSDOF 5
ENDMDL
MODEL 8
REMARK VINA RESULT:      -7.7      3.287      5.050
REMARK  5 active torsions:
REMARK  status: ('A' for Active; 'I' for Inactive)
REMARK    1  A    between atoms: C_6  and  N_7 
REMARK       I    between atoms: N_7  and  C_8 
REMARK    2  A    between atoms: C_8  and  C_9 
REMARK    3  A    between atoms: C_11  and  O_12 
REMARK    4  A    between atoms: C_15  and  O_16 
REMARK    5  A    between atoms: C_20  and  C_21 
ROOT
HETATM    1  C   UNL     1      43.877 -18.909   5.017  1.00  0.00     0.073 C 
HETATM    2  C   UNL     1      43.675 -18.534   3.596  1.00  0.00     0.065 A 
HETATM    3  N   UNL     1      43.957 -19.413   2.625  1.00  0.00    -0.177 NA
HETATM    4  N   UNL     1      43.698 -18.737   1.491  1.00  0.00    -0.262 N 
HETATM    5  H   UNL     1      43.853 -19.183   0.590  1.00  0.00     0.191 HD
HETATM    6  C   UNL     1      43.223 -17.468   1.701  1.00  0.00     0.137 A 
HETATM    7  C   UNL     1      43.212 -17.295   3.070  1.00  0.00     0.046 A 
ENDROOT
BRANCH   6   8
HETATM    8  N   UNL     1      42.854 -16.606   0.685  1.00  0.00    -0.307 N 
HETATM    9  C   UNL     1      41.535 -16.259   0.465  1.00  0.00     0.257 C 
HETATM   10  O   UNL     1      40.571 -16.653   1.111  1.00  0.00    -0.267 OA
HETATM   11  H   UNL     1      43.576 -16.294   0.046  1.00  0.00     0.170 HD
BRANCH   9  12
HETATM   12  C   UNL     1      41.333 -15.370  -0.700  1.00  0.00     0.037 A 
HETATM   13  C   UNL     1      41.638 -14.015  -0.567  1.00  0.00     0.054 A 
HETATM   14  C   UNL     1      41.388 -13.141  -1.624  1.00  0.00     0.071 A 
HETATM   15  C   UNL     1      40.875 -13.645  -2.821  1.00  0.00     0.073 A 
HETATM   16  C   UNL     1      40.603 -15.013  -2.969  1.00  0.00     0.071 A 
HETATM   17  C   UNL     1      40.821 -15.880  -1.901  1.00  0.00     0.054 A 
BRANCH  14  18
HETATM   18  O   UNL     1      41.682 -11.831  -1.364  1.00  0.00    -0.356 OA
HETATM   19  C   UNL     1      43.052 -11.456  -1.430  1.00  0.00     0.210 C 
ENDBRANCH  14  18
BRANCH  16  20
HETATM   20  O   UNL     1      40.116 -15.365  -4.198  1.00  0.00    -0.356 OA
HETATM   21  C   UNL     1      38.984 -16.227  -4.223  1.00  0.00     0.210 C 
ENDBRANCH  16  20
ENDBRANCH   9  12
ENDBRANCH   6   8
BRANCH   7  22
HETATM   22  C   UNL     1      42.814 -16.075   3.744  1.00  0.00    -0.020 A 
HETATM   23  C   UNL     1      43.609 -14.927   3.650  1.00  0.00     0.014 A 
HETATM   24  C   UNL     1      43.226 -13.752   4.304  1.00  0.00     0.020 A 
HETATM   25  C   UNL     1      42.049 -13.726   5.049  1.00  0.00     0.011 A 
HETATM   26 BR   UNL     1      41.535 -12.138   5.937  1.00  0.00    -0.051 Br
HETATM   27  C   UNL     1      41.247 -14.861   5.146  1.00  0.00     0.020 A 
HETATM   28  C   UNL     1      41.628 -16.034   4.490  1.00  0.00     0.014 A 
ENDBRANCH   7  22
TORSDOF 5
ENDMDL
MODEL 9
REMARK VINA RESULT:      -7.7      3.343      5.786
REMARK  5 active torsions:
REMARK  status: ('A' for Active; 'I' for Inactive)
REMARK    1  A    between atoms: C_6  and  N_7 
REMARK       I    between atoms: N_7  and  C_8 
REMARK    2  A    between atoms: C_8  and  C_9 
REMARK    3  A    between atoms: C_11  and  O_12 
REMARK    4  A    between atoms: C_15  and  O_16 
REMARK    5  A    between atoms: C_20  and  C_21 
ROOT
HETATM    1  C   UNL     1      44.054 -21.436   2.567  1.00  0.00     0.073 C 
HETATM    2  C   UNL     1      44.296 -20.382   3.582  1.00  0.00     0.065 A 
HETATM    3  N   UNL     1      44.908 -20.690   4.734  1.00  0.00    -0.177 NA
HETATM    4  N   UNL     1      44.923 -19.528   5.413  1.00  0.00    -0.262 N 
HETATM    5  H   UNL     1      45.324 -19.494   6.346  1.00  0.00     0.191 HD
HETATM    6  C   UNL     1      44.377 -18.478   4.722  1.00  0.00     0.137 A 
HETATM    7  C   UNL     1      43.940 -19.006   3.523  1.00  0.00     0.046 A 
ENDROOT
BRANCH   6   8
HETATM    8  N   UNL     1      44.320 -17.184   5.206  1.00  0.00    -0.307 N 
HETATM    9  C   UNL     1      43.218 -16.708   5.890  1.00  0.00     0.257 C 
HETATM   10  O   UNL     1      42.200 -17.342   6.142  1.00  0.00    -0.267 OA
HETATM   11  H   UNL     1      45.084 -16.560   4.974  1.00  0.00     0.170 HD
BRANCH   9  12
HETATM   12  C   UNL     1      43.321 -15.285   6.281  1.00  0.00     0.037 A 
HETATM   13  C   UNL     1      44.300 -14.915   7.205  1.00  0.00     0.054 A 
HETATM   14  C   UNL     1      44.372 -13.596   7.647  1.00  0.00     0.071 A 
HETATM   15  C   UNL     1      43.489 -12.650   7.124  1.00  0.00     0.073 A 
HETATM   16  C   UNL     1      42.529 -13.012   6.168  1.00  0.00     0.071 A 
HETATM   17  C   UNL     1      42.435 -14.338   5.752  1.00  0.00     0.054 A 
BRANCH  14  18
HETATM   18  O   UNL     1      45.339 -13.360   8.586  1.00  0.00    -0.356 OA
HETATM   19  C   UNL     1      45.450 -12.028   9.072  1.00  0.00     0.210 C 
ENDBRANCH  14  18
BRANCH  16  20
HETATM   20  O   UNL     1      41.740 -11.981   5.736  1.00  0.00    -0.356 OA
HETATM   21  C   UNL     1      41.078 -12.152   4.488  1.00  0.00     0.210 C 
ENDBRANCH  16  20
ENDBRANCH   9  12
ENDBRANCH   6   8
BRANCH   7  22
HETATM   22  C   UNL     1      43.258 -18.252   2.490  1.00  0.00    -0.020 A 
HETATM   23  C   UNL     1      43.951 -17.837   1.347  1.00  0.00     0.014 A 
HETATM   24  C   UNL     1      43.292 -17.107   0.353  1.00  0.00     0.020 A 
HETATM   25  C   UNL     1      41.942 -16.795   0.501  1.00  0.00     0.011 A 
HETATM   26 BR   UNL     1      41.054 -15.805  -0.842  1.00  0.00    -0.051 Br
HETATM   27  C   UNL     1      41.240 -17.209   1.632  1.00  0.00     0.020 A 
HETATM   28  C   UNL     1      41.898 -17.940   2.624  1.00  0.00     0.014 A 
ENDBRANCH   7  22
TORSDOF 5
ENDMDL
MODEL 10
REMARK VINA RESULT:      -7.7      3.316      4.638
REMARK  5 active torsions:
REMARK  status: ('A' for Active; 'I' for Inactive)
REMARK    1  A    between atoms: C_6  and  N_7 
REMARK       I    between atoms: N_7  and  C_8 
REMARK    2  A    between atoms: C_8  and  C_9 
REMARK    3  A    between atoms: C_11  and  O_12 
REMARK    4  A    between atoms: C_15  and  O_16 
REMARK    5  A    between atoms: C_20  and  C_21 
ROOT
HETATM    1  C   UNL     1      43.883 -18.723   4.937  1.00  0.00     0.073 C 
HETATM    2  C   UNL     1      43.686 -18.341   3.516  1.00  0.00     0.065 A 
HETATM    3  N   UNL     1      44.005 -19.203   2.542  1.00  0.00    -0.177 NA
HETATM    4  N   UNL     1      43.740 -18.526   1.411  1.00  0.00    -0.262 N 
HETATM    5  H   UNL     1      43.918 -18.959   0.508  1.00  0.00     0.191 HD
HETATM    6  C   UNL     1      43.227 -17.273   1.625  1.00  0.00     0.137 A 
HETATM    7  C   UNL     1      43.194 -17.112   2.996  1.00  0.00     0.046 A 
ENDROOT
BRANCH   6   8
HETATM    8  N   UNL     1      42.845 -16.413   0.612  1.00  0.00    -0.307 N 
HETATM    9  C   UNL     1      41.516 -16.173   0.319  1.00  0.00     0.257 C 
HETATM   10  O   UNL     1      40.553 -16.670   0.893  1.00  0.00    -0.267 OA
HETATM   11  H   UNL     1      43.574 -16.018   0.029  1.00  0.00     0.170 HD
BRANCH   9  12
HETATM   12  C   UNL     1      41.307 -15.268  -0.831  1.00  0.00     0.037 A 
HETATM   13  C   UNL     1      40.770 -15.794  -2.007  1.00  0.00     0.054 A 
HETATM   14  C   UNL     1      40.631 -14.982  -3.131  1.00  0.00     0.071 A 
HETATM   15  C   UNL     1      40.991 -13.635  -3.049  1.00  0.00     0.073 A 
HETATM   16  C   UNL     1      41.495 -13.096  -1.857  1.00  0.00     0.071 A 
HETATM   17  C   UNL     1      41.666 -13.916  -0.745  1.00  0.00     0.054 A 
BRANCH  14  18
HETATM   18  O   UNL     1      40.139 -15.617  -4.237  1.00  0.00    -0.356 OA
HETATM   19  C   UNL     1      38.766 -15.986  -4.208  1.00  0.00     0.210 C 
ENDBRANCH  14  18
BRANCH  16  20
HETATM   20  O   UNL     1      41.794 -11.761  -1.920  1.00  0.00    -0.356 OA
HETATM   21  C   UNL     1      42.957 -11.326  -1.224  1.00  0.00     0.210 C 
ENDBRANCH  16  20
ENDBRANCH   9  12
ENDBRANCH   6   8
BRANCH   7  22
HETATM   22  C   UNL     1      42.754 -15.910   3.675  1.00  0.00    -0.020 A 
HETATM   23  C   UNL     1      43.569 -14.772   3.694  1.00  0.00     0.014 A 
HETATM   24  C   UNL     1      43.144 -13.614   4.353  1.00  0.00     0.020 A 
HETATM   25  C   UNL     1      41.905 -13.595   4.991  1.00  0.00     0.011 A 
HETATM   26 BR   UNL     1      41.335 -12.031   5.886  1.00  0.00    -0.051 Br
HETATM   27  C   UNL     1      41.083 -14.720   4.975  1.00  0.00     0.020 A 
HETATM   28  C   UNL     1      41.506 -15.876   4.314  1.00  0.00     0.014 A 
ENDBRANCH   7  22
TORSDOF 5
ENDMDL
