MODEL 1
REMARK VINA RESULT:      -7.8      0.000      0.000
REMARK  6 active torsions:
REMARK  status: ('A' for Active; 'I' for Inactive)
REMARK    1  A    between atoms: C_6  and  C_7 
REMARK    2  A    between atoms: C_7  and  N_8 
REMARK    3  A    between atoms: C_7  and  C_24 
REMARK       I    between atoms: N_8  and  C_9 
REMARK       I    between atoms: C_9  and  N_10 
REMARK    4  A    between atoms: N_10  and  C_11 
REMARK    5  A    between atoms: C_14  and  C_15 
REMARK    6  A    between atoms: C_24  and  O_25 
ROOT
HETATM    1  N   UNL     1      45.050 -14.235   6.900  1.00  0.00    -0.331 N 
HETATM    2  C   UNL     1      45.147 -13.214   7.794  1.00  0.00     0.321 C 
HETATM    3  N   UNL     1      44.034 -12.958   8.543  1.00  0.00    -0.309 N 
HETATM    4  O   UNL     1      46.220 -12.622   7.850  1.00  0.00    -0.247 OA
HETATM    5  H   UNL     1      45.911 -14.349   6.383  1.00  0.00     0.165 HD
HETATM    6  H   UNL     1      43.231 -13.534   8.366  1.00  0.00     0.170 HD
ENDROOT
BRANCH   1   7
HETATM    7  C   UNL     1      43.931 -15.096   6.530  1.00  0.00     0.161 C 
BRANCH   7   8
HETATM    8  C   UNL     1      43.299 -14.540   5.291  1.00  0.00     0.056 A 
HETATM    9  N   UNL     1      41.950 -14.610   5.029  1.00  0.00    -0.277 N 
HETATM   10  C   UNL     1      40.914 -15.180   5.859  1.00  0.00     0.179 C 
HETATM   11  N   UNL     1      41.609 -14.077   3.842  1.00  0.00    -0.185 NA
HETATM   12  C   UNL     1      42.762 -13.634   3.341  1.00  0.00     0.141 A 
HETATM   13  C   UNL     1      43.845 -13.897   4.193  1.00  0.00     0.050 A 
ENDBRANCH   7   8
BRANCH   7  14
HETATM   14  C   UNL     1      44.407 -16.549   6.303  1.00  0.00     0.198 C 
BRANCH  14  15
HETATM   15  O   UNL     1      43.445 -17.449   6.865  1.00  0.00    -0.394 OA
HETATM   16  C   UNL     1      43.322 -17.283   8.271  1.00  0.00     0.201 C 
ENDBRANCH  14  15
ENDBRANCH   7  14
ENDBRANCH   1   7
BRANCH   3  17
HETATM   17  C   UNL     1      43.869 -11.971   9.536  1.00  0.00     0.036 A 
HETATM   18  C   UNL     1      44.547 -11.958  10.751  1.00  0.00     0.030 A 
HETATM   19  C   UNL     1      44.329 -10.930  11.680  1.00  0.00     0.010 A 
HETATM   20  C   UNL     1      43.441  -9.872  11.419  1.00  0.00    -0.054 A 
HETATM   21  C   UNL     1      42.740  -9.920  10.207  1.00  0.00     0.010 A 
HETATM   22  C   UNL     1      42.959 -10.944   9.276  1.00  0.00     0.030 A 
BRANCH  20  23
HETATM   23  C   UNL     1      43.222  -8.781  12.470  1.00  0.00     0.018 C 
HETATM   24  C   UNL     1      41.824  -8.122  12.399  1.00  0.00     0.009 C 
HETATM   25  C   UNL     1      40.720  -9.037  12.927  1.00  0.00     0.001 C 
HETATM   26  C   UNL     1      40.995  -9.466  14.364  1.00  0.00     0.000 C 
HETATM   27  C   UNL     1      42.380 -10.086  14.517  1.00  0.00     0.001 C 
HETATM   28  C   UNL     1      43.477  -9.186  13.942  1.00  0.00     0.009 C 
ENDBRANCH  20  23
ENDBRANCH   3  17
TORSDOF 6
ENDMDL
MODEL 2
REMARK VINA RESULT:      -7.2      7.560      9.851
REMARK  6 active torsions:
REMARK  status: ('A' for Active; 'I' for Inactive)
REMARK    1  A    between atoms: C_6  and  C_7 
REMARK    2  A    between atoms: C_7  and  N_8 
REMARK    3  A    between atoms: C_7  and  C_24 
REMARK       I    between atoms: N_8  and  C_9 
REMARK       I    between atoms: C_9  and  N_10 
REMARK    4  A    between atoms: N_10  and  C_11 
REMARK    5  A    between atoms: C_14  and  C_15 
REMARK    6  A    between atoms: C_24  and  O_25 
ROOT
HETATM    1  N   UNL     1      39.762 -15.189   0.672  1.00  0.00    -0.331 N 
HETATM    2  C   UNL     1      40.326 -16.011   1.598  1.00  0.00     0.321 C 
HETATM    3  N   UNL     1      41.690 -16.024   1.645  1.00  0.00    -0.309 N 
HETATM    4  O   UNL     1      39.562 -16.660   2.307  1.00  0.00    -0.247 OA
HETATM    5  H   UNL     1      38.753 -15.249   0.698  1.00  0.00     0.165 HD
HETATM    6  H   UNL     1      42.168 -15.436   0.985  1.00  0.00     0.170 HD
ENDROOT
BRANCH   1   7
HETATM    7  C   UNL     1      40.353 -14.339  -0.357  1.00  0.00     0.161 C 
BRANCH   7   8
HETATM    8  C   UNL     1      39.426 -14.309  -1.533  1.00  0.00     0.056 A 
HETATM    9  N   UNL     1      39.719 -14.887  -2.747  1.00  0.00    -0.277 N 
HETATM   10  C   UNL     1      40.906 -15.627  -3.113  1.00  0.00     0.179 C 
HETATM   11  N   UNL     1      38.758 -14.708  -3.670  1.00  0.00    -0.185 NA
HETATM   12  C   UNL     1      37.815 -14.019  -3.027  1.00  0.00     0.141 A 
HETATM   13  C   UNL     1      38.176 -13.738  -1.701  1.00  0.00     0.050 A 
ENDBRANCH   7   8
BRANCH   7  14
HETATM   14  C   UNL     1      40.604 -12.913   0.185  1.00  0.00     0.198 C 
BRANCH  14  15
HETATM   15  O   UNL     1      41.929 -12.844   0.724  1.00  0.00    -0.394 OA
HETATM   16  C   UNL     1      41.919 -12.590   2.122  1.00  0.00     0.201 C 
ENDBRANCH  14  15
ENDBRANCH   7  14
ENDBRANCH   1   7
BRANCH   3  17
HETATM   17  C   UNL     1      42.518 -16.773   2.506  1.00  0.00     0.036 A 
HETATM   18  C   UNL     1      43.033 -18.029   2.205  1.00  0.00     0.030 A 
HETATM   19  C   UNL     1      43.857 -18.701   3.119  1.00  0.00     0.010 A 
HETATM   20  C   UNL     1      44.210 -18.133   4.355  1.00  0.00    -0.054 A 
HETATM   21  C   UNL     1      43.653 -16.883   4.658  1.00  0.00     0.010 A 
HETATM   22  C   UNL     1      42.832 -16.209   3.745  1.00  0.00     0.030 A 
BRANCH  20  23
HETATM   23  C   UNL     1      45.099 -18.912   5.328  1.00  0.00     0.018 C 
HETATM   24  C   UNL     1      45.023 -18.398   6.786  1.00  0.00     0.009 C 
HETATM   25  C   UNL     1      43.712 -18.779   7.472  1.00  0.00     0.001 C 
HETATM   26  C   UNL     1      43.502 -20.289   7.465  1.00  0.00     0.000 C 
HETATM   27  C   UNL     1      43.608 -20.872   6.059  1.00  0.00     0.001 C 
HETATM   28  C   UNL     1      44.902 -20.446   5.360  1.00  0.00     0.009 C 
ENDBRANCH  20  23
ENDBRANCH   3  17
TORSDOF 6
ENDMDL
MODEL 3
REMARK VINA RESULT:      -7.0      2.785      9.034
REMARK  6 active torsions:
REMARK  status: ('A' for Active; 'I' for Inactive)
REMARK    1  A    between atoms: C_6  and  C_7 
REMARK    2  A    between atoms: C_7  and  N_8 
REMARK    3  A    between atoms: C_7  and  C_24 
REMARK       I    between atoms: N_8  and  C_9 
REMARK       I    between atoms: C_9  and  N_10 
REMARK    4  A    between atoms: N_10  and  C_11 
REMARK    5  A    between atoms: C_14  and  C_15 
REMARK    6  A    between atoms: C_24  and  O_25 
ROOT
HETATM    1  N   UNL     1      44.097 -11.932   8.855  1.00  0.00    -0.331 N 
HETATM    2  C   UNL     1      44.419 -12.858   7.912  1.00  0.00     0.321 C 
HETATM    3  N   UNL     1      43.384 -13.347   7.166  1.00  0.00    -0.309 N 
HETATM    4  O   UNL     1      45.603 -13.165   7.813  1.00  0.00    -0.247 OA
HETATM    5  H   UNL     1      44.916 -11.633   9.367  1.00  0.00     0.165 HD
HETATM    6  H   UNL     1      42.469 -12.994   7.382  1.00  0.00     0.170 HD
ENDROOT
BRANCH   1   7
HETATM    7  C   UNL     1      42.810 -11.390   9.282  1.00  0.00     0.161 C 
BRANCH   7   8
HETATM    8  C   UNL     1      42.953 -10.888  10.686  1.00  0.00     0.056 A 
HETATM    9  N   UNL     1      41.907 -10.816  11.577  1.00  0.00    -0.277 N 
HETATM   10  C   UNL     1      40.534 -11.214  11.367  1.00  0.00     0.179 C 
HETATM   11  N   UNL     1      42.257 -10.301  12.769  1.00  0.00    -0.185 NA
HETATM   12  C   UNL     1      43.562 -10.058  12.648  1.00  0.00     0.141 A 
HETATM   13  C   UNL     1      44.047 -10.397  11.377  1.00  0.00     0.050 A 
ENDBRANCH   7   8
BRANCH   7  14
HETATM   14  C   UNL     1      42.349 -10.260   8.335  1.00  0.00     0.198 C 
BRANCH  14  15
HETATM   15  O   UNL     1      41.615 -10.831   7.246  1.00  0.00    -0.394 OA
HETATM   16  C   UNL     1      40.257 -11.070   7.591  1.00  0.00     0.201 C 
ENDBRANCH  14  15
ENDBRANCH   7  14
ENDBRANCH   1   7
BRANCH   3  17
HETATM   17  C   UNL     1      43.442 -14.300   6.128  1.00  0.00     0.036 A 
HETATM   18  C   UNL     1      43.462 -13.986   4.774  1.00  0.00     0.030 A 
HETATM   19  C   UNL     1      43.530 -14.999   3.807  1.00  0.00     0.010 A 
HETATM   20  C   UNL     1      43.598 -16.357   4.160  1.00  0.00    -0.054 A 
HETATM   21  C   UNL     1      43.541 -16.658   5.528  1.00  0.00     0.010 A 
HETATM   22  C   UNL     1      43.476 -15.647   6.496  1.00  0.00     0.030 A 
BRANCH  20  23
HETATM   23  C   UNL     1      43.654 -17.430   3.069  1.00  0.00     0.018 C 
HETATM   24  C   UNL     1      42.414 -18.357   3.045  1.00  0.00     0.009 C 
HETATM   25  C   UNL     1      41.176 -17.661   2.483  1.00  0.00     0.001 C 
HETATM   26  C   UNL     1      41.428 -17.131   1.076  1.00  0.00     0.000 C 
HETATM   27  C   UNL     1      42.667 -16.242   1.016  1.00  0.00     0.001 C 
HETATM   28  C   UNL     1      43.893 -16.927   1.625  1.00  0.00     0.009 C 
ENDBRANCH  20  23
ENDBRANCH   3  17
TORSDOF 6
ENDMDL
MODEL 4
REMARK VINA RESULT:      -7.0      6.175     10.974
REMARK  6 active torsions:
REMARK  status: ('A' for Active; 'I' for Inactive)
REMARK    1  A    between atoms: C_6  and  C_7 
REMARK    2  A    between atoms: C_7  and  N_8 
REMARK    3  A    between atoms: C_7  and  C_24 
REMARK       I    between atoms: N_8  and  C_9 
REMARK       I    between atoms: C_9  and  N_10 
REMARK    4  A    between atoms: N_10  and  C_11 
REMARK    5  A    between atoms: C_14  and  C_15 
REMARK    6  A    between atoms: C_24  and  O_25 
ROOT
HETATM    1  N   UNL     1      43.154 -16.553   4.277  1.00  0.00    -0.331 N 
HETATM    2  C   UNL     1      42.882 -15.767   3.200  1.00  0.00     0.321 C 
HETATM    3  N   UNL     1      41.861 -16.179   2.392  1.00  0.00    -0.309 N 
HETATM    4  O   UNL     1      43.571 -14.762   3.055  1.00  0.00    -0.247 OA
HETATM    5  H   UNL     1      43.927 -16.183   4.812  1.00  0.00     0.165 HD
HETATM    6  H   UNL     1      41.401 -17.034   2.650  1.00  0.00     0.170 HD
ENDROOT
BRANCH   1   7
HETATM    7  C   UNL     1      42.589 -17.826   4.715  1.00  0.00     0.161 C 
BRANCH   7   8
HETATM    8  C   UNL     1      43.621 -18.892   4.514  1.00  0.00     0.056 A 
HETATM    9  N   UNL     1      43.789 -19.574   3.330  1.00  0.00    -0.277 N 
HETATM   10  C   UNL     1      43.063 -19.395   2.094  1.00  0.00     0.179 C 
HETATM   11  N   UNL     1      44.751 -20.512   3.387  1.00  0.00    -0.185 NA
HETATM   12  C   UNL     1      45.227 -20.415   4.628  1.00  0.00     0.141 A 
HETATM   13  C   UNL     1      44.562 -19.432   5.375  1.00  0.00     0.050 A 
ENDBRANCH   7   8
BRANCH   7  14
HETATM   14  C   UNL     1      42.151 -17.753   6.195  1.00  0.00     0.198 C 
BRANCH  14  15
HETATM   15  O   UNL     1      42.860 -16.690   6.841  1.00  0.00    -0.394 OA
HETATM   16  C   UNL     1      43.367 -17.085   8.109  1.00  0.00     0.201 C 
ENDBRANCH  14  15
ENDBRANCH   7  14
ENDBRANCH   1   7
BRANCH   3  17
HETATM   17  C   UNL     1      41.374 -15.551   1.227  1.00  0.00     0.036 A 
HETATM   18  C   UNL     1      40.598 -14.398   1.223  1.00  0.00     0.030 A 
HETATM   19  C   UNL     1      40.163 -13.834   0.014  1.00  0.00     0.010 A 
HETATM   20  C   UNL     1      40.503 -14.394  -1.229  1.00  0.00    -0.054 A 
HETATM   21  C   UNL     1      41.255 -15.576  -1.205  1.00  0.00     0.010 A 
HETATM   22  C   UNL     1      41.693 -16.139   0.001  1.00  0.00     0.030 A 
BRANCH  20  23
HETATM   23  C   UNL     1      39.991 -13.754  -2.522  1.00  0.00     0.018 C 
HETATM   24  C   UNL     1      40.218 -14.627  -3.780  1.00  0.00     0.009 C 
HETATM   25  C   UNL     1      39.269 -15.822  -3.839  1.00  0.00     0.001 C 
HETATM   26  C   UNL     1      37.812 -15.376  -3.800  1.00  0.00     0.000 C 
HETATM   27  C   UNL     1      37.525 -14.471  -2.605  1.00  0.00     0.001 C 
HETATM   28  C   UNL     1      38.511 -13.302  -2.524  1.00  0.00     0.009 C 
ENDBRANCH  20  23
ENDBRANCH   3  17
TORSDOF 6
ENDMDL
MODEL 5
REMARK VINA RESULT:      -6.9      6.883      9.982
REMARK  6 active torsions:
REMARK  status: ('A' for Active; 'I' for Inactive)
REMARK    1  A    between atoms: C_6  and  C_7 
REMARK    2  A    between atoms: C_7  and  N_8 
REMARK    3  A    between atoms: C_7  and  C_24 
REMARK       I    between atoms: N_8  and  C_9 
REMARK       I    between atoms: C_9  and  N_10 
REMARK    4  A    between atoms: N_10  and  C_11 
REMARK    5  A    between atoms: C_14  and  C_15 
REMARK    6  A    between atoms: C_24  and  O_25 
ROOT
HETATM    1  N   UNL     1      38.803 -13.643  -0.362  1.00  0.00    -0.331 N 
HETATM    2  C   UNL     1      38.941 -14.251   0.847  1.00  0.00     0.321 C 
HETATM    3  N   UNL     1      40.162 -14.800   1.114  1.00  0.00    -0.309 N 
HETATM    4  O   UNL     1      37.962 -14.246   1.588  1.00  0.00    -0.247 OA
HETATM    5  H   UNL     1      37.869 -13.275  -0.481  1.00  0.00     0.165 HD
HETATM    6  H   UNL     1      40.856 -14.723   0.392  1.00  0.00     0.170 HD
ENDROOT
BRANCH   1   7
HETATM    7  C   UNL     1      39.718 -13.516  -1.492  1.00  0.00     0.161 C 
BRANCH   7   8
HETATM    8  C   UNL     1      39.231 -14.405  -2.595  1.00  0.00     0.056 A 
HETATM    9  N   UNL     1      40.053 -15.236  -3.321  1.00  0.00    -0.277 N 
HETATM   10  C   UNL     1      41.475 -15.435  -3.163  1.00  0.00     0.179 C 
HETATM   11  N   UNL     1      39.407 -15.916  -4.285  1.00  0.00    -0.185 NA
HETATM   12  C   UNL     1      38.137 -15.531  -4.159  1.00  0.00     0.141 A 
HETATM   13  C   UNL     1      37.968 -14.592  -3.132  1.00  0.00     0.050 A 
ENDBRANCH   7   8
BRANCH   7  14
HETATM   14  C   UNL     1      39.808 -12.048  -1.965  1.00  0.00     0.198 C 
BRANCH  14  15
HETATM   15  O   UNL     1      41.186 -11.676  -2.079  1.00  0.00    -0.394 OA
HETATM   16  C   UNL     1      41.999 -12.358  -1.133  1.00  0.00     0.201 C 
ENDBRANCH  14  15
ENDBRANCH   7  14
ENDBRANCH   1   7
BRANCH   3  17
HETATM   17  C   UNL     1      40.569 -15.475   2.283  1.00  0.00     0.036 A 
HETATM   18  C   UNL     1      40.565 -14.915   3.555  1.00  0.00     0.030 A 
HETATM   19  C   UNL     1      40.979 -15.662   4.667  1.00  0.00     0.010 A 
HETATM   20  C   UNL     1      41.394 -17.000   4.547  1.00  0.00    -0.054 A 
HETATM   21  C   UNL     1      41.427 -17.538   3.253  1.00  0.00     0.010 A 
HETATM   22  C   UNL     1      41.010 -16.793   2.142  1.00  0.00     0.030 A 
BRANCH  20  23
HETATM   23  C   UNL     1      41.854 -17.772   5.786  1.00  0.00     0.018 C 
HETATM   24  C   UNL     1      42.999 -18.775   5.504  1.00  0.00     0.009 C 
HETATM   25  C   UNL     1      44.340 -18.079   5.277  1.00  0.00     0.001 C 
HETATM   26  C   UNL     1      44.723 -17.210   6.468  1.00  0.00     0.000 C 
HETATM   27  C   UNL     1      43.617 -16.223   6.832  1.00  0.00     0.001 C 
HETATM   28  C   UNL     1      42.266 -16.921   7.011  1.00  0.00     0.009 C 
ENDBRANCH  20  23
ENDBRANCH   3  17
TORSDOF 6
ENDMDL
MODEL 6
REMARK VINA RESULT:      -6.8      6.868      9.711
REMARK  6 active torsions:
REMARK  status: ('A' for Active; 'I' for Inactive)
REMARK    1  A    between atoms: C_6  and  C_7 
REMARK    2  A    between atoms: C_7  and  N_8 
REMARK    3  A    between atoms: C_7  and  C_24 
REMARK       I    between atoms: N_8  and  C_9 
REMARK       I    between atoms: C_9  and  N_10 
REMARK    4  A    between atoms: N_10  and  C_11 
REMARK    5  A    between atoms: C_14  and  C_15 
REMARK    6  A    between atoms: C_24  and  O_25 
ROOT
HETATM    1  N   UNL     1      41.478 -13.032  -0.579  1.00  0.00    -0.331 N 
HETATM    2  C   UNL     1      41.802 -13.555   0.635  1.00  0.00     0.321 C 
HETATM    3  N   UNL     1      41.342 -14.815   0.893  1.00  0.00    -0.309 N 
HETATM    4  O   UNL     1      42.479 -12.854   1.381  1.00  0.00    -0.247 OA
HETATM    5  H   UNL     1      41.847 -12.096  -0.682  1.00  0.00     0.165 HD
HETATM    6  H   UNL     1      40.792 -15.248   0.173  1.00  0.00     0.170 HD
ENDROOT
BRANCH   1   7
HETATM    7  C   UNL     1      40.653 -13.547  -1.667  1.00  0.00     0.161 C 
BRANCH   7   8
HETATM    8  C   UNL     1      39.476 -12.637  -1.838  1.00  0.00     0.056 A 
HETATM    9  N   UNL     1      38.280 -12.810  -1.178  1.00  0.00    -0.277 N 
HETATM   10  C   UNL     1      37.938 -13.832  -0.216  1.00  0.00     0.179 C 
HETATM   11  N   UNL     1      37.352 -11.895  -1.510  1.00  0.00    -0.185 NA
HETATM   12  C   UNL     1      37.972 -11.104  -2.384  1.00  0.00     0.141 A 
HETATM   13  C   UNL     1      39.289 -11.518  -2.631  1.00  0.00     0.050 A 
ENDBRANCH   7   8
BRANCH   7  14
HETATM   14  C   UNL     1      41.470 -13.646  -2.976  1.00  0.00     0.198 C 
BRANCH  14  15
HETATM   15  O   UNL     1      40.909 -14.673  -3.801  1.00  0.00    -0.394 OA
HETATM   16  C   UNL     1      40.670 -15.868  -3.071  1.00  0.00     0.201 C 
ENDBRANCH  14  15
ENDBRANCH   7  14
ENDBRANCH   1   7
BRANCH   3  17
HETATM   17  C   UNL     1      41.539 -15.584   2.058  1.00  0.00     0.036 A 
HETATM   18  C   UNL     1      40.963 -15.303   3.292  1.00  0.00     0.030 A 
HETATM   19  C   UNL     1      41.205 -16.128   4.399  1.00  0.00     0.010 A 
HETATM   20  C   UNL     1      42.017 -17.272   4.306  1.00  0.00    -0.054 A 
HETATM   21  C   UNL     1      42.619 -17.521   3.065  1.00  0.00     0.010 A 
HETATM   22  C   UNL     1      42.375 -16.699   1.957  1.00  0.00     0.030 A 
BRANCH  20  23
HETATM   23  C   UNL     1      42.267 -18.134   5.546  1.00  0.00     0.018 C 
HETATM   24  C   UNL     1      43.407 -19.166   5.365  1.00  0.00     0.009 C 
HETATM   25  C   UNL     1      44.789 -18.515   5.375  1.00  0.00     0.001 C 
HETATM   26  C   UNL     1      45.025 -17.734   6.663  1.00  0.00     0.000 C 
HETATM   27  C   UNL     1      43.912 -16.726   6.929  1.00  0.00     0.001 C 
HETATM   28  C   UNL     1      42.526 -17.375   6.869  1.00  0.00     0.009 C 
ENDBRANCH  20  23
ENDBRANCH   3  17
TORSDOF 6
ENDMDL
MODEL 7
REMARK VINA RESULT:      -6.7      6.121     10.617
REMARK  6 active torsions:
REMARK  status: ('A' for Active; 'I' for Inactive)
REMARK    1  A    between atoms: C_6  and  C_7 
REMARK    2  A    between atoms: C_7  and  N_8 
REMARK    3  A    between atoms: C_7  and  C_24 
REMARK       I    between atoms: N_8  and  C_9 
REMARK       I    between atoms: C_9  and  N_10 
REMARK    4  A    between atoms: N_10  and  C_11 
REMARK    5  A    between atoms: C_14  and  C_15 
REMARK    6  A    between atoms: C_24  and  O_25 
ROOT
HETATM    1  N   UNL     1      43.055 -16.561   4.191  1.00  0.00    -0.331 N 
HETATM    2  C   UNL     1      42.695 -15.770   3.144  1.00  0.00     0.321 C 
HETATM    3  N   UNL     1      41.613 -16.182   2.418  1.00  0.00    -0.309 N 
HETATM    4  O   UNL     1      43.366 -14.761   2.951  1.00  0.00    -0.247 OA
HETATM    5  H   UNL     1      43.868 -16.191   4.664  1.00  0.00     0.165 HD
HETATM    6  H   UNL     1      41.180 -17.040   2.707  1.00  0.00     0.170 HD
ENDROOT
BRANCH   1   7
HETATM    7  C   UNL     1      42.533 -17.839   4.664  1.00  0.00     0.161 C 
BRANCH   7   8
HETATM    8  C   UNL     1      43.588 -18.883   4.462  1.00  0.00     0.056 A 
HETATM    9  N   UNL     1      43.763 -19.569   3.282  1.00  0.00    -0.277 N 
HETATM   10  C   UNL     1      43.023 -19.416   2.050  1.00  0.00     0.179 C 
HETATM   11  N   UNL     1      44.747 -20.484   3.338  1.00  0.00    -0.185 NA
HETATM   12  C   UNL     1      45.230 -20.367   4.574  1.00  0.00     0.141 A 
HETATM   13  C   UNL     1      44.548 -19.394   5.319  1.00  0.00     0.050 A 
ENDBRANCH   7   8
BRANCH   7  14
HETATM   14  C   UNL     1      42.123 -17.749   6.151  1.00  0.00     0.198 C 
BRANCH  14  15
HETATM   15  O   UNL     1      42.734 -16.593   6.736  1.00  0.00    -0.394 OA
HETATM   16  C   UNL     1      43.380 -16.899   7.964  1.00  0.00     0.201 C 
ENDBRANCH  14  15
ENDBRANCH   7  14
ENDBRANCH   1   7
BRANCH   3  17
HETATM   17  C   UNL     1      41.032 -15.550   1.300  1.00  0.00     0.036 A 
HETATM   18  C   UNL     1      39.962 -14.664   1.367  1.00  0.00     0.030 A 
HETATM   19  C   UNL     1      39.450 -14.073   0.203  1.00  0.00     0.010 A 
HETATM   20  C   UNL     1      40.002 -14.331  -1.063  1.00  0.00    -0.054 A 
HETATM   21  C   UNL     1      41.055 -15.254  -1.117  1.00  0.00     0.010 A 
HETATM   22  C   UNL     1      41.570 -15.843   0.046  1.00  0.00     0.030 A 
BRANCH  20  23
HETATM   23  C   UNL     1      39.399 -13.676  -2.308  1.00  0.00     0.018 C 
HETATM   24  C   UNL     1      39.030 -12.186  -2.109  1.00  0.00     0.009 C 
HETATM   25  C   UNL     1      40.260 -11.281  -2.066  1.00  0.00     0.001 C 
HETATM   26  C   UNL     1      41.096 -11.421  -3.332  1.00  0.00     0.000 C 
HETATM   27  C   UNL     1      41.460 -12.875  -3.616  1.00  0.00     0.001 C 
HETATM   28  C   UNL     1      40.229 -13.784  -3.610  1.00  0.00     0.009 C 
ENDBRANCH  20  23
ENDBRANCH   3  17
TORSDOF 6
ENDMDL
MODEL 8
REMARK VINA RESULT:      -6.7      6.038      9.405
REMARK  6 active torsions:
REMARK  status: ('A' for Active; 'I' for Inactive)
REMARK    1  A    between atoms: C_6  and  C_7 
REMARK    2  A    between atoms: C_7  and  N_8 
REMARK    3  A    between atoms: C_7  and  C_24 
REMARK       I    between atoms: N_8  and  C_9 
REMARK       I    between atoms: C_9  and  N_10 
REMARK    4  A    between atoms: N_10  and  C_11 
REMARK    5  A    between atoms: C_14  and  C_15 
REMARK    6  A    between atoms: C_24  and  O_25 
ROOT
HETATM    1  N   UNL     1      44.244 -18.092   3.966  1.00  0.00    -0.331 N 
HETATM    2  C   UNL     1      43.457 -17.265   3.225  1.00  0.00     0.321 C 
HETATM    3  N   UNL     1      42.294 -16.851   3.811  1.00  0.00    -0.309 N 
HETATM    4  O   UNL     1      43.862 -16.963   2.107  1.00  0.00    -0.247 OA
HETATM    5  H   UNL     1      45.074 -18.358   3.455  1.00  0.00     0.165 HD
HETATM    6  H   UNL     1      42.108 -17.200   4.734  1.00  0.00     0.170 HD
ENDROOT
BRANCH   1   7
HETATM    7  C   UNL     1      44.049 -18.693   5.282  1.00  0.00     0.161 C 
BRANCH   7   8
HETATM    8  C   UNL     1      44.381 -20.150   5.187  1.00  0.00     0.056 A 
HETATM    9  N   UNL     1      44.121 -21.056   6.190  1.00  0.00    -0.277 N 
HETATM   10  C   UNL     1      43.482 -20.810   7.463  1.00  0.00     0.179 C 
HETATM   11  N   UNL     1      44.535 -22.303   5.904  1.00  0.00    -0.185 NA
HETATM   12  C   UNL     1      45.053 -22.200   4.681  1.00  0.00     0.141 A 
HETATM   13  C   UNL     1      44.991 -20.889   4.187  1.00  0.00     0.050 A 
ENDBRANCH   7   8
BRANCH   7  14
HETATM   14  C   UNL     1      44.929 -17.993   6.341  1.00  0.00     0.198 C 
BRANCH  14  15
HETATM   15  O   UNL     1      44.106 -17.138   7.143  1.00  0.00    -0.394 OA
HETATM   16  C   UNL     1      44.274 -15.769   6.801  1.00  0.00     0.201 C 
ENDBRANCH  14  15
ENDBRANCH   7  14
ENDBRANCH   1   7
BRANCH   3  17
HETATM   17  C   UNL     1      41.312 -15.995   3.271  1.00  0.00     0.036 A 
HETATM   18  C   UNL     1      40.379 -16.376   2.313  1.00  0.00     0.030 A 
HETATM   19  C   UNL     1      39.430 -15.460   1.836  1.00  0.00     0.010 A 
HETATM   20  C   UNL     1      39.369 -14.140   2.314  1.00  0.00    -0.054 A 
HETATM   21  C   UNL     1      40.339 -13.762   3.253  1.00  0.00     0.010 A 
HETATM   22  C   UNL     1      41.287 -14.677   3.732  1.00  0.00     0.030 A 
BRANCH  20  23
HETATM   23  C   UNL     1      38.326 -13.170   1.753  1.00  0.00     0.018 C 
HETATM   24  C   UNL     1      38.926 -11.832   1.257  1.00  0.00     0.009 C 
HETATM   25  C   UNL     1      39.685 -11.986  -0.060  1.00  0.00     0.001 C 
HETATM   26  C   UNL     1      38.793 -12.565  -1.151  1.00  0.00     0.000 C 
HETATM   27  C   UNL     1      38.131 -13.868  -0.712  1.00  0.00     0.001 C 
HETATM   28  C   UNL     1      37.412 -13.720   0.632  1.00  0.00     0.009 C 
ENDBRANCH  20  23
ENDBRANCH   3  17
TORSDOF 6
ENDMDL
MODEL 9
REMARK VINA RESULT:      -6.6      5.648     11.010
REMARK  6 active torsions:
REMARK  status: ('A' for Active; 'I' for Inactive)
REMARK    1  A    between atoms: C_6  and  C_7 
REMARK    2  A    between atoms: C_7  and  N_8 
REMARK    3  A    between atoms: C_7  and  C_24 
REMARK       I    between atoms: N_8  and  C_9 
REMARK       I    between atoms: C_9  and  N_10 
REMARK    4  A    between atoms: N_10  and  C_11 
REMARK    5  A    between atoms: C_14  and  C_15 
REMARK    6  A    between atoms: C_24  and  O_25 
ROOT
HETATM    1  N   UNL     1      41.727 -16.211   4.438  1.00  0.00    -0.331 N 
HETATM    2  C   UNL     1      41.198 -15.700   3.293  1.00  0.00     0.321 C 
HETATM    3  N   UNL     1      41.969 -15.804   2.171  1.00  0.00    -0.309 N 
HETATM    4  O   UNL     1      40.080 -15.199   3.371  1.00  0.00    -0.247 OA
HETATM    5  H   UNL     1      41.098 -16.082   5.219  1.00  0.00     0.165 HD
HETATM    6  H   UNL     1      42.868 -16.238   2.282  1.00  0.00     0.170 HD
ENDROOT
BRANCH   1   7
HETATM    7  C   UNL     1      43.027 -16.810   4.721  1.00  0.00     0.161 C 
BRANCH   7   8
HETATM    8  C   UNL     1      43.231 -16.813   6.205  1.00  0.00     0.056 A 
HETATM    9  N   UNL     1      43.773 -15.756   6.900  1.00  0.00    -0.277 N 
HETATM   10  C   UNL     1      44.209 -14.482   6.377  1.00  0.00     0.179 C 
HETATM   11  N   UNL     1      43.896 -15.992   8.218  1.00  0.00    -0.185 NA
HETATM   12  C   UNL     1      43.400 -17.219   8.377  1.00  0.00     0.141 A 
HETATM   13  C   UNL     1      42.978 -17.780   7.163  1.00  0.00     0.050 A 
ENDBRANCH   7   8
BRANCH   7  14
HETATM   14  C   UNL     1      43.108 -18.243   4.149  1.00  0.00     0.198 C 
BRANCH  14  15
HETATM   15  O   UNL     1      43.725 -18.198   2.858  1.00  0.00    -0.394 OA
HETATM   16  C   UNL     1      43.916 -19.498   2.316  1.00  0.00     0.201 C 
ENDBRANCH  14  15
ENDBRANCH   7  14
ENDBRANCH   1   7
BRANCH   3  17
HETATM   17  C   UNL     1      41.659 -15.368   0.866  1.00  0.00     0.036 A 
HETATM   18  C   UNL     1      41.666 -14.038   0.460  1.00  0.00     0.030 A 
HETATM   19  C   UNL     1      41.353 -13.693  -0.862  1.00  0.00     0.010 A 
HETATM   20  C   UNL     1      41.041 -14.665  -1.827  1.00  0.00    -0.054 A 
HETATM   21  C   UNL     1      41.003 -15.997  -1.393  1.00  0.00     0.010 A 
HETATM   22  C   UNL     1      41.318 -16.344  -0.073  1.00  0.00     0.030 A 
BRANCH  20  23
HETATM   23  C   UNL     1      40.689 -14.240  -3.255  1.00  0.00     0.018 C 
HETATM   24  C   UNL     1      39.586 -15.109  -3.908  1.00  0.00     0.009 C 
HETATM   25  C   UNL     1      38.199 -14.816  -3.338  1.00  0.00     0.001 C 
HETATM   26  C   UNL     1      37.833 -13.345  -3.497  1.00  0.00     0.000 C 
HETATM   27  C   UNL     1      38.903 -12.426  -2.914  1.00  0.00     0.001 C 
HETATM   28  C   UNL     1      40.297 -12.757  -3.452  1.00  0.00     0.009 C 
ENDBRANCH  20  23
ENDBRANCH   3  17
TORSDOF 6
ENDMDL
MODEL 10
REMARK VINA RESULT:      -6.6      3.000      9.202
REMARK  6 active torsions:
REMARK  status: ('A' for Active; 'I' for Inactive)
REMARK    1  A    between atoms: C_6  and  C_7 
REMARK    2  A    between atoms: C_7  and  N_8 
REMARK    3  A    between atoms: C_7  and  C_24 
REMARK       I    between atoms: N_8  and  C_9 
REMARK       I    between atoms: C_9  and  N_10 
REMARK    4  A    between atoms: N_10  and  C_11 
REMARK    5  A    between atoms: C_14  and  C_15 
REMARK    6  A    between atoms: C_24  and  O_25 
ROOT
HETATM    1  N   UNL     1      43.620 -11.991   8.389  1.00  0.00    -0.331 N 
HETATM    2  C   UNL     1      43.696 -12.914   7.392  1.00  0.00     0.321 C 
HETATM    3  N   UNL     1      42.549 -13.140   6.687  1.00  0.00    -0.309 N 
HETATM    4  O   UNL     1      44.785 -13.452   7.213  1.00  0.00    -0.247 OA
HETATM    5  H   UNL     1      44.507 -11.894   8.865  1.00  0.00     0.165 HD
HETATM    6  H   UNL     1      41.739 -12.618   6.970  1.00  0.00     0.170 HD
ENDROOT
BRANCH   1   7
HETATM    7  C   UNL     1      42.496 -11.219   8.911  1.00  0.00     0.161 C 
BRANCH   7   8
HETATM    8  C   UNL     1      42.823 -10.799  10.311  1.00  0.00     0.056 A 
HETATM    9  N   UNL     1      41.904 -10.788  11.335  1.00  0.00    -0.277 N 
HETATM   10  C   UNL     1      40.516 -11.185  11.285  1.00  0.00     0.179 C 
HETATM   11  N   UNL     1      42.408 -10.341  12.499  1.00  0.00    -0.185 NA
HETATM   12  C   UNL     1      43.685 -10.080  12.221  1.00  0.00     0.141 A 
HETATM   13  C   UNL     1      43.999 -10.339  10.879  1.00  0.00     0.050 A 
ENDBRANCH   7   8
BRANCH   7  14
HETATM   14  C   UNL     1      42.212  -9.991   8.017  1.00  0.00     0.198 C 
BRANCH  14  15
HETATM   15  O   UNL     1      40.811  -9.695   8.060  1.00  0.00    -0.394 OA
HETATM   16  C   UNL     1      40.025 -10.790   7.610  1.00  0.00     0.201 C 
ENDBRANCH  14  15
ENDBRANCH   7  14
ENDBRANCH   1   7
BRANCH   3  17
HETATM   17  C   UNL     1      42.358 -14.029   5.610  1.00  0.00     0.036 A 
HETATM   18  C   UNL     1      41.702 -15.252   5.708  1.00  0.00     0.030 A 
HETATM   19  C   UNL     1      41.549 -16.072   4.581  1.00  0.00     0.010 A 
HETATM   20  C   UNL     1      42.028 -15.691   3.316  1.00  0.00    -0.054 A 
HETATM   21  C   UNL     1      42.717 -14.473   3.243  1.00  0.00     0.010 A 
HETATM   22  C   UNL     1      42.869 -13.650   4.367  1.00  0.00     0.030 A 
BRANCH  20  23
HETATM   23  C   UNL     1      41.852 -16.627   2.118  1.00  0.00     0.018 C 
HETATM   24  C   UNL     1      42.999 -16.533   1.082  1.00  0.00     0.009 C 
HETATM   25  C   UNL     1      44.286 -17.191   1.576  1.00  0.00     0.001 C 
HETATM   26  C   UNL     1      44.058 -18.655   1.934  1.00  0.00     0.000 C 
HETATM   27  C   UNL     1      42.907 -18.828   2.921  1.00  0.00     0.001 C 
HETATM   28  C   UNL     1      41.634 -18.124   2.442  1.00  0.00     0.009 C 
ENDBRANCH  20  23
ENDBRANCH   3  17
TORSDOF 6
ENDMDL
