MODEL 1
REMARK VINA RESULT:      -7.9      0.000      0.000
REMARK  3 active torsions:
REMARK  status: ('A' for Active; 'I' for Inactive)
REMARK    1  A    between atoms: C_3  and  N_4 
REMARK       I    between atoms: N_4  and  C_5 
REMARK    2  A    between atoms: C_5  and  C_6 
REMARK    3  A    between atoms: C_8  and  N_9 
REMARK       I    between atoms: N_9  and  C_10 
ROOT
HETATM    1  N   UNL     1      43.594 -17.111   3.980  1.00  0.00    -0.321 N 
HETATM    2  C   UNL     1      42.324 -16.565   4.066  1.00  0.00     0.256 C 
HETATM    3  O   UNL     1      41.261 -17.120   3.815  1.00  0.00    -0.267 OA
HETATM    4  H   UNL     1      44.340 -16.563   4.386  1.00  0.00     0.169 HD
ENDROOT
BRANCH   2   5
HETATM    5  C   UNL     1      42.267 -15.159   4.564  1.00  0.00     0.034 A 
HETATM    6  C   UNL     1      42.895 -14.776   5.757  1.00  0.00     0.046 A 
HETATM    7  C   UNL     1      42.821 -13.456   6.208  1.00  0.00     0.035 A 
HETATM    8  C   UNL     1      42.071 -12.529   5.473  1.00  0.00     0.029 A 
HETATM    9  C   UNL     1      41.420 -12.911   4.298  1.00  0.00     0.003 A 
HETATM   10  C   UNL     1      41.516 -14.224   3.842  1.00  0.00     0.017 A 
BRANCH   7  11
HETATM   11  N   UNL     1      43.448 -13.000   7.386  1.00  0.00    -0.327 N 
HETATM   12  C   UNL     1      44.787 -13.122   7.717  1.00  0.00     0.218 C 
HETATM   13  C   UNL     1      45.111 -12.563   9.080  1.00  0.00     0.117 C 
HETATM   14  O   UNL     1      45.673 -13.591   7.009  1.00  0.00    -0.274 OA
HETATM   15  H   UNL     1      42.862 -12.483   8.030  1.00  0.00     0.169 HD
ENDBRANCH   7  11
ENDBRANCH   2   5
BRANCH   1  16
HETATM   16  C   UNL     1      43.918 -18.466   3.708  1.00  0.00     0.065 A 
HETATM   17  C   UNL     1      43.851 -19.068   2.441  1.00  0.00    -0.031 A 
HETATM   18  C   UNL     1      43.587 -18.338   1.153  1.00  0.00     0.050 C 
HETATM   19  C   UNL     1      44.101 -20.447   2.339  1.00  0.00     0.035 A 
HETATM   20  C   UNL     1      44.481 -21.171   3.461  1.00  0.00     0.031 A 
HETATM   21  N   UNL     1      44.644 -20.594   4.666  1.00  0.00    -0.256 NA
HETATM   22  C   UNL     1      44.733 -22.645   3.362  1.00  0.00     0.070 C 
HETATM   23  C   UNL     1      44.369 -19.267   4.780  1.00  0.00     0.058 A 
HETATM   24  C   UNL     1      44.535 -18.719   6.172  1.00  0.00     0.073 C 
ENDBRANCH   1  16
TORSDOF 3
ENDMDL
MODEL 2
REMARK VINA RESULT:      -7.8      2.149      2.494
REMARK  3 active torsions:
REMARK  status: ('A' for Active; 'I' for Inactive)
REMARK    1  A    between atoms: C_3  and  N_4 
REMARK       I    between atoms: N_4  and  C_5 
REMARK    2  A    between atoms: C_5  and  C_6 
REMARK    3  A    between atoms: C_8  and  N_9 
REMARK       I    between atoms: N_9  and  C_10 
ROOT
HETATM    1  N   UNL     1      43.585 -17.119   4.045  1.00  0.00    -0.321 N 
HETATM    2  C   UNL     1      42.300 -16.636   4.223  1.00  0.00     0.256 C 
HETATM    3  O   UNL     1      41.271 -17.291   4.330  1.00  0.00    -0.267 OA
HETATM    4  H   UNL     1      44.331 -16.445   4.147  1.00  0.00     0.169 HD
ENDROOT
BRANCH   2   5
HETATM    5  C   UNL     1      42.188 -15.153   4.340  1.00  0.00     0.034 A 
HETATM    6  C   UNL     1      41.610 -14.544   5.463  1.00  0.00     0.046 A 
HETATM    7  C   UNL     1      41.508 -13.155   5.546  1.00  0.00     0.035 A 
HETATM    8  C   UNL     1      41.951 -12.376   4.469  1.00  0.00     0.029 A 
HETATM    9  C   UNL     1      42.502 -12.976   3.335  1.00  0.00     0.003 A 
HETATM   10  C   UNL     1      42.621 -14.363   3.269  1.00  0.00     0.017 A 
BRANCH   7  11
HETATM   11  N   UNL     1      40.958 -12.480   6.656  1.00  0.00    -0.327 N 
HETATM   12  C   UNL     1      39.635 -12.113   6.836  1.00  0.00     0.218 C 
HETATM   13  C   UNL     1      39.402 -11.361   8.123  1.00  0.00     0.117 C 
HETATM   14  O   UNL     1      38.699 -12.371   6.086  1.00  0.00    -0.274 OA
HETATM   15  H   UNL     1      41.594 -12.295   7.423  1.00  0.00     0.169 HD
ENDBRANCH   7  11
ENDBRANCH   2   5
BRANCH   1  16
HETATM   16  C   UNL     1      43.992 -18.479   4.078  1.00  0.00     0.065 A 
HETATM   17  C   UNL     1      43.933 -19.361   2.988  1.00  0.00    -0.031 A 
HETATM   18  C   UNL     1      43.587 -18.967   1.579  1.00  0.00     0.050 C 
HETATM   19  C   UNL     1      44.272 -20.709   3.195  1.00  0.00     0.035 A 
HETATM   20  C   UNL     1      44.729 -21.130   4.437  1.00  0.00     0.031 A 
HETATM   21  N   UNL     1      44.884 -20.280   5.470  1.00  0.00    -0.256 NA
HETATM   22  C   UNL     1      45.077 -22.569   4.669  1.00  0.00     0.070 C 
HETATM   23  C   UNL     1      44.524 -18.982   5.287  1.00  0.00     0.058 A 
HETATM   24  C   UNL     1      44.688 -18.117   6.508  1.00  0.00     0.073 C 
ENDBRANCH   1  16
TORSDOF 3
ENDMDL
MODEL 3
REMARK VINA RESULT:      -7.8      2.763      5.364
REMARK  3 active torsions:
REMARK  status: ('A' for Active; 'I' for Inactive)
REMARK    1  A    between atoms: C_3  and  N_4 
REMARK       I    between atoms: N_4  and  C_5 
REMARK    2  A    between atoms: C_5  and  C_6 
REMARK    3  A    between atoms: C_8  and  N_9 
REMARK       I    between atoms: N_9  and  C_10 
ROOT
HETATM    1  N   UNL     1      43.889 -14.630   7.290  1.00  0.00    -0.321 N 
HETATM    2  C   UNL     1      44.943 -13.732   7.261  1.00  0.00     0.256 C 
HETATM    3  O   UNL     1      45.770 -13.591   6.369  1.00  0.00    -0.267 OA
HETATM    4  H   UNL     1      43.209 -14.493   8.026  1.00  0.00     0.169 HD
ENDROOT
BRANCH   2   5
HETATM    5  C   UNL     1      45.034 -12.818   8.437  1.00  0.00     0.034 A 
HETATM    6  C   UNL     1      44.049 -12.803   9.435  1.00  0.00     0.046 A 
HETATM    7  C   UNL     1      44.150 -11.932  10.521  1.00  0.00     0.035 A 
HETATM    8  C   UNL     1      45.229 -11.039  10.578  1.00  0.00     0.029 A 
HETATM    9  C   UNL     1      46.198 -11.030   9.572  1.00  0.00     0.003 A 
HETATM   10  C   UNL     1      46.103 -11.917   8.502  1.00  0.00     0.017 A 
BRANCH   7  11
HETATM   11  N   UNL     1      43.207 -11.882  11.569  1.00  0.00    -0.327 N 
HETATM   12  C   UNL     1      42.045 -11.131  11.607  1.00  0.00     0.218 C 
HETATM   13  C   UNL     1      41.289 -11.281  12.905  1.00  0.00     0.117 C 
HETATM   14  O   UNL     1      41.602 -10.426  10.706  1.00  0.00    -0.274 OA
HETATM   15  H   UNL     1      43.377 -12.506  12.349  1.00  0.00     0.169 HD
ENDBRANCH   7  11
ENDBRANCH   2   5
BRANCH   1  16
HETATM   16  C   UNL     1      43.472 -15.483   6.235  1.00  0.00     0.065 A 
HETATM   17  C   UNL     1      44.003 -16.757   5.976  1.00  0.00    -0.031 A 
HETATM   18  C   UNL     1      44.974 -17.483   6.865  1.00  0.00     0.050 C 
HETATM   19  C   UNL     1      43.566 -17.446   4.831  1.00  0.00     0.035 A 
HETATM   20  C   UNL     1      42.573 -16.903   4.027  1.00  0.00     0.031 A 
HETATM   21  N   UNL     1      41.983 -15.726   4.312  1.00  0.00    -0.256 NA
HETATM   22  C   UNL     1      42.114 -17.625   2.797  1.00  0.00     0.070 C 
HETATM   23  C   UNL     1      42.426 -15.037   5.397  1.00  0.00     0.058 A 
HETATM   24  C   UNL     1      41.740 -13.714   5.610  1.00  0.00     0.073 C 
ENDBRANCH   1  16
TORSDOF 3
ENDMDL
MODEL 4
REMARK VINA RESULT:      -7.6      3.935      6.433
REMARK  3 active torsions:
REMARK  status: ('A' for Active; 'I' for Inactive)
REMARK    1  A    between atoms: C_3  and  N_4 
REMARK       I    between atoms: N_4  and  C_5 
REMARK    2  A    between atoms: C_5  and  C_6 
REMARK    3  A    between atoms: C_8  and  N_9 
REMARK       I    between atoms: N_9  and  C_10 
ROOT
HETATM    1  N   UNL     1      41.916 -16.446   2.479  1.00  0.00    -0.321 N 
HETATM    2  C   UNL     1      42.426 -15.181   2.238  1.00  0.00     0.256 C 
HETATM    3  O   UNL     1      43.360 -14.637   2.815  1.00  0.00    -0.267 OA
HETATM    4  H   UNL     1      41.257 -16.796   1.798  1.00  0.00     0.169 HD
ENDROOT
BRANCH   2   5
HETATM    5  C   UNL     1      41.780 -14.437   1.118  1.00  0.00     0.034 A 
HETATM    6  C   UNL     1      41.080 -15.102   0.100  1.00  0.00     0.046 A 
HETATM    7  C   UNL     1      40.491 -14.384  -0.943  1.00  0.00     0.035 A 
HETATM    8  C   UNL     1      40.647 -12.993  -0.984  1.00  0.00     0.029 A 
HETATM    9  C   UNL     1      41.367 -12.328   0.011  1.00  0.00     0.003 A 
HETATM   10  C   UNL     1      41.934 -13.047   1.062  1.00  0.00     0.017 A 
BRANCH   7  11
HETATM   11  N   UNL     1      39.755 -14.989  -1.983  1.00  0.00    -0.327 N 
HETATM   12  C   UNL     1      40.244 -15.426  -3.203  1.00  0.00     0.218 C 
HETATM   13  C   UNL     1      39.168 -15.984  -4.102  1.00  0.00     0.117 C 
HETATM   14  O   UNL     1      41.417 -15.421  -3.562  1.00  0.00    -0.274 OA
HETATM   15  H   UNL     1      38.777 -15.168  -1.790  1.00  0.00     0.169 HD
ENDBRANCH   7  11
ENDBRANCH   2   5
BRANCH   1  16
HETATM   16  C   UNL     1      42.453 -17.424   3.359  1.00  0.00     0.065 A 
HETATM   17  C   UNL     1      42.147 -17.528   4.725  1.00  0.00    -0.031 A 
HETATM   18  C   UNL     1      41.086 -16.733   5.433  1.00  0.00     0.050 C 
HETATM   19  C   UNL     1      42.835 -18.481   5.496  1.00  0.00     0.035 A 
HETATM   20  C   UNL     1      43.737 -19.347   4.892  1.00  0.00     0.031 A 
HETATM   21  N   UNL     1      43.973 -19.325   3.566  1.00  0.00    -0.256 NA
HETATM   22  C   UNL     1      44.485 -20.354   5.710  1.00  0.00     0.070 C 
HETATM   23  C   UNL     1      43.339 -18.383   2.819  1.00  0.00     0.058 A 
HETATM   24  C   UNL     1      43.699 -18.406   1.358  1.00  0.00     0.073 C 
ENDBRANCH   1  16
TORSDOF 3
ENDMDL
MODEL 5
REMARK VINA RESULT:      -7.4      2.856      6.297
REMARK  3 active torsions:
REMARK  status: ('A' for Active; 'I' for Inactive)
REMARK    1  A    between atoms: C_3  and  N_4 
REMARK       I    between atoms: N_4  and  C_5 
REMARK    2  A    between atoms: C_5  and  C_6 
REMARK    3  A    between atoms: C_8  and  N_9 
REMARK       I    between atoms: N_9  and  C_10 
ROOT
HETATM    1  N   UNL     1      42.626 -16.137   3.458  1.00  0.00    -0.321 N 
HETATM    2  C   UNL     1      41.894 -16.333   4.618  1.00  0.00     0.256 C 
HETATM    3  O   UNL     1      40.769 -15.917   4.862  1.00  0.00    -0.267 OA
HETATM    4  H   UNL     1      43.465 -16.693   3.363  1.00  0.00     0.169 HD
ENDROOT
BRANCH   2   5
HETATM    5  C   UNL     1      42.553 -17.186   5.649  1.00  0.00     0.034 A 
HETATM    6  C   UNL     1      42.958 -18.499   5.370  1.00  0.00     0.046 A 
HETATM    7  C   UNL     1      43.564 -19.281   6.354  1.00  0.00     0.035 A 
HETATM    8  C   UNL     1      43.723 -18.751   7.641  1.00  0.00     0.029 A 
HETATM    9  C   UNL     1      43.298 -17.453   7.934  1.00  0.00     0.003 A 
HETATM   10  C   UNL     1      42.713 -16.670   6.940  1.00  0.00     0.017 A 
BRANCH   7  11
HETATM   11  N   UNL     1      44.014 -20.600   6.132  1.00  0.00    -0.327 N 
HETATM   12  C   UNL     1      44.843 -21.036   5.112  1.00  0.00     0.218 C 
HETATM   13  C   UNL     1      45.086 -22.524   5.146  1.00  0.00     0.117 C 
HETATM   14  O   UNL     1      45.382 -20.335   4.261  1.00  0.00    -0.274 OA
HETATM   15  H   UNL     1      43.742 -21.285   6.827  1.00  0.00     0.169 HD
ENDBRANCH   7  11
ENDBRANCH   2   5
BRANCH   1  16
HETATM   16  C   UNL     1      42.171 -15.521   2.262  1.00  0.00     0.065 A 
HETATM   17  C   UNL     1      41.561 -16.197   1.193  1.00  0.00    -0.031 A 
HETATM   18  C   UNL     1      41.145 -17.641   1.212  1.00  0.00     0.050 C 
HETATM   19  C   UNL     1      41.257 -15.473   0.027  1.00  0.00     0.035 A 
HETATM   20  C   UNL     1      41.488 -14.105  -0.024  1.00  0.00     0.031 A 
HETATM   21  N   UNL     1      41.984 -13.422   1.025  1.00  0.00    -0.256 NA
HETATM   22  C   UNL     1      41.182 -13.331  -1.270  1.00  0.00     0.070 C 
HETATM   23  C   UNL     1      42.314 -14.120   2.143  1.00  0.00     0.058 A 
HETATM   24  C   UNL     1      42.903 -13.281   3.245  1.00  0.00     0.073 C 
ENDBRANCH   1  16
TORSDOF 3
ENDMDL
MODEL 6
REMARK VINA RESULT:      -7.3      3.234      3.843
REMARK  3 active torsions:
REMARK  status: ('A' for Active; 'I' for Inactive)
REMARK    1  A    between atoms: C_3  and  N_4 
REMARK       I    between atoms: N_4  and  C_5 
REMARK    2  A    between atoms: C_5  and  C_6 
REMARK    3  A    between atoms: C_8  and  N_9 
REMARK       I    between atoms: N_9  and  C_10 
ROOT
HETATM    1  N   UNL     1      41.884 -16.195   3.132  1.00  0.00    -0.321 N 
HETATM    2  C   UNL     1      40.714 -16.240   2.392  1.00  0.00     0.256 C 
HETATM    3  O   UNL     1      40.219 -17.220   1.849  1.00  0.00    -0.267 OA
HETATM    4  H   UNL     1      42.052 -15.341   3.646  1.00  0.00     0.169 HD
ENDROOT
BRANCH   2   5
HETATM    5  C   UNL     1      39.970 -14.951   2.300  1.00  0.00     0.034 A 
HETATM    6  C   UNL     1      40.229 -13.887   3.176  1.00  0.00     0.046 A 
HETATM    7  C   UNL     1      39.513 -12.693   3.076  1.00  0.00     0.035 A 
HETATM    8  C   UNL     1      38.499 -12.587   2.115  1.00  0.00     0.029 A 
HETATM    9  C   UNL     1      38.216 -13.653   1.258  1.00  0.00     0.003 A 
HETATM   10  C   UNL     1      38.950 -14.834   1.348  1.00  0.00     0.017 A 
BRANCH   7  11
HETATM   11  N   UNL     1      39.739 -11.578   3.910  1.00  0.00    -0.327 N 
HETATM   12  C   UNL     1      39.287 -11.403   5.207  1.00  0.00     0.218 C 
HETATM   13  C   UNL     1      39.675 -10.068   5.791  1.00  0.00     0.117 C 
HETATM   14  O   UNL     1      38.663 -12.220   5.877  1.00  0.00    -0.274 OA
HETATM   15  H   UNL     1      40.343 -10.857   3.533  1.00  0.00     0.169 HD
ENDBRANCH   7  11
ENDBRANCH   2   5
BRANCH   1  16
HETATM   16  C   UNL     1      42.685 -17.302   3.521  1.00  0.00     0.065 A 
HETATM   17  C   UNL     1      43.619 -17.946   2.694  1.00  0.00    -0.031 A 
HETATM   18  C   UNL     1      44.037 -17.469   1.331  1.00  0.00     0.050 C 
HETATM   19  C   UNL     1      44.265 -19.096   3.181  1.00  0.00     0.035 A 
HETATM   20  C   UNL     1      44.034 -19.528   4.480  1.00  0.00     0.031 A 
HETATM   21  N   UNL     1      43.214 -18.869   5.320  1.00  0.00    -0.256 NA
HETATM   22  C   UNL     1      44.707 -20.762   4.998  1.00  0.00     0.070 C 
HETATM   23  C   UNL     1      42.558 -17.777   4.846  1.00  0.00     0.058 A 
HETATM   24  C   UNL     1      41.630 -17.132   5.840  1.00  0.00     0.073 C 
ENDBRANCH   1  16
TORSDOF 3
ENDMDL
MODEL 7
REMARK VINA RESULT:      -7.2      4.190      6.142
REMARK  3 active torsions:
REMARK  status: ('A' for Active; 'I' for Inactive)
REMARK    1  A    between atoms: C_3  and  N_4 
REMARK       I    between atoms: N_4  and  C_5 
REMARK    2  A    between atoms: C_5  and  C_6 
REMARK    3  A    between atoms: C_8  and  N_9 
REMARK       I    between atoms: N_9  and  C_10 
ROOT
HETATM    1  N   UNL     1      41.222 -16.744   2.416  1.00  0.00    -0.321 N 
HETATM    2  C   UNL     1      41.346 -15.389   2.161  1.00  0.00     0.256 C 
HETATM    3  O   UNL     1      42.273 -14.657   2.484  1.00  0.00    -0.267 OA
HETATM    4  H   UNL     1      40.474 -17.221   1.931  1.00  0.00     0.169 HD
ENDROOT
BRANCH   2   5
HETATM    5  C   UNL     1      40.237 -14.787   1.366  1.00  0.00     0.034 A 
HETATM    6  C   UNL     1      40.488 -13.989   0.240  1.00  0.00     0.046 A 
HETATM    7  C   UNL     1      39.434 -13.429  -0.484  1.00  0.00     0.035 A 
HETATM    8  C   UNL     1      38.121 -13.637  -0.043  1.00  0.00     0.029 A 
HETATM    9  C   UNL     1      37.865 -14.407   1.094  1.00  0.00     0.003 A 
HETATM   10  C   UNL     1      38.921 -14.982   1.799  1.00  0.00     0.017 A 
BRANCH   7  11
HETATM   11  N   UNL     1      39.617 -12.637  -1.637  1.00  0.00    -0.327 N 
HETATM   12  C   UNL     1      39.912 -13.083  -2.914  1.00  0.00     0.218 C 
HETATM   13  C   UNL     1      40.086 -11.958  -3.905  1.00  0.00     0.117 C 
HETATM   14  O   UNL     1      40.001 -14.252  -3.275  1.00  0.00    -0.274 OA
HETATM   15  H   UNL     1      39.461 -11.643  -1.522  1.00  0.00     0.169 HD
ENDBRANCH   7  11
ENDBRANCH   2   5
BRANCH   1  16
HETATM   16  C   UNL     1      42.204 -17.593   2.993  1.00  0.00     0.065 A 
HETATM   17  C   UNL     1      43.292 -18.146   2.300  1.00  0.00    -0.031 A 
HETATM   18  C   UNL     1      43.683 -17.800   0.890  1.00  0.00     0.050 C 
HETATM   19  C   UNL     1      44.126 -19.055   2.975  1.00  0.00     0.035 A 
HETATM   20  C   UNL     1      43.914 -19.329   4.319  1.00  0.00     0.031 A 
HETATM   21  N   UNL     1      42.933 -18.735   5.026  1.00  0.00    -0.256 NA
HETATM   22  C   UNL     1      44.789 -20.308   5.040  1.00  0.00     0.070 C 
HETATM   23  C   UNL     1      42.100 -17.884   4.371  1.00  0.00     0.058 A 
HETATM   24  C   UNL     1      41.008 -17.304   5.230  1.00  0.00     0.073 C 
ENDBRANCH   1  16
TORSDOF 3
ENDMDL
MODEL 8
REMARK VINA RESULT:      -7.2      4.049      6.423
REMARK  3 active torsions:
REMARK  status: ('A' for Active; 'I' for Inactive)
REMARK    1  A    between atoms: C_3  and  N_4 
REMARK       I    between atoms: N_4  and  C_5 
REMARK    2  A    between atoms: C_5  and  C_6 
REMARK    3  A    between atoms: C_8  and  N_9 
REMARK       I    between atoms: N_9  and  C_10 
ROOT
HETATM    1  N   UNL     1      40.571 -16.217   3.272  1.00  0.00    -0.321 N 
HETATM    2  C   UNL     1      40.667 -14.835   3.295  1.00  0.00     0.256 C 
HETATM    3  O   UNL     1      41.488 -14.162   3.906  1.00  0.00    -0.267 OA
HETATM    4  H   UNL     1      39.941 -16.606   2.583  1.00  0.00     0.169 HD
ENDROOT
BRANCH   2   5
HETATM    5  C   UNL     1      39.681 -14.113   2.440  1.00  0.00     0.034 A 
HETATM    6  C   UNL     1      39.267 -14.625   1.202  1.00  0.00     0.046 A 
HETATM    7  C   UNL     1      38.350 -13.927   0.415  1.00  0.00     0.035 A 
HETATM    8  C   UNL     1      37.882 -12.683   0.858  1.00  0.00     0.029 A 
HETATM    9  C   UNL     1      38.312 -12.155   2.077  1.00  0.00     0.003 A 
HETATM   10  C   UNL     1      39.211 -12.867   2.869  1.00  0.00     0.017 A 
BRANCH   7  11
HETATM   11  N   UNL     1      37.875 -14.397  -0.828  1.00  0.00    -0.327 N 
HETATM   12  C   UNL     1      38.370 -14.079  -2.082  1.00  0.00     0.218 C 
HETATM   13  C   UNL     1      37.594 -14.725  -3.203  1.00  0.00     0.117 C 
HETATM   14  O   UNL     1      39.350 -13.382  -2.323  1.00  0.00    -0.274 OA
HETATM   15  H   UNL     1      37.129 -15.080  -0.789  1.00  0.00     0.169 HD
ENDBRANCH   7  11
ENDBRANCH   2   5
BRANCH   1  16
HETATM   16  C   UNL     1      41.482 -17.141   3.847  1.00  0.00     0.065 A 
HETATM   17  C   UNL     1      41.605 -17.395   5.223  1.00  0.00    -0.031 A 
HETATM   18  C   UNL     1      40.687 -16.857   6.284  1.00  0.00     0.050 C 
HETATM   19  C   UNL     1      42.624 -18.261   5.656  1.00  0.00     0.035 A 
HETATM   20  C   UNL     1      43.433 -18.905   4.730  1.00  0.00     0.031 A 
HETATM   21  N   UNL     1      43.269 -18.747   3.403  1.00  0.00    -0.256 NA
HETATM   22  C   UNL     1      44.532 -19.815   5.187  1.00  0.00     0.070 C 
HETATM   23  C   UNL     1      42.309 -17.884   2.976  1.00  0.00     0.058 A 
HETATM   24  C   UNL     1      42.230 -17.739   1.480  1.00  0.00     0.073 C 
ENDBRANCH   1  16
TORSDOF 3
ENDMDL
MODEL 9
REMARK VINA RESULT:      -7.1      2.548      6.982
REMARK  3 active torsions:
REMARK  status: ('A' for Active; 'I' for Inactive)
REMARK    1  A    between atoms: C_3  and  N_4 
REMARK       I    between atoms: N_4  and  C_5 
REMARK    2  A    between atoms: C_5  and  C_6 
REMARK    3  A    between atoms: C_8  and  N_9 
REMARK       I    between atoms: N_9  and  C_10 
ROOT
HETATM    1  N   UNL     1      41.905 -15.577   3.716  1.00  0.00    -0.321 N 
HETATM    2  C   UNL     1      41.834 -16.102   4.996  1.00  0.00     0.256 C 
HETATM    3  O   UNL     1      40.929 -15.954   5.806  1.00  0.00    -0.267 OA
HETATM    4  H   UNL     1      42.644 -15.938   3.128  1.00  0.00     0.169 HD
ENDROOT
BRANCH   2   5
HETATM    5  C   UNL     1      42.977 -16.976   5.389  1.00  0.00     0.034 A 
HETATM    6  C   UNL     1      43.087 -18.296   4.929  1.00  0.00     0.046 A 
HETATM    7  C   UNL     1      44.161 -19.097   5.319  1.00  0.00     0.035 A 
HETATM    8  C   UNL     1      45.106 -18.580   6.214  1.00  0.00     0.029 A 
HETATM    9  C   UNL     1      44.988 -17.275   6.698  1.00  0.00     0.003 A 
HETATM   10  C   UNL     1      43.925 -16.472   6.288  1.00  0.00     0.017 A 
BRANCH   7  11
HETATM   11  N   UNL     1      44.343 -20.424   4.875  1.00  0.00    -0.327 N 
HETATM   12  C   UNL     1      44.583 -20.841   3.576  1.00  0.00     0.218 C 
HETATM   13  C   UNL     1      44.681 -22.341   3.448  1.00  0.00     0.117 C 
HETATM   14  O   UNL     1      44.745 -20.120   2.597  1.00  0.00    -0.274 OA
HETATM   15  H   UNL     1      44.350 -21.136   5.594  1.00  0.00     0.169 HD
ENDBRANCH   7  11
ENDBRANCH   2   5
BRANCH   1  16
HETATM   16  C   UNL     1      40.884 -14.865   3.033  1.00  0.00     0.065 A 
HETATM   17  C   UNL     1      40.628 -13.492   3.178  1.00  0.00    -0.031 A 
HETATM   18  C   UNL     1      41.492 -12.531   3.946  1.00  0.00     0.050 C 
HETATM   19  C   UNL     1      39.516 -12.943   2.516  1.00  0.00     0.035 A 
HETATM   20  C   UNL     1      38.742 -13.735   1.680  1.00  0.00     0.031 A 
HETATM   21  N   UNL     1      39.027 -15.032   1.453  1.00  0.00    -0.256 NA
HETATM   22  C   UNL     1      37.545 -13.160   0.986  1.00  0.00     0.070 C 
HETATM   23  C   UNL     1      40.079 -15.579   2.117  1.00  0.00     0.058 A 
HETATM   24  C   UNL     1      40.294 -17.042   1.836  1.00  0.00     0.073 C 
ENDBRANCH   1  16
TORSDOF 3
ENDMDL
MODEL 10
REMARK VINA RESULT:      -7.1      2.192      2.453
REMARK  3 active torsions:
REMARK  status: ('A' for Active; 'I' for Inactive)
REMARK    1  A    between atoms: C_3  and  N_4 
REMARK       I    between atoms: N_4  and  C_5 
REMARK    2  A    between atoms: C_5  and  C_6 
REMARK    3  A    between atoms: C_8  and  N_9 
REMARK       I    between atoms: N_9  and  C_10 
ROOT
HETATM    1  N   UNL     1      42.128 -16.322   4.103  1.00  0.00    -0.321 N 
HETATM    2  C   UNL     1      42.502 -15.017   3.828  1.00  0.00     0.256 C 
HETATM    3  O   UNL     1      43.459 -14.648   3.159  1.00  0.00    -0.267 OA
HETATM    4  H   UNL     1      41.219 -16.443   4.529  1.00  0.00     0.169 HD
ENDROOT
BRANCH   2   5
HETATM    5  C   UNL     1      41.601 -13.966   4.382  1.00  0.00     0.034 A 
HETATM    6  C   UNL     1      41.860 -13.348   5.613  1.00  0.00     0.046 A 
HETATM    7  C   UNL     1      40.996 -12.373   6.115  1.00  0.00     0.035 A 
HETATM    8  C   UNL     1      39.841 -12.051   5.392  1.00  0.00     0.029 A 
HETATM    9  C   UNL     1      39.562 -12.683   4.178  1.00  0.00     0.003 A 
HETATM   10  C   UNL     1      40.439 -13.640   3.672  1.00  0.00     0.017 A 
BRANCH   7  11
HETATM   11  N   UNL     1      41.211 -11.698   7.335  1.00  0.00    -0.327 N 
HETATM   12  C   UNL     1      41.678 -10.404   7.499  1.00  0.00     0.218 C 
HETATM   13  C   UNL     1      41.834 -10.014   8.948  1.00  0.00     0.117 C 
HETATM   14  O   UNL     1      41.924  -9.600   6.607  1.00  0.00    -0.274 OA
HETATM   15  H   UNL     1      40.942 -12.198   8.173  1.00  0.00     0.169 HD
ENDBRANCH   7  11
ENDBRANCH   2   5
BRANCH   1  16
HETATM   16  C   UNL     1      42.701 -17.502   3.559  1.00  0.00     0.065 A 
HETATM   17  C   UNL     1      42.392 -18.036   2.297  1.00  0.00    -0.031 A 
HETATM   18  C   UNL     1      41.538 -17.360   1.261  1.00  0.00     0.050 C 
HETATM   19  C   UNL     1      42.960 -19.269   1.934  1.00  0.00     0.035 A 
HETATM   20  C   UNL     1      43.865 -19.897   2.779  1.00  0.00     0.031 A 
HETATM   21  N   UNL     1      44.246 -19.354   3.951  1.00  0.00    -0.256 NA
HETATM   22  C   UNL     1      44.461 -21.219   2.404  1.00  0.00     0.070 C 
HETATM   23  C   UNL     1      43.675 -18.179   4.326  1.00  0.00     0.058 A 
HETATM   24  C   UNL     1      44.128 -17.673   5.669  1.00  0.00     0.073 C 
ENDBRANCH   1  16
TORSDOF 3
ENDMDL
