MODEL 1
REMARK VINA RESULT:      -7.5      0.000      0.000
REMARK  5 active torsions:
REMARK  status: ('A' for Active; 'I' for Inactive)
REMARK    1  A    between atoms: C_2  and  O_3 
REMARK    2  A    between atoms: O_3  and  C_4 
REMARK    3  A    between atoms: C_6  and  C_7 
REMARK    4  A    between atoms: C_7  and  N_8 
REMARK       I    between atoms: N_8  and  C_9 
REMARK       I    between atoms: C_9  and  N_10 
REMARK    5  A    between atoms: N_10  and  C_11 
ROOT
HETATM    1  N   UNL     1      43.220 -15.926   2.440  1.00  0.00    -0.335 N 
HETATM    2  C   UNL     1      43.711 -17.167   2.172  1.00  0.00     0.321 C 
HETATM    3  N   UNL     1      43.448 -18.135   3.098  1.00  0.00    -0.307 N 
HETATM    4  O   UNL     1      44.380 -17.305   1.152  1.00  0.00    -0.247 OA
HETATM    5  H   UNL     1      43.454 -15.296   1.681  1.00  0.00     0.165 HD
HETATM    6  H   UNL     1      43.155 -17.805   4.000  1.00  0.00     0.170 HD
ENDROOT
BRANCH   1   7
HETATM    7  C   UNL     1      42.105 -15.519   3.289  1.00  0.00     0.115 C 
HETATM    8  C   UNL     1      40.805 -16.125   2.760  1.00  0.00     0.037 C 
BRANCH   7   9
HETATM    9  C   UNL     1      42.324 -15.919   4.738  1.00  0.00    -0.033 A 
HETATM   10  C   UNL     1      43.404 -15.421   5.488  1.00  0.00     0.046 A 
HETATM   11  C   UNL     1      43.622 -15.824   6.810  1.00  0.00     0.069 A 
HETATM   12  C   UNL     1      42.761 -16.749   7.394  1.00  0.00     0.037 A 
HETATM   13  C   UNL     1      41.687 -17.260   6.662  1.00  0.00     0.003 A 
HETATM   14  C   UNL     1      41.469 -16.849   5.345  1.00  0.00     0.009 A 
BRANCH  11  15
HETATM   15  O   UNL     1      44.710 -15.246   7.406  1.00  0.00    -0.352 OA
BRANCH  15  16
HETATM   16  C   UNL     1      45.034 -13.913   7.016  1.00  0.00     0.171 C 
HETATM   17  C   UNL     1      44.833 -13.012   8.221  1.00  0.00     0.034 C 
ENDBRANCH  15  16
ENDBRANCH  11  15
ENDBRANCH   7   9
ENDBRANCH   1   7
BRANCH   3  18
HETATM   18  C   UNL     1      43.794 -19.505   3.009  1.00  0.00     0.059 A 
HETATM   19  C   UNL     1      44.477 -20.118   4.077  1.00  0.00    -0.032 A 
HETATM   20  C   UNL     1      44.875 -19.371   5.319  1.00  0.00     0.050 C 
HETATM   21  C   UNL     1      44.810 -21.477   3.975  1.00  0.00     0.028 A 
HETATM   22  C   UNL     1      44.452 -22.177   2.836  1.00  0.00     0.117 A 
HETATM   23  N   UNL     1      43.791 -21.626   1.802  1.00  0.00    -0.271 NA
HETATM   24  C   UNL     1      43.479 -20.309   1.911  1.00  0.00     0.146 A 
ENDBRANCH   3  18
TORSDOF 5
ENDMDL
MODEL 2
REMARK VINA RESULT:      -7.5      2.579      5.905
REMARK  5 active torsions:
REMARK  status: ('A' for Active; 'I' for Inactive)
REMARK    1  A    between atoms: C_2  and  O_3 
REMARK    2  A    between atoms: O_3  and  C_4 
REMARK    3  A    between atoms: C_6  and  C_7 
REMARK    4  A    between atoms: C_7  and  N_8 
REMARK       I    between atoms: N_8  and  C_9 
REMARK       I    between atoms: C_9  and  N_10 
REMARK    5  A    between atoms: N_10  and  C_11 
ROOT
HETATM    1  N   UNL     1      43.610 -15.870   2.600  1.00  0.00    -0.335 N 
HETATM    2  C   UNL     1      43.017 -14.837   3.260  1.00  0.00     0.321 C 
HETATM    3  N   UNL     1      41.653 -14.849   3.301  1.00  0.00    -0.307 N 
HETATM    4  O   UNL     1      43.747 -13.967   3.724  1.00  0.00    -0.247 OA
HETATM    5  H   UNL     1      44.617 -15.773   2.650  1.00  0.00     0.165 HD
HETATM    6  H   UNL     1      41.203 -15.450   2.635  1.00  0.00     0.170 HD
ENDROOT
BRANCH   1   7
HETATM    7  C   UNL     1      43.109 -17.208   2.306  1.00  0.00     0.115 C 
HETATM    8  C   UNL     1      43.366 -17.546   0.837  1.00  0.00     0.037 C 
BRANCH   7   9
HETATM    9  C   UNL     1      43.736 -18.257   3.207  1.00  0.00    -0.033 A 
HETATM   10  C   UNL     1      43.983 -18.011   4.570  1.00  0.00     0.046 A 
HETATM   11  C   UNL     1      44.598 -18.967   5.385  1.00  0.00     0.069 A 
HETATM   12  C   UNL     1      44.988 -20.185   4.836  1.00  0.00     0.037 A 
HETATM   13  C   UNL     1      44.757 -20.446   3.483  1.00  0.00     0.003 A 
HETATM   14  C   UNL     1      44.136 -19.491   2.675  1.00  0.00     0.009 A 
BRANCH  11  15
HETATM   15  O   UNL     1      44.763 -18.578   6.687  1.00  0.00    -0.352 OA
BRANCH  15  16
HETATM   16  C   UNL     1      43.629 -18.680   7.545  1.00  0.00     0.171 C 
HETATM   17  C   UNL     1      43.388 -17.315   8.165  1.00  0.00     0.034 C 
ENDBRANCH  15  16
ENDBRANCH  11  15
ENDBRANCH   7   9
ENDBRANCH   1   7
BRANCH   3  18
HETATM   18  C   UNL     1      40.821 -13.925   3.980  1.00  0.00     0.059 A 
HETATM   19  C   UNL     1      40.357 -14.233   5.274  1.00  0.00    -0.032 A 
HETATM   20  C   UNL     1      40.697 -15.520   5.972  1.00  0.00     0.050 C 
HETATM   21  C   UNL     1      39.536 -13.307   5.935  1.00  0.00     0.028 A 
HETATM   22  C   UNL     1      39.212 -12.118   5.304  1.00  0.00     0.117 A 
HETATM   23  N   UNL     1      39.646 -11.789   4.074  1.00  0.00    -0.271 NA
HETATM   24  C   UNL     1      40.436 -12.695   3.442  1.00  0.00     0.146 A 
ENDBRANCH   3  18
TORSDOF 5
ENDMDL
MODEL 3
REMARK VINA RESULT:      -7.5      2.581      5.862
REMARK  5 active torsions:
REMARK  status: ('A' for Active; 'I' for Inactive)
REMARK    1  A    between atoms: C_2  and  O_3 
REMARK    2  A    between atoms: O_3  and  C_4 
REMARK    3  A    between atoms: C_6  and  C_7 
REMARK    4  A    between atoms: C_7  and  N_8 
REMARK       I    between atoms: N_8  and  C_9 
REMARK       I    between atoms: C_9  and  N_10 
REMARK    5  A    between atoms: N_10  and  C_11 
ROOT
HETATM    1  N   UNL     1      41.870 -18.116   1.459  1.00  0.00    -0.335 N 
HETATM    2  C   UNL     1      41.207 -17.133   2.126  1.00  0.00     0.321 C 
HETATM    3  N   UNL     1      41.876 -16.545   3.160  1.00  0.00    -0.307 N 
HETATM    4  O   UNL     1      40.058 -16.884   1.775  1.00  0.00    -0.247 OA
HETATM    5  H   UNL     1      41.293 -18.465   0.703  1.00  0.00     0.165 HD
HETATM    6  H   UNL     1      42.671 -17.050   3.507  1.00  0.00     0.170 HD
ENDROOT
BRANCH   1   7
HETATM    7  C   UNL     1      43.303 -18.371   1.341  1.00  0.00     0.115 C 
HETATM    8  C   UNL     1      44.081 -17.093   1.655  1.00  0.00     0.037 C 
BRANCH   7   9
HETATM    9  C   UNL     1      43.753 -19.501   2.250  1.00  0.00    -0.033 A 
HETATM   10  C   UNL     1      44.116 -19.273   3.590  1.00  0.00     0.046 A 
HETATM   11  C   UNL     1      44.568 -20.312   4.411  1.00  0.00     0.069 A 
HETATM   12  C   UNL     1      44.676 -21.598   3.889  1.00  0.00     0.037 A 
HETATM   13  C   UNL     1      44.326 -21.842   2.558  1.00  0.00     0.003 A 
HETATM   14  C   UNL     1      43.868 -20.803   1.745  1.00  0.00     0.009 A 
BRANCH  11  15
HETATM   15  O   UNL     1      44.876 -19.931   5.688  1.00  0.00    -0.352 OA
BRANCH  15  16
HETATM   16  C   UNL     1      43.789 -19.738   6.590  1.00  0.00     0.171 C 
HETATM   17  C   UNL     1      43.561 -21.043   7.332  1.00  0.00     0.034 C 
ENDBRANCH  15  16
ENDBRANCH  11  15
ENDBRANCH   7   9
ENDBRANCH   1   7
BRANCH   3  18
HETATM   18  C   UNL     1      41.422 -15.462   3.953  1.00  0.00     0.059 A 
HETATM   19  C   UNL     1      40.967 -15.707   5.263  1.00  0.00    -0.032 A 
HETATM   20  C   UNL     1      40.926 -17.084   5.863  1.00  0.00     0.050 C 
HETATM   21  C   UNL     1      40.524 -14.624   6.037  1.00  0.00     0.028 A 
HETATM   22  C   UNL     1      40.554 -13.349   5.498  1.00  0.00     0.117 A 
HETATM   23  N   UNL     1      40.992 -13.080   4.255  1.00  0.00    -0.271 NA
HETATM   24  C   UNL     1      41.413 -14.137   3.514  1.00  0.00     0.146 A 
ENDBRANCH   3  18
TORSDOF 5
ENDMDL
MODEL 4
REMARK VINA RESULT:      -7.4      2.518      5.829
REMARK  5 active torsions:
REMARK  status: ('A' for Active; 'I' for Inactive)
REMARK    1  A    between atoms: C_2  and  O_3 
REMARK    2  A    between atoms: O_3  and  C_4 
REMARK    3  A    between atoms: C_6  and  C_7 
REMARK    4  A    between atoms: C_7  and  N_8 
REMARK       I    between atoms: N_8  and  C_9 
REMARK       I    between atoms: C_9  and  N_10 
REMARK    5  A    between atoms: N_10  and  C_11 
ROOT
HETATM    1  N   UNL     1      42.468 -16.589   5.719  1.00  0.00    -0.335 N 
HETATM    2  C   UNL     1      41.810 -16.326   4.556  1.00  0.00     0.321 C 
HETATM    3  N   UNL     1      42.583 -15.961   3.492  1.00  0.00    -0.307 N 
HETATM    4  O   UNL     1      40.585 -16.398   4.569  1.00  0.00    -0.247 OA
HETATM    5  H   UNL     1      41.804 -16.870   6.431  1.00  0.00     0.165 HD
HETATM    6  H   UNL     1      43.516 -15.664   3.714  1.00  0.00     0.170 HD
ENDROOT
BRANCH   1   7
HETATM    7  C   UNL     1      43.855 -16.983   5.945  1.00  0.00     0.115 C 
HETATM    8  C   UNL     1      44.349 -16.397   7.268  1.00  0.00     0.037 C 
BRANCH   7   9
HETATM    9  C   UNL     1      44.021 -18.493   5.941  1.00  0.00    -0.033 A 
HETATM   10  C   UNL     1      44.515 -19.180   4.818  1.00  0.00     0.046 A 
HETATM   11  C   UNL     1      44.628 -20.575   4.806  1.00  0.00     0.069 A 
HETATM   12  C   UNL     1      44.231 -21.302   5.925  1.00  0.00     0.037 A 
HETATM   13  C   UNL     1      43.731 -20.637   7.048  1.00  0.00     0.003 A 
HETATM   14  C   UNL     1      43.627 -19.245   7.057  1.00  0.00     0.009 A 
BRANCH  11  15
HETATM   15  O   UNL     1      45.130 -21.092   3.644  1.00  0.00    -0.352 OA
BRANCH  15  16
HETATM   16  C   UNL     1      44.436 -22.199   3.071  1.00  0.00     0.171 C 
HETATM   17  C   UNL     1      43.980 -21.794   1.680  1.00  0.00     0.034 C 
ENDBRANCH  15  16
ENDBRANCH  11  15
ENDBRANCH   7   9
ENDBRANCH   1   7
BRANCH   3  18
HETATM   18  C   UNL     1      42.137 -15.706   2.172  1.00  0.00     0.059 A 
HETATM   19  C   UNL     1      42.027 -16.772   1.260  1.00  0.00    -0.032 A 
HETATM   20  C   UNL     1      42.381 -18.188   1.621  1.00  0.00     0.050 C 
HETATM   21  C   UNL     1      41.581 -16.503  -0.043  1.00  0.00     0.028 A 
HETATM   22  C   UNL     1      41.254 -15.204  -0.391  1.00  0.00     0.117 A 
HETATM   23  N   UNL     1      41.337 -14.165   0.458  1.00  0.00    -0.271 NA
HETATM   24  C   UNL     1      41.775 -14.437   1.714  1.00  0.00     0.146 A 
ENDBRANCH   3  18
TORSDOF 5
ENDMDL
MODEL 5
REMARK VINA RESULT:      -7.4      2.838      6.322
REMARK  5 active torsions:
REMARK  status: ('A' for Active; 'I' for Inactive)
REMARK    1  A    between atoms: C_2  and  O_3 
REMARK    2  A    between atoms: O_3  and  C_4 
REMARK    3  A    between atoms: C_6  and  C_7 
REMARK    4  A    between atoms: C_7  and  N_8 
REMARK       I    between atoms: N_8  and  C_9 
REMARK       I    between atoms: C_9  and  N_10 
REMARK    5  A    between atoms: N_10  and  C_11 
ROOT
HETATM    1  N   UNL     1      40.820 -16.993   3.617  1.00  0.00    -0.335 N 
HETATM    2  C   UNL     1      40.580 -16.603   2.335  1.00  0.00     0.321 C 
HETATM    3  N   UNL     1      40.711 -15.270   2.073  1.00  0.00    -0.307 N 
HETATM    4  O   UNL     1      40.229 -17.465   1.536  1.00  0.00    -0.247 OA
HETATM    5  H   UNL     1      40.717 -17.998   3.693  1.00  0.00     0.165 HD
HETATM    6  H   UNL     1      40.710 -14.667   2.876  1.00  0.00     0.170 HD
ENDROOT
BRANCH   1   7
HETATM    7  C   UNL     1      41.609 -16.350   4.663  1.00  0.00     0.115 C 
HETATM    8  C   UNL     1      40.742 -16.128   5.902  1.00  0.00     0.037 C 
BRANCH   7   9
HETATM    9  C   UNL     1      42.843 -17.160   5.019  1.00  0.00    -0.033 A 
HETATM   10  C   UNL     1      43.220 -18.297   4.282  1.00  0.00     0.046 A 
HETATM   11  C   UNL     1      44.335 -19.063   4.640  1.00  0.00     0.069 A 
HETATM   12  C   UNL     1      45.083 -18.701   5.757  1.00  0.00     0.037 A 
HETATM   13  C   UNL     1      44.720 -17.579   6.505  1.00  0.00     0.003 A 
HETATM   14  C   UNL     1      43.610 -16.814   6.140  1.00  0.00     0.009 A 
BRANCH  11  15
HETATM   15  O   UNL     1      44.573 -20.133   3.821  1.00  0.00    -0.352 OA
BRANCH  15  16
HETATM   16  C   UNL     1      43.940 -20.128   2.543  1.00  0.00     0.171 C 
HETATM   17  C   UNL     1      44.070 -21.521   1.953  1.00  0.00     0.034 C 
ENDBRANCH  15  16
ENDBRANCH  11  15
ENDBRANCH   7   9
ENDBRANCH   1   7
BRANCH   3  18
HETATM   18  C   UNL     1      40.579 -14.640   0.811  1.00  0.00     0.059 A 
HETATM   19  C   UNL     1      39.312 -14.192   0.390  1.00  0.00    -0.032 A 
HETATM   20  C   UNL     1      38.073 -14.367   1.222  1.00  0.00     0.050 C 
HETATM   21  C   UNL     1      39.198 -13.567  -0.861  1.00  0.00     0.028 A 
HETATM   22  C   UNL     1      40.331 -13.402  -1.640  1.00  0.00     0.117 A 
HETATM   23  N   UNL     1      41.556 -13.808  -1.264  1.00  0.00    -0.271 NA
HETATM   24  C   UNL     1      41.653 -14.416  -0.053  1.00  0.00     0.146 A 
ENDBRANCH   3  18
TORSDOF 5
ENDMDL
MODEL 6
REMARK VINA RESULT:      -7.3      2.776      6.415
REMARK  5 active torsions:
REMARK  status: ('A' for Active; 'I' for Inactive)
REMARK    1  A    between atoms: C_2  and  O_3 
REMARK    2  A    between atoms: O_3  and  C_4 
REMARK    3  A    between atoms: C_6  and  C_7 
REMARK    4  A    between atoms: C_7  and  N_8 
REMARK       I    between atoms: N_8  and  C_9 
REMARK       I    between atoms: C_9  and  N_10 
REMARK    5  A    between atoms: N_10  and  C_11 
ROOT
HETATM    1  N   UNL     1      42.294 -14.904   6.284  1.00  0.00    -0.335 N 
HETATM    2  C   UNL     1      41.167 -14.695   5.550  1.00  0.00     0.321 C 
HETATM    3  N   UNL     1      41.350 -14.350   4.243  1.00  0.00    -0.307 N 
HETATM    4  O   UNL     1      40.088 -14.792   6.128  1.00  0.00    -0.247 OA
HETATM    5  H   UNL     1      42.042 -15.175   7.227  1.00  0.00     0.165 HD
HETATM    6  H   UNL     1      42.270 -14.027   4.004  1.00  0.00     0.170 HD
ENDROOT
BRANCH   1   7
HETATM    7  C   UNL     1      43.642 -15.263   5.854  1.00  0.00     0.115 C 
HETATM    8  C   UNL     1      44.668 -14.656   6.811  1.00  0.00     0.037 C 
BRANCH   7   9
HETATM    9  C   UNL     1      43.826 -16.767   5.766  1.00  0.00    -0.033 A 
HETATM   10  C   UNL     1      43.665 -17.464   4.555  1.00  0.00     0.046 A 
HETATM   11  C   UNL     1      43.797 -18.855   4.489  1.00  0.00     0.069 A 
HETATM   12  C   UNL     1      44.080 -19.571   5.649  1.00  0.00     0.037 A 
HETATM   13  C   UNL     1      44.237 -18.897   6.863  1.00  0.00     0.003 A 
HETATM   14  C   UNL     1      44.112 -17.508   6.922  1.00  0.00     0.009 A 
BRANCH  11  15
HETATM   15  O   UNL     1      43.616 -19.382   3.239  1.00  0.00    -0.352 OA
BRANCH  15  16
HETATM   16  C   UNL     1      44.480 -20.449   2.852  1.00  0.00     0.171 C 
HETATM   17  C   UNL     1      43.750 -21.288   1.818  1.00  0.00     0.034 C 
ENDBRANCH  15  16
ENDBRANCH  11  15
ENDBRANCH   7   9
ENDBRANCH   1   7
BRANCH   3  18
HETATM   18  C   UNL     1      40.339 -14.148   3.272  1.00  0.00     0.059 A 
HETATM   19  C   UNL     1      39.966 -15.213   2.429  1.00  0.00    -0.032 A 
HETATM   20  C   UNL     1      40.610 -16.569   2.502  1.00  0.00     0.050 C 
HETATM   21  C   UNL     1      38.960 -14.998   1.475  1.00  0.00     0.028 A 
HETATM   22  C   UNL     1      38.359 -13.754   1.394  1.00  0.00     0.117 A 
HETATM   23  N   UNL     1      38.683 -12.719   2.190  1.00  0.00    -0.271 NA
HETATM   24  C   UNL     1      39.662 -12.938   3.106  1.00  0.00     0.146 A 
ENDBRANCH   3  18
TORSDOF 5
ENDMDL
MODEL 7
REMARK VINA RESULT:      -7.2      3.041      7.132
REMARK  5 active torsions:
REMARK  status: ('A' for Active; 'I' for Inactive)
REMARK    1  A    between atoms: C_2  and  O_3 
REMARK    2  A    between atoms: O_3  and  C_4 
REMARK    3  A    between atoms: C_6  and  C_7 
REMARK    4  A    between atoms: C_7  and  N_8 
REMARK       I    between atoms: N_8  and  C_9 
REMARK       I    between atoms: C_9  and  N_10 
REMARK    5  A    between atoms: N_10  and  C_11 
ROOT
HETATM    1  N   UNL     1      42.337 -17.053   6.231  1.00  0.00    -0.335 N 
HETATM    2  C   UNL     1      41.294 -16.188   6.100  1.00  0.00     0.321 C 
HETATM    3  N   UNL     1      41.586 -14.961   5.577  1.00  0.00    -0.307 N 
HETATM    4  O   UNL     1      40.194 -16.561   6.497  1.00  0.00    -0.247 OA
HETATM    5  H   UNL     1      42.005 -17.933   6.606  1.00  0.00     0.165 HD
HETATM    6  H   UNL     1      42.557 -14.707   5.581  1.00  0.00     0.170 HD
ENDROOT
BRANCH   1   7
HETATM    7  C   UNL     1      43.615 -17.097   5.527  1.00  0.00     0.115 C 
HETATM    8  C   UNL     1      44.703 -17.621   6.464  1.00  0.00     0.037 C 
BRANCH   7   9
HETATM    9  C   UNL     1      43.540 -17.952   4.274  1.00  0.00    -0.033 A 
HETATM   10  C   UNL     1      44.299 -19.128   4.134  1.00  0.00     0.046 A 
HETATM   11  C   UNL     1      44.255 -19.890   2.961  1.00  0.00     0.069 A 
HETATM   12  C   UNL     1      43.454 -19.470   1.902  1.00  0.00     0.037 A 
HETATM   13  C   UNL     1      42.699 -18.301   2.021  1.00  0.00     0.003 A 
HETATM   14  C   UNL     1      42.740 -17.548   3.196  1.00  0.00     0.009 A 
BRANCH  11  15
HETATM   15  O   UNL     1      45.045 -21.007   2.982  1.00  0.00    -0.352 OA
BRANCH  15  16
HETATM   16  C   UNL     1      44.415 -22.244   3.308  1.00  0.00     0.171 C 
HETATM   17  C   UNL     1      44.810 -22.609   4.728  1.00  0.00     0.034 C 
ENDBRANCH  15  16
ENDBRANCH  11  15
ENDBRANCH   7   9
ENDBRANCH   1   7
BRANCH   3  18
HETATM   18  C   UNL     1      40.664 -13.926   5.286  1.00  0.00     0.059 A 
HETATM   19  C   UNL     1      40.387 -13.604   3.943  1.00  0.00    -0.032 A 
HETATM   20  C   UNL     1      41.043 -14.308   2.789  1.00  0.00     0.050 C 
HETATM   21  C   UNL     1      39.469 -12.578   3.671  1.00  0.00     0.028 A 
HETATM   22  C   UNL     1      38.858 -11.920   4.724  1.00  0.00     0.117 A 
HETATM   23  N   UNL     1      39.093 -12.208   6.016  1.00  0.00    -0.271 NA
HETATM   24  C   UNL     1      39.987 -13.200   6.267  1.00  0.00     0.146 A 
ENDBRANCH   3  18
TORSDOF 5
ENDMDL
MODEL 8
REMARK VINA RESULT:      -7.1      2.872      6.129
REMARK  5 active torsions:
REMARK  status: ('A' for Active; 'I' for Inactive)
REMARK    1  A    between atoms: C_2  and  O_3 
REMARK    2  A    between atoms: O_3  and  C_4 
REMARK    3  A    between atoms: C_6  and  C_7 
REMARK    4  A    between atoms: C_7  and  N_8 
REMARK       I    between atoms: N_8  and  C_9 
REMARK       I    between atoms: C_9  and  N_10 
REMARK    5  A    between atoms: N_10  and  C_11 
ROOT
HETATM    1  N   UNL     1      42.623 -16.570   2.898  1.00  0.00    -0.335 N 
HETATM    2  C   UNL     1      41.607 -15.699   2.649  1.00  0.00     0.321 C 
HETATM    3  N   UNL     1      41.079 -15.728   1.391  1.00  0.00    -0.307 N 
HETATM    4  O   UNL     1      41.279 -14.936   3.554  1.00  0.00    -0.247 OA
HETATM    5  H   UNL     1      42.923 -16.479   3.862  1.00  0.00     0.165 HD
HETATM    6  H   UNL     1      41.640 -16.184   0.695  1.00  0.00     0.170 HD
ENDROOT
BRANCH   1   7
HETATM    7  C   UNL     1      42.969 -17.823   2.236  1.00  0.00     0.115 C 
HETATM    8  C   UNL     1      43.922 -17.547   1.073  1.00  0.00     0.037 C 
BRANCH   7   9
HETATM    9  C   UNL     1      43.588 -18.820   3.201  1.00  0.00    -0.033 A 
HETATM   10  C   UNL     1      43.731 -18.533   4.571  1.00  0.00     0.046 A 
HETATM   11  C   UNL     1      44.338 -19.439   5.447  1.00  0.00     0.069 A 
HETATM   12  C   UNL     1      44.825 -20.646   4.953  1.00  0.00     0.037 A 
HETATM   13  C   UNL     1      44.699 -20.946   3.594  1.00  0.00     0.003 A 
HETATM   14  C   UNL     1      44.085 -20.041   2.725  1.00  0.00     0.009 A 
BRANCH  11  15
HETATM   15  O   UNL     1      44.396 -19.017   6.747  1.00  0.00    -0.352 OA
BRANCH  15  16
HETATM   16  C   UNL     1      43.197 -18.496   7.317  1.00  0.00     0.171 C 
HETATM   17  C   UNL     1      43.562 -17.273   8.137  1.00  0.00     0.034 C 
ENDBRANCH  15  16
ENDBRANCH  11  15
ENDBRANCH   7   9
ENDBRANCH   1   7
BRANCH   3  18
HETATM   18  C   UNL     1      39.980 -14.970   0.919  1.00  0.00     0.059 A 
HETATM   19  C   UNL     1      40.119 -14.207  -0.257  1.00  0.00    -0.032 A 
HETATM   20  C   UNL     1      41.402 -14.149  -1.037  1.00  0.00     0.050 C 
HETATM   21  C   UNL     1      39.021 -13.464  -0.714  1.00  0.00     0.028 A 
HETATM   22  C   UNL     1      37.833 -13.507  -0.005  1.00  0.00     0.117 A 
HETATM   23  N   UNL     1      37.663 -14.231   1.116  1.00  0.00    -0.271 NA
HETATM   24  C   UNL     1      38.735 -14.942   1.551  1.00  0.00     0.146 A 
ENDBRANCH   3  18
TORSDOF 5
ENDMDL
MODEL 9
REMARK VINA RESULT:      -7.1      2.668      6.724
REMARK  5 active torsions:
REMARK  status: ('A' for Active; 'I' for Inactive)
REMARK    1  A    between atoms: C_2  and  O_3 
REMARK    2  A    between atoms: O_3  and  C_4 
REMARK    3  A    between atoms: C_6  and  C_7 
REMARK    4  A    between atoms: C_7  and  N_8 
REMARK       I    between atoms: N_8  and  C_9 
REMARK       I    between atoms: C_9  and  N_10 
REMARK    5  A    between atoms: N_10  and  C_11 
ROOT
HETATM    1  N   UNL     1      42.739 -17.464   6.376  1.00  0.00    -0.335 N 
HETATM    2  C   UNL     1      41.774 -16.541   6.109  1.00  0.00     0.321 C 
HETATM    3  N   UNL     1      42.204 -15.331   5.646  1.00  0.00    -0.307 N 
HETATM    4  O   UNL     1      40.610 -16.854   6.342  1.00  0.00    -0.247 OA
HETATM    5  H   UNL     1      42.309 -18.326   6.689  1.00  0.00     0.165 HD
HETATM    6  H   UNL     1      43.178 -15.132   5.790  1.00  0.00     0.170 HD
ENDROOT
BRANCH   1   7
HETATM    7  C   UNL     1      44.099 -17.577   5.858  1.00  0.00     0.115 C 
HETATM    8  C   UNL     1      45.017 -18.150   6.939  1.00  0.00     0.037 C 
BRANCH   7   9
HETATM    9  C   UNL     1      44.158 -18.435   4.606  1.00  0.00    -0.033 A 
HETATM   10  C   UNL     1      43.832 -17.918   3.339  1.00  0.00     0.046 A 
HETATM   11  C   UNL     1      43.850 -18.723   2.195  1.00  0.00     0.069 A 
HETATM   12  C   UNL     1      44.183 -20.070   2.313  1.00  0.00     0.037 A 
HETATM   13  C   UNL     1      44.503 -20.603   3.564  1.00  0.00     0.003 A 
HETATM   14  C   UNL     1      44.491 -19.793   4.701  1.00  0.00     0.009 A 
BRANCH  11  15
HETATM   15  O   UNL     1      43.515 -18.073   1.040  1.00  0.00    -0.352 OA
BRANCH  15  16
HETATM   16  C   UNL     1      42.947 -16.770   1.167  1.00  0.00     0.171 C 
HETATM   17  C   UNL     1      41.565 -16.800   0.538  1.00  0.00     0.034 C 
ENDBRANCH  15  16
ENDBRANCH  11  15
ENDBRANCH   7   9
ENDBRANCH   1   7
BRANCH   3  18
HETATM   18  C   UNL     1      41.391 -14.245   5.239  1.00  0.00     0.059 A 
HETATM   19  C   UNL     1      41.785 -13.460   4.138  1.00  0.00    -0.032 A 
HETATM   20  C   UNL     1      43.053 -13.716   3.373  1.00  0.00     0.050 C 
HETATM   21  C   UNL     1      40.968 -12.389   3.746  1.00  0.00     0.028 A 
HETATM   22  C   UNL     1      39.798 -12.140   4.443  1.00  0.00     0.117 A 
HETATM   23  N   UNL     1      39.388 -12.876   5.492  1.00  0.00    -0.271 NA
HETATM   24  C   UNL     1      40.190 -13.906   5.865  1.00  0.00     0.146 A 
ENDBRANCH   3  18
TORSDOF 5
ENDMDL
MODEL 10
REMARK VINA RESULT:      -7.1      3.124      6.768
REMARK  5 active torsions:
REMARK  status: ('A' for Active; 'I' for Inactive)
REMARK    1  A    between atoms: C_2  and  O_3 
REMARK    2  A    between atoms: O_3  and  C_4 
REMARK    3  A    between atoms: C_6  and  C_7 
REMARK    4  A    between atoms: C_7  and  N_8 
REMARK       I    between atoms: N_8  and  C_9 
REMARK       I    between atoms: C_9  and  N_10 
REMARK    5  A    between atoms: N_10  and  C_11 
ROOT
HETATM    1  N   UNL     1      43.246 -15.593   2.587  1.00  0.00    -0.335 N 
HETATM    2  C   UNL     1      43.197 -14.392   3.226  1.00  0.00     0.321 C 
HETATM    3  N   UNL     1      41.969 -13.986   3.661  1.00  0.00    -0.307 N 
HETATM    4  O   UNL     1      44.244 -13.758   3.322  1.00  0.00    -0.247 OA
HETATM    5  H   UNL     1      44.202 -15.804   2.329  1.00  0.00     0.165 HD
HETATM    6  H   UNL     1      41.185 -14.462   3.253  1.00  0.00     0.170 HD
ENDROOT
BRANCH   1   7
HETATM    7  C   UNL     1      42.336 -16.732   2.657  1.00  0.00     0.115 C 
HETATM    8  C   UNL     1      41.566 -16.860   1.342  1.00  0.00     0.037 C 
BRANCH   7   9
HETATM    9  C   UNL     1      43.070 -18.024   2.968  1.00  0.00    -0.033 A 
HETATM   10  C   UNL     1      43.636 -18.269   4.232  1.00  0.00     0.046 A 
HETATM   11  C   UNL     1      44.345 -19.444   4.500  1.00  0.00     0.069 A 
HETATM   12  C   UNL     1      44.509 -20.389   3.490  1.00  0.00     0.037 A 
HETATM   13  C   UNL     1      43.960 -20.160   2.226  1.00  0.00     0.003 A 
HETATM   14  C   UNL     1      43.246 -18.989   1.966  1.00  0.00     0.009 A 
BRANCH  11  15
HETATM   15  O   UNL     1      44.828 -19.536   5.777  1.00  0.00    -0.352 OA
BRANCH  15  16
HETATM   16  C   UNL     1      43.870 -19.636   6.829  1.00  0.00     0.171 C 
HETATM   17  C   UNL     1      43.621 -21.109   7.095  1.00  0.00     0.034 C 
ENDBRANCH  15  16
ENDBRANCH  11  15
ENDBRANCH   7   9
ENDBRANCH   1   7
BRANCH   3  18
HETATM   18  C   UNL     1      41.680 -12.815   4.403  1.00  0.00     0.059 A 
HETATM   19  C   UNL     1      41.134 -11.696   3.746  1.00  0.00    -0.032 A 
HETATM   20  C   UNL     1      40.852 -11.680   2.270  1.00  0.00     0.050 C 
HETATM   21  C   UNL     1      40.850 -10.544   4.496  1.00  0.00     0.028 A 
HETATM   22  C   UNL     1      41.107 -10.543   5.857  1.00  0.00     0.117 A 
HETATM   23  N   UNL     1      41.619 -11.597   6.517  1.00  0.00    -0.271 NA
HETATM   24  C   UNL     1      41.893 -12.704   5.779  1.00  0.00     0.146 A 
ENDBRANCH   3  18
TORSDOF 5
ENDMDL
