MODEL 1
REMARK VINA RESULT:      -9.0      0.000      0.000
REMARK  3 active torsions:
REMARK  status: ('A' for Active; 'I' for Inactive)
REMARK    1  A    between atoms: C_2  and  N_3 
REMARK       I    between atoms: N_6  and  C_7 
REMARK    2  A    between atoms: C_7  and  C_8 
REMARK    3  A    between atoms: C_24  and  O_25 
ROOT
HETATM    1  N   UNL     1      43.575 -18.102   2.367  1.00  0.00    -0.280 NA
HETATM    2  C   UNL     1      43.403 -17.214   3.547  1.00  0.00     0.115 C 
HETATM    3  C   UNL     1      43.258 -15.741   3.121  1.00  0.00     0.141 C 
HETATM    4  N   UNL     1      42.229 -15.560   2.092  1.00  0.00    -0.346 N 
HETATM    5  C   UNL     1      41.613 -14.312   2.012  1.00  0.00     0.256 C 
HETATM    6  O   UNL     1      41.952 -13.352   2.699  1.00  0.00    -0.267 OA
HETATM    7  C   UNL     1      42.408 -16.446   0.930  1.00  0.00     0.141 C 
HETATM    8  C   UNL     1      42.512 -17.922   1.353  1.00  0.00     0.115 C 
ENDROOT
BRANCH   5   9
HETATM    9  C   UNL     1      40.458 -14.139   1.107  1.00  0.00     0.064 A 
HETATM   10  C   UNL     1      40.618 -13.597  -0.152  1.00  0.00     0.077 A 
HETATM   11  C   UNL     1      39.532 -13.400  -1.009  1.00  0.00     0.065 A 
HETATM   12  N   UNL     1      41.764 -13.145  -0.814  1.00  0.00    -0.330 N 
HETATM   13  N   UNL     1      40.009 -12.839  -2.192  1.00  0.00    -0.331 N 
HETATM   14  C   UNL     1      38.244 -13.715  -0.652  1.00  0.00     0.074 A 
HETATM   15  C   UNL     1      41.394 -12.661  -2.070  1.00  0.00     0.176 A 
HETATM   16  H   UNL     1      39.464 -12.560  -2.994  1.00  0.00     0.168 HD
HETATM   17  S   UNL     1      42.390 -11.995  -3.200  1.00  0.00    -0.041 SA
HETATM   18  C   UNL     1      38.069 -14.232   0.632  1.00  0.00     0.119 A 
HETATM   19  F   UNL     1      36.834 -14.542   1.045  1.00  0.00    -0.206 F 
HETATM   20  C   UNL     1      39.148 -14.434   1.512  1.00  0.00     0.061 A 
HETATM   21  H   UNL     1      42.690 -13.101  -0.404  1.00  0.00     0.168 HD
ENDBRANCH   5   9
BRANCH   1  22
HETATM   22  C   UNL     1      43.914 -19.423   2.721  1.00  0.00     0.010 A 
HETATM   23  C   UNL     1      44.491 -19.773   3.951  1.00  0.00     0.026 A 
HETATM   24  C   UNL     1      44.814 -21.101   4.254  1.00  0.00     0.038 A 
HETATM   25  C   UNL     1      44.552 -22.103   3.333  1.00  0.00     0.065 A 
HETATM   26  C   UNL     1      43.965 -21.799   2.113  1.00  0.00     0.038 A 
HETATM   27  C   UNL     1      43.648 -20.468   1.818  1.00  0.00     0.026 A 
BRANCH  25  28
HETATM   28  O   UNL     1      44.885 -23.381   3.667  1.00  0.00    -0.361 OA
HETATM   29  H   UNL     1      45.003 -23.427   4.629  1.00  0.00     0.217 HD
ENDBRANCH  25  28
ENDBRANCH   1  22
TORSDOF 3
ENDMDL
MODEL 2
REMARK VINA RESULT:      -9.0      2.052      2.325
REMARK  3 active torsions:
REMARK  status: ('A' for Active; 'I' for Inactive)
REMARK    1  A    between atoms: C_2  and  N_3 
REMARK       I    between atoms: N_6  and  C_7 
REMARK    2  A    between atoms: C_7  and  C_8 
REMARK    3  A    between atoms: C_24  and  O_25 
ROOT
HETATM    1  N   UNL     1      43.498 -18.177   2.867  1.00  0.00    -0.280 NA
HETATM    2  C   UNL     1      42.138 -17.811   3.348  1.00  0.00     0.115 C 
HETATM    3  C   UNL     1      41.802 -16.347   3.010  1.00  0.00     0.141 C 
HETATM    4  N   UNL     1      42.029 -16.038   1.594  1.00  0.00    -0.346 N 
HETATM    5  C   UNL     1      41.287 -14.998   1.037  1.00  0.00     0.256 C 
HETATM    6  O   UNL     1      40.528 -14.289   1.693  1.00  0.00    -0.267 OA
HETATM    7  C   UNL     1      43.376 -16.406   1.129  1.00  0.00     0.141 C 
HETATM    8  C   UNL     1      43.697 -17.881   1.431  1.00  0.00     0.115 C 
ENDROOT
BRANCH   5   9
HETATM    9  C   UNL     1      41.361 -14.766  -0.421  1.00  0.00     0.064 A 
HETATM   10  C   UNL     1      41.852 -13.578  -0.925  1.00  0.00     0.077 A 
HETATM   11  C   UNL     1      41.901 -13.332  -2.300  1.00  0.00     0.065 A 
HETATM   12  N   UNL     1      42.353 -12.447  -0.276  1.00  0.00    -0.330 N 
HETATM   13  N   UNL     1      42.438 -12.060  -2.494  1.00  0.00    -0.331 N 
HETATM   14  C   UNL     1      41.454 -14.239  -3.229  1.00  0.00     0.074 A 
HETATM   15  C   UNL     1      42.704 -11.497  -1.238  1.00  0.00     0.176 A 
HETATM   16  H   UNL     1      42.578 -11.588  -3.375  1.00  0.00     0.168 HD
HETATM   17  S   UNL     1      43.308  -9.991  -0.958  1.00  0.00    -0.041 SA
HETATM   18  C   UNL     1      40.925 -15.427  -2.725  1.00  0.00     0.119 A 
HETATM   19  F   UNL     1      40.456 -16.344  -3.581  1.00  0.00    -0.206 F 
HETATM   20  C   UNL     1      40.862 -15.694  -1.346  1.00  0.00     0.061 A 
HETATM   21  H   UNL     1      42.371 -12.317   0.729  1.00  0.00     0.168 HD
ENDBRANCH   5   9
BRANCH   1  22
HETATM   22  C   UNL     1      43.922 -19.436   3.332  1.00  0.00     0.010 A 
HETATM   23  C   UNL     1      44.267 -19.695   4.668  1.00  0.00     0.026 A 
HETATM   24  C   UNL     1      44.688 -20.965   5.081  1.00  0.00     0.038 A 
HETATM   25  C   UNL     1      44.759 -22.001   4.163  1.00  0.00     0.065 A 
HETATM   26  C   UNL     1      44.409 -21.789   2.837  1.00  0.00     0.038 A 
HETATM   27  C   UNL     1      43.991 -20.516   2.434  1.00  0.00     0.026 A 
BRANCH  25  28
HETATM   28  O   UNL     1      45.177 -23.219   4.607  1.00  0.00    -0.361 OA
HETATM   29  H   UNL     1      45.760 -23.609   3.935  1.00  0.00     0.217 HD
ENDBRANCH  25  28
ENDBRANCH   1  22
TORSDOF 3
ENDMDL
MODEL 3
REMARK VINA RESULT:      -8.8      2.392      3.016
REMARK  3 active torsions:
REMARK  status: ('A' for Active; 'I' for Inactive)
REMARK    1  A    between atoms: C_2  and  N_3 
REMARK       I    between atoms: N_6  and  C_7 
REMARK    2  A    between atoms: C_7  and  C_8 
REMARK    3  A    between atoms: C_24  and  O_25 
ROOT
HETATM    1  N   UNL     1      42.969 -17.932   2.450  1.00  0.00    -0.280 NA
HETATM    2  C   UNL     1      41.490 -17.832   2.571  1.00  0.00     0.115 C 
HETATM    3  C   UNL     1      41.031 -16.362   2.598  1.00  0.00     0.141 C 
HETATM    4  N   UNL     1      41.586 -15.586   1.484  1.00  0.00    -0.346 N 
HETATM    5  C   UNL     1      40.870 -14.468   1.060  1.00  0.00     0.256 C 
HETATM    6  O   UNL     1      39.858 -14.066   1.628  1.00  0.00    -0.267 OA
HETATM    7  C   UNL     1      43.049 -15.695   1.374  1.00  0.00     0.141 C 
HETATM    8  C   UNL     1      43.505 -17.164   1.306  1.00  0.00     0.115 C 
ENDROOT
BRANCH   5   9
HETATM    9  C   UNL     1      41.303 -13.760  -0.162  1.00  0.00     0.064 A 
HETATM   10  C   UNL     1      40.855 -14.154  -1.406  1.00  0.00     0.077 A 
HETATM   11  C   UNL     1      41.278 -13.514  -2.575  1.00  0.00     0.065 A 
HETATM   12  N   UNL     1      39.980 -15.178  -1.781  1.00  0.00    -0.330 N 
HETATM   13  N   UNL     1      40.659 -14.135  -3.658  1.00  0.00    -0.331 N 
HETATM   14  C   UNL     1      42.171 -12.470  -2.562  1.00  0.00     0.074 A 
HETATM   15  C   UNL     1      39.865 -15.182  -3.173  1.00  0.00     0.176 A 
HETATM   16  H   UNL     1      40.782 -13.913  -4.635  1.00  0.00     0.168 HD
HETATM   17  S   UNL     1      38.973 -16.226  -4.082  1.00  0.00    -0.041 SA
HETATM   18  C   UNL     1      42.656 -12.089  -1.311  1.00  0.00     0.119 A 
HETATM   19  F   UNL     1      43.544 -11.090  -1.235  1.00  0.00    -0.206 F 
HETATM   20  C   UNL     1      42.247 -12.722  -0.123  1.00  0.00     0.061 A 
HETATM   21  H   UNL     1      39.573 -15.853  -1.144  1.00  0.00     0.168 HD
ENDBRANCH   5   9
BRANCH   1  22
HETATM   22  C   UNL     1      43.444 -19.247   2.627  1.00  0.00     0.010 A 
HETATM   23  C   UNL     1      43.217 -20.284   1.710  1.00  0.00     0.026 A 
HETATM   24  C   UNL     1      43.708 -21.576   1.933  1.00  0.00     0.038 A 
HETATM   25  C   UNL     1      44.444 -21.847   3.076  1.00  0.00     0.065 A 
HETATM   26  C   UNL     1      44.706 -20.843   3.997  1.00  0.00     0.038 A 
HETATM   27  C   UNL     1      44.209 -19.555   3.766  1.00  0.00     0.026 A 
BRANCH  25  28
HETATM   28  O   UNL     1      44.900 -23.118   3.256  1.00  0.00    -0.361 OA
HETATM   29  H   UNL     1      44.297 -23.729   2.801  1.00  0.00     0.217 HD
ENDBRANCH  25  28
ENDBRANCH   1  22
TORSDOF 3
ENDMDL
MODEL 4
REMARK VINA RESULT:      -8.7      3.336      4.559
REMARK  3 active torsions:
REMARK  status: ('A' for Active; 'I' for Inactive)
REMARK    1  A    between atoms: C_2  and  N_3 
REMARK       I    between atoms: N_6  and  C_7 
REMARK    2  A    between atoms: C_7  and  C_8 
REMARK    3  A    between atoms: C_24  and  O_25 
ROOT
HETATM    1  N   UNL     1      42.729 -18.325   2.397  1.00  0.00    -0.280 NA
HETATM    2  C   UNL     1      43.614 -17.394   1.647  1.00  0.00     0.115 C 
HETATM    3  C   UNL     1      42.853 -16.126   1.215  1.00  0.00     0.141 C 
HETATM    4  N   UNL     1      42.147 -15.495   2.335  1.00  0.00    -0.346 N 
HETATM    5  C   UNL     1      41.899 -14.127   2.249  1.00  0.00     0.256 C 
HETATM    6  O   UNL     1      42.169 -13.458   1.253  1.00  0.00    -0.267 OA
HETATM    7  C   UNL     1      41.276 -16.426   3.070  1.00  0.00     0.141 C 
HETATM    8  C   UNL     1      42.046 -17.675   3.536  1.00  0.00     0.115 C 
ENDROOT
BRANCH   5   9
HETATM    9  C   UNL     1      41.344 -13.423   3.423  1.00  0.00     0.064 A 
HETATM   10  C   UNL     1      42.049 -13.354   4.607  1.00  0.00     0.077 A 
HETATM   11  C   UNL     1      41.526 -12.716   5.736  1.00  0.00     0.065 A 
HETATM   12  N   UNL     1      43.309 -13.851   4.951  1.00  0.00    -0.330 N 
HETATM   13  N   UNL     1      42.462 -12.816   6.764  1.00  0.00    -0.331 N 
HETATM   14  C   UNL     1      40.280 -12.137   5.745  1.00  0.00     0.074 A 
HETATM   15  C   UNL     1      43.565 -13.536   6.288  1.00  0.00     0.176 A 
HETATM   16  H   UNL     1      42.364 -12.473   7.708  1.00  0.00     0.168 HD
HETATM   17  S   UNL     1      44.907 -13.941   7.153  1.00  0.00    -0.041 SA
HETATM   18  C   UNL     1      39.547 -12.233   4.562  1.00  0.00     0.119 A 
HETATM   19  F   UNL     1      38.318 -11.704   4.514  1.00  0.00    -0.206 F 
HETATM   20  C   UNL     1      40.053 -12.873   3.416  1.00  0.00     0.061 A 
HETATM   21  H   UNL     1      43.891 -14.421   4.348  1.00  0.00     0.168 HD
ENDBRANCH   5   9
BRANCH   1  22
HETATM   22  C   UNL     1      43.326 -19.579   2.630  1.00  0.00     0.010 A 
HETATM   23  C   UNL     1      43.248 -20.656   1.733  1.00  0.00     0.026 A 
HETATM   24  C   UNL     1      43.857 -21.885   2.013  1.00  0.00     0.038 A 
HETATM   25  C   UNL     1      44.564 -22.052   3.194  1.00  0.00     0.065 A 
HETATM   26  C   UNL     1      44.679 -21.005   4.097  1.00  0.00     0.038 A 
HETATM   27  C   UNL     1      44.066 -19.781   3.809  1.00  0.00     0.026 A 
BRANCH  25  28
HETATM   28  O   UNL     1      45.137 -23.265   3.428  1.00  0.00    -0.361 OA
HETATM   29  H   UNL     1      44.664 -23.694   4.160  1.00  0.00     0.217 HD
ENDBRANCH  25  28
ENDBRANCH   1  22
TORSDOF 3
ENDMDL
MODEL 5
REMARK VINA RESULT:      -8.2      3.115      3.771
REMARK  3 active torsions:
REMARK  status: ('A' for Active; 'I' for Inactive)
REMARK    1  A    between atoms: C_2  and  N_3 
REMARK       I    between atoms: N_6  and  C_7 
REMARK    2  A    between atoms: C_7  and  C_8 
REMARK    3  A    between atoms: C_24  and  O_25 
ROOT
HETATM    1  N   UNL     1      42.913 -18.143   2.485  1.00  0.00    -0.280 NA
HETATM    2  C   UNL     1      43.906 -17.219   1.875  1.00  0.00     0.115 C 
HETATM    3  C   UNL     1      43.231 -15.933   1.362  1.00  0.00     0.141 C 
HETATM    4  N   UNL     1      42.389 -15.303   2.384  1.00  0.00    -0.346 N 
HETATM    5  C   UNL     1      42.177 -13.929   2.284  1.00  0.00     0.256 C 
HETATM    6  O   UNL     1      42.589 -13.255   1.343  1.00  0.00    -0.267 OA
HETATM    7  C   UNL     1      41.412 -16.227   2.982  1.00  0.00     0.141 C 
HETATM    8  C   UNL     1      42.092 -17.494   3.531  1.00  0.00     0.115 C 
ENDROOT
BRANCH   5   9
HETATM    9  C   UNL     1      41.479 -13.229   3.382  1.00  0.00     0.064 A 
HETATM   10  C   UNL     1      40.254 -12.628   3.174  1.00  0.00     0.077 A 
HETATM   11  C   UNL     1      39.594 -11.937   4.195  1.00  0.00     0.065 A 
HETATM   12  N   UNL     1      39.457 -12.550   2.029  1.00  0.00    -0.330 N 
HETATM   13  N   UNL     1      38.396 -11.446   3.681  1.00  0.00    -0.331 N 
HETATM   14  C   UNL     1      40.125 -11.799   5.454  1.00  0.00     0.074 A 
HETATM   15  C   UNL     1      38.313 -11.808   2.330  1.00  0.00     0.176 A 
HETATM   16  H   UNL     1      37.712 -10.886   4.168  1.00  0.00     0.168 HD
HETATM   17  S   UNL     1      37.093 -11.417   1.293  1.00  0.00    -0.041 SA
HETATM   18  C   UNL     1      41.378 -12.374   5.662  1.00  0.00     0.119 A 
HETATM   19  F   UNL     1      41.956 -12.257   6.864  1.00  0.00    -0.206 F 
HETATM   20  C   UNL     1      42.061 -13.070   4.648  1.00  0.00     0.061 A 
HETATM   21  H   UNL     1      39.719 -12.903   1.116  1.00  0.00     0.168 HD
ENDBRANCH   5   9
BRANCH   1  22
HETATM   22  C   UNL     1      43.453 -19.410   2.780  1.00  0.00     0.010 A 
HETATM   23  C   UNL     1      44.120 -19.711   3.978  1.00  0.00     0.026 A 
HETATM   24  C   UNL     1      44.643 -20.986   4.222  1.00  0.00     0.038 A 
HETATM   25  C   UNL     1      44.497 -21.986   3.273  1.00  0.00     0.065 A 
HETATM   26  C   UNL     1      43.828 -21.732   2.084  1.00  0.00     0.038 A 
HETATM   27  C   UNL     1      43.310 -20.454   1.848  1.00  0.00     0.026 A 
BRANCH  25  28
HETATM   28  O   UNL     1      45.025 -23.210   3.549  1.00  0.00    -0.361 OA
HETATM   29  H   UNL     1      45.701 -23.107   4.239  1.00  0.00     0.217 HD
ENDBRANCH  25  28
ENDBRANCH   1  22
TORSDOF 3
ENDMDL
MODEL 6
REMARK VINA RESULT:      -8.1      3.089      3.550
REMARK  3 active torsions:
REMARK  status: ('A' for Active; 'I' for Inactive)
REMARK    1  A    between atoms: C_2  and  N_3 
REMARK       I    between atoms: N_6  and  C_7 
REMARK    2  A    between atoms: C_7  and  C_8 
REMARK    3  A    between atoms: C_24  and  O_25 
ROOT
HETATM    1  N   UNL     1      42.801 -17.787   3.520  1.00  0.00    -0.280 NA
HETATM    2  C   UNL     1      41.938 -17.800   4.732  1.00  0.00     0.115 C 
HETATM    3  C   UNL     1      41.572 -16.369   5.170  1.00  0.00     0.141 C 
HETATM    4  N   UNL     1      41.027 -15.572   4.067  1.00  0.00    -0.346 N 
HETATM    5  C   UNL     1      40.173 -14.520   4.394  1.00  0.00     0.256 C 
HETATM    6  O   UNL     1      39.932 -14.189   5.552  1.00  0.00    -0.267 OA
HETATM    7  C   UNL     1      41.888 -15.569   2.873  1.00  0.00     0.141 C 
HETATM    8  C   UNL     1      42.222 -16.998   2.410  1.00  0.00     0.115 C 
ENDROOT
BRANCH   5   9
HETATM    9  C   UNL     1      39.472 -13.802   3.310  1.00  0.00     0.064 A 
HETATM   10  C   UNL     1      39.175 -12.459   3.425  1.00  0.00     0.077 A 
HETATM   11  C   UNL     1      38.487 -11.772   2.422  1.00  0.00     0.065 A 
HETATM   12  N   UNL     1      39.440 -11.549   4.453  1.00  0.00    -0.330 N 
HETATM   13  N   UNL     1      38.338 -10.447   2.827  1.00  0.00    -0.331 N 
HETATM   14  C   UNL     1      38.050 -12.386   1.273  1.00  0.00     0.074 A 
HETATM   15  C   UNL     1      38.913 -10.306   4.097  1.00  0.00     0.176 A 
HETATM   16  H   UNL     1      37.863  -9.710   2.328  1.00  0.00     0.168 HD
HETATM   17  S   UNL     1      38.946  -8.929   5.001  1.00  0.00    -0.041 SA
HETATM   18  C   UNL     1      38.316 -13.751   1.165  1.00  0.00     0.119 A 
HETATM   19  F   UNL     1      37.899 -14.410   0.076  1.00  0.00    -0.206 F 
HETATM   20  C   UNL     1      39.003 -14.462   2.164  1.00  0.00     0.061 A 
HETATM   21  H   UNL     1      39.868 -11.787   5.340  1.00  0.00     0.168 HD
ENDBRANCH   5   9
BRANCH   1  22
HETATM   22  C   UNL     1      43.324 -19.057   3.208  1.00  0.00     0.010 A 
HETATM   23  C   UNL     1      43.045 -19.740   2.014  1.00  0.00     0.026 A 
HETATM   24  C   UNL     1      43.587 -21.004   1.752  1.00  0.00     0.038 A 
HETATM   25  C   UNL     1      44.428 -21.600   2.678  1.00  0.00     0.065 A 
HETATM   26  C   UNL     1      44.743 -20.948   3.862  1.00  0.00     0.038 A 
HETATM   27  C   UNL     1      44.195 -19.685   4.115  1.00  0.00     0.026 A 
BRANCH  25  28
HETATM   28  O   UNL     1      44.930 -22.831   2.384  1.00  0.00    -0.361 OA
HETATM   29  H   UNL     1      44.367 -23.241   1.708  1.00  0.00     0.217 HD
ENDBRANCH  25  28
ENDBRANCH   1  22
TORSDOF 3
ENDMDL
MODEL 7
REMARK VINA RESULT:      -8.0      1.905      2.277
REMARK  3 active torsions:
REMARK  status: ('A' for Active; 'I' for Inactive)
REMARK    1  A    between atoms: C_2  and  N_3 
REMARK       I    between atoms: N_6  and  C_7 
REMARK    2  A    between atoms: C_7  and  C_8 
REMARK    3  A    between atoms: C_24  and  O_25 
ROOT
HETATM    1  N   UNL     1      43.361 -18.088   2.768  1.00  0.00    -0.280 NA
HETATM    2  C   UNL     1      42.176 -17.736   3.596  1.00  0.00     0.115 C 
HETATM    3  C   UNL     1      41.918 -16.217   3.582  1.00  0.00     0.141 C 
HETATM    4  N   UNL     1      41.868 -15.675   2.220  1.00  0.00    -0.346 N 
HETATM    5  C   UNL     1      41.128 -14.512   2.018  1.00  0.00     0.256 C 
HETATM    6  O   UNL     1      40.597 -13.888   2.934  1.00  0.00    -0.267 OA
HETATM    7  C   UNL     1      43.044 -16.033   1.410  1.00  0.00     0.141 C 
HETATM    8  C   UNL     1      43.279 -17.554   1.391  1.00  0.00     0.115 C 
ENDROOT
BRANCH   5   9
HETATM    9  C   UNL     1      40.913 -14.029   0.639  1.00  0.00     0.064 A 
HETATM   10  C   UNL     1      40.995 -12.684   0.337  1.00  0.00     0.077 A 
HETATM   11  C   UNL     1      40.766 -12.208  -0.957  1.00  0.00     0.065 A 
HETATM   12  N   UNL     1      41.279 -11.582   1.147  1.00  0.00    -0.330 N 
HETATM   13  N   UNL     1      40.917 -10.823  -0.942  1.00  0.00    -0.331 N 
HETATM   14  C   UNL     1      40.431 -13.038  -1.999  1.00  0.00     0.074 A 
HETATM   15  C   UNL     1      41.219 -10.425   0.367  1.00  0.00     0.176 A 
HETATM   16  H   UNL     1      40.792 -10.191  -1.719  1.00  0.00     0.168 HD
HETATM   17  S   UNL     1      41.447  -8.877   0.883  1.00  0.00    -0.041 SA
HETATM   18  C   UNL     1      40.313 -14.393  -1.695  1.00  0.00     0.119 A 
HETATM   19  F   UNL     1      39.971 -15.250  -2.666  1.00  0.00    -0.206 F 
HETATM   20  C   UNL     1      40.535 -14.893  -0.399  1.00  0.00     0.061 A 
HETATM   21  H   UNL     1      41.418 -11.621   2.151  1.00  0.00     0.168 HD
ENDBRANCH   5   9
BRANCH   1  22
HETATM   22  C   UNL     1      43.752 -19.433   2.918  1.00  0.00     0.010 A 
HETATM   23  C   UNL     1      43.537 -20.418   1.941  1.00  0.00     0.026 A 
HETATM   24  C   UNL     1      43.942 -21.744   2.140  1.00  0.00     0.038 A 
HETATM   25  C   UNL     1      44.579 -22.102   3.317  1.00  0.00     0.065 A 
HETATM   26  C   UNL     1      44.826 -21.153   4.298  1.00  0.00     0.038 A 
HETATM   27  C   UNL     1      44.416 -19.831   4.091  1.00  0.00     0.026 A 
BRANCH  25  28
HETATM   28  O   UNL     1      44.952 -23.403   3.470  1.00  0.00    -0.361 OA
HETATM   29  H   UNL     1      45.433 -23.489   4.310  1.00  0.00     0.217 HD
ENDBRANCH  25  28
ENDBRANCH   1  22
TORSDOF 3
ENDMDL
MODEL 8
REMARK VINA RESULT:      -7.9      2.240      2.783
REMARK  3 active torsions:
REMARK  status: ('A' for Active; 'I' for Inactive)
REMARK    1  A    between atoms: C_2  and  N_3 
REMARK       I    between atoms: N_6  and  C_7 
REMARK    2  A    between atoms: C_7  and  C_8 
REMARK    3  A    between atoms: C_24  and  O_25 
ROOT
HETATM    1  N   UNL     1      43.189 -16.421   4.089  1.00  0.00    -0.280 NA
HETATM    2  C   UNL     1      43.325 -14.988   4.465  1.00  0.00     0.115 C 
HETATM    3  C   UNL     1      43.360 -14.085   3.218  1.00  0.00     0.141 C 
HETATM    4  N   UNL     1      42.242 -14.352   2.307  1.00  0.00    -0.346 N 
HETATM    5  C   UNL     1      41.828 -13.314   1.476  1.00  0.00     0.256 C 
HETATM    6  O   UNL     1      42.407 -12.231   1.416  1.00  0.00    -0.267 OA
HETATM    7  C   UNL     1      42.117 -15.773   1.944  1.00  0.00     0.141 C 
HETATM    8  C   UNL     1      42.041 -16.673   3.191  1.00  0.00     0.115 C 
ENDROOT
BRANCH   5   9
HETATM    9  C   UNL     1      40.603 -13.486   0.668  1.00  0.00     0.064 A 
HETATM   10  C   UNL     1      40.577 -13.133  -0.666  1.00  0.00     0.077 A 
HETATM   11  C   UNL     1      39.418 -13.263  -1.437  1.00  0.00     0.065 A 
HETATM   12  N   UNL     1      41.575 -12.607  -1.491  1.00  0.00    -0.330 N 
HETATM   13  N   UNL     1      39.705 -12.827  -2.729  1.00  0.00    -0.331 N 
HETATM   14  C   UNL     1      38.236 -13.731  -0.917  1.00  0.00     0.074 A 
HETATM   15  C   UNL     1      41.039 -12.400  -2.765  1.00  0.00     0.176 A 
HETATM   16  H   UNL     1      39.066 -12.777  -3.508  1.00  0.00     0.168 HD
HETATM   17  S   UNL     1      41.820 -11.765  -4.069  1.00  0.00    -0.041 SA
HETATM   18  C   UNL     1      38.244 -14.056   0.439  1.00  0.00     0.119 A 
HETATM   19  F   UNL     1      37.116 -14.500   1.008  1.00  0.00    -0.206 F 
HETATM   20  C   UNL     1      39.398 -13.930   1.233  1.00  0.00     0.061 A 
HETATM   21  H   UNL     1      42.502 -12.341  -1.181  1.00  0.00     0.168 HD
ENDBRANCH   5   9
BRANCH   1  22
HETATM   22  C   UNL     1      43.358 -17.292   5.183  1.00  0.00     0.010 A 
HETATM   23  C   UNL     1      43.833 -18.607   5.063  1.00  0.00     0.026 A 
HETATM   24  C   UNL     1      43.979 -19.435   6.182  1.00  0.00     0.038 A 
HETATM   25  C   UNL     1      43.663 -18.955   7.443  1.00  0.00     0.065 A 
HETATM   26  C   UNL     1      43.208 -17.654   7.605  1.00  0.00     0.038 A 
HETATM   27  C   UNL     1      43.063 -16.834   6.480  1.00  0.00     0.026 A 
BRANCH  25  28
HETATM   28  O   UNL     1      43.817 -19.795   8.504  1.00  0.00    -0.361 OA
HETATM   29  H   UNL     1      43.167 -20.513   8.426  1.00  0.00     0.217 HD
ENDBRANCH  25  28
ENDBRANCH   1  22
TORSDOF 3
ENDMDL
MODEL 9
REMARK VINA RESULT:      -7.9      4.343      7.925
REMARK  3 active torsions:
REMARK  status: ('A' for Active; 'I' for Inactive)
REMARK    1  A    between atoms: C_2  and  N_3 
REMARK       I    between atoms: N_6  and  C_7 
REMARK    2  A    between atoms: C_7  and  C_8 
REMARK    3  A    between atoms: C_24  and  O_25 
ROOT
HETATM    1  N   UNL     1      40.319 -14.312  -0.237  1.00  0.00    -0.280 NA
HETATM    2  C   UNL     1      41.709 -13.798  -0.374  1.00  0.00     0.115 C 
HETATM    3  C   UNL     1      42.237 -13.255   0.967  1.00  0.00     0.141 C 
HETATM    4  N   UNL     1      42.069 -14.216   2.061  1.00  0.00    -0.346 N 
HETATM    5  C   UNL     1      42.947 -14.122   3.139  1.00  0.00     0.256 C 
HETATM    6  O   UNL     1      43.784 -13.229   3.246  1.00  0.00    -0.267 OA
HETATM    7  C   UNL     1      40.692 -14.719   2.185  1.00  0.00     0.141 C 
HETATM    8  C   UNL     1      40.178 -15.300   0.856  1.00  0.00     0.115 C 
ENDROOT
BRANCH   5   9
HETATM    9  C   UNL     1      42.922 -15.172   4.178  1.00  0.00     0.064 A 
HETATM   10  C   UNL     1      43.373 -14.915   5.457  1.00  0.00     0.077 A 
HETATM   11  C   UNL     1      43.383 -15.906   6.444  1.00  0.00     0.065 A 
HETATM   12  N   UNL     1      43.887 -13.748   6.028  1.00  0.00    -0.330 N 
HETATM   13  N   UNL     1      43.892 -15.347   7.614  1.00  0.00    -0.331 N 
HETATM   14  C   UNL     1      42.963 -17.191   6.202  1.00  0.00     0.074 A 
HETATM   15  C   UNL     1      44.224 -14.010   7.358  1.00  0.00     0.176 A 
HETATM   16  H   UNL     1      44.044 -15.817   8.494  1.00  0.00     0.168 HD
HETATM   17  S   UNL     1      44.897 -12.954   8.428  1.00  0.00    -0.041 SA
HETATM   18  C   UNL     1      42.539 -17.467   4.903  1.00  0.00     0.119 A 
HETATM   19  F   UNL     1      42.135 -18.708   4.601  1.00  0.00    -0.206 F 
HETATM   20  C   UNL     1      42.524 -16.487   3.895  1.00  0.00     0.061 A 
HETATM   21  H   UNL     1      44.062 -12.886   5.524  1.00  0.00     0.168 HD
ENDBRANCH   5   9
BRANCH   1  22
HETATM   22  C   UNL     1      39.729 -14.629  -1.476  1.00  0.00     0.010 A 
HETATM   23  C   UNL     1      40.348 -15.426  -2.451  1.00  0.00     0.026 A 
HETATM   24  C   UNL     1      39.720 -15.709  -3.670  1.00  0.00     0.038 A 
HETATM   25  C   UNL     1      38.454 -15.205  -3.927  1.00  0.00     0.065 A 
HETATM   26  C   UNL     1      37.801 -14.429  -2.981  1.00  0.00     0.038 A 
HETATM   27  C   UNL     1      38.439 -14.150  -1.766  1.00  0.00     0.026 A 
BRANCH  25  28
HETATM   28  O   UNL     1      37.881 -15.502  -5.127  1.00  0.00    -0.361 OA
HETATM   29  H   UNL     1      37.043 -15.016  -5.197  1.00  0.00     0.217 HD
ENDBRANCH  25  28
ENDBRANCH   1  22
TORSDOF 3
ENDMDL
MODEL 10
REMARK VINA RESULT:      -7.8      3.094      3.850
REMARK  3 active torsions:
REMARK  status: ('A' for Active; 'I' for Inactive)
REMARK    1  A    between atoms: C_2  and  N_3 
REMARK       I    between atoms: N_6  and  C_7 
REMARK    2  A    between atoms: C_7  and  C_8 
REMARK    3  A    between atoms: C_24  and  O_25 
ROOT
HETATM    1  N   UNL     1      42.121 -17.486   4.387  1.00  0.00    -0.280 NA
HETATM    2  C   UNL     1      43.021 -17.772   3.237  1.00  0.00     0.115 C 
HETATM    3  C   UNL     1      42.289 -17.582   1.895  1.00  0.00     0.141 C 
HETATM    4  N   UNL     1      41.617 -16.281   1.809  1.00  0.00    -0.346 N 
HETATM    5  C   UNL     1      41.407 -15.750   0.538  1.00  0.00     0.256 C 
HETATM    6  O   UNL     1      41.679 -16.356  -0.495  1.00  0.00    -0.267 OA
HETATM    7  C   UNL     1      40.732 -16.008   2.953  1.00  0.00     0.141 C 
HETATM    8  C   UNL     1      41.474 -16.159   4.293  1.00  0.00     0.115 C 
ENDROOT
BRANCH   5   9
HETATM    9  C   UNL     1      40.889 -14.372   0.413  1.00  0.00     0.064 A 
HETATM   10  C   UNL     1      39.949 -14.051  -0.546  1.00  0.00     0.077 A 
HETATM   11  C   UNL     1      39.471 -12.746  -0.696  1.00  0.00     0.065 A 
HETATM   12  N   UNL     1      39.318 -14.844  -1.508  1.00  0.00    -0.330 N 
HETATM   13  N   UNL     1      38.545 -12.741  -1.737  1.00  0.00    -0.331 N 
HETATM   14  C   UNL     1      39.912 -11.705   0.084  1.00  0.00     0.074 A 
HETATM   15  C   UNL     1      38.459 -14.039  -2.259  1.00  0.00     0.176 A 
HETATM   16  H   UNL     1      38.045 -11.943  -2.100  1.00  0.00     0.168 HD
HETATM   17  S   UNL     1      37.524 -14.514  -3.529  1.00  0.00    -0.041 SA
HETATM   18  C   UNL     1      40.887 -12.014   1.031  1.00  0.00     0.119 A 
HETATM   19  F   UNL     1      41.371 -11.037   1.809  1.00  0.00    -0.206 F 
HETATM   20  C   UNL     1      41.385 -13.319   1.197  1.00  0.00     0.061 A 
HETATM   21  H   UNL     1      39.524 -15.822  -1.678  1.00  0.00     0.168 HD
ENDBRANCH   5   9
BRANCH   1  22
HETATM   22  C   UNL     1      42.687 -17.844   5.626  1.00  0.00     0.010 A 
HETATM   23  C   UNL     1      43.356 -19.056   5.853  1.00  0.00     0.026 A 
HETATM   24  C   UNL     1      43.899 -19.367   7.106  1.00  0.00     0.038 A 
HETATM   25  C   UNL     1      43.789 -18.462   8.150  1.00  0.00     0.065 A 
HETATM   26  C   UNL     1      43.152 -17.244   7.959  1.00  0.00     0.038 A 
HETATM   27  C   UNL     1      42.611 -16.943   6.703  1.00  0.00     0.026 A 
BRANCH  25  28
HETATM   28  O   UNL     1      44.328 -18.806   9.353  1.00  0.00    -0.361 OA
HETATM   29  H   UNL     1      44.390 -19.774   9.398  1.00  0.00     0.217 HD
ENDBRANCH  25  28
ENDBRANCH   1  22
TORSDOF 3
ENDMDL
