MODEL 1
REMARK VINA RESULT:      -9.0      0.000      0.000
REMARK  5 active torsions:
REMARK  status: ('A' for Active; 'I' for Inactive)
REMARK    1  A    between atoms: C_2  and  C_3 
REMARK    2  A    between atoms: C_6  and  N_7 
REMARK       I    between atoms: N_7  and  C_8 
REMARK    3  A    between atoms: C_8  and  C_9 
REMARK    4  A    between atoms: C_17  and  C_18 
REMARK    5  A    between atoms: C_21  and  O_22 
ROOT
HETATM    1  C   UNL     1      42.350 -17.427   2.462  1.00  0.00     0.047 A 
HETATM    2  C   UNL     1      43.092 -18.618   2.654  1.00  0.00     0.008 A 
HETATM    3  C   UNL     1      43.802 -18.706   3.863  1.00  0.00     0.068 A 
HETATM    4  C   UNL     1      44.521 -19.860   4.141  1.00  0.00     0.032 A 
HETATM    5  C   UNL     1      44.590 -20.926   3.243  1.00  0.00     0.002 A 
HETATM    6  C   UNL     1      43.937 -20.836   2.024  1.00  0.00     0.001 A 
HETATM    7  C   UNL     1      43.201 -19.691   1.726  1.00  0.00     0.015 A 
HETATM    8  N   UNL     1      43.840 -17.712   4.764  1.00  0.00    -0.248 NA
HETATM    9  C   UNL     1      43.204 -16.540   4.517  1.00  0.00     0.068 A 
HETATM   10  C   UNL     1      42.423 -16.379   3.385  1.00  0.00     0.050 A 
ENDROOT
BRANCH   1  11
HETATM   11  C   UNL     1      41.505 -17.181   1.263  1.00  0.00     0.257 C 
HETATM   12  N   UNL     1      41.801 -16.023   0.566  1.00  0.00    -0.323 N 
HETATM   13  H   UNL     1      42.607 -15.494   0.880  1.00  0.00     0.169 HD
HETATM   14  O   UNL     1      40.651 -18.013   0.986  1.00  0.00    -0.267 OA
BRANCH  12  15
HETATM   15  C   UNL     1      41.028 -15.428  -0.454  1.00  0.00     0.035 A 
HETATM   16  C   UNL     1      41.125 -15.769  -1.803  1.00  0.00     0.030 A 
HETATM   17  C   UNL     1      40.259 -15.201  -2.744  1.00  0.00     0.017 A 
HETATM   18  C   UNL     1      39.271 -14.297  -2.341  1.00  0.00     0.009 A 
HETATM   19  C   UNL     1      39.193 -13.921  -0.998  1.00  0.00     0.017 A 
HETATM   20  C   UNL     1      40.074 -14.480  -0.062  1.00  0.00     0.030 A 
BRANCH  18  21
HETATM   21  C   UNL     1      38.324 -13.774  -3.363  1.00  0.00     0.155 C 
HETATM   22  C   UNL     1      37.303 -14.715  -3.948  1.00  0.00     0.096 C 
HETATM   23  O   UNL     1      38.395 -12.600  -3.718  1.00  0.00    -0.293 OA
ENDBRANCH  18  21
ENDBRANCH  12  15
ENDBRANCH   1  11
BRANCH   9  24
HETATM   24  C   UNL     1      43.443 -15.467   5.506  1.00  0.00    -0.007 A 
HETATM   25  C   UNL     1      42.796 -14.220   5.434  1.00  0.00     0.016 A 
HETATM   26  C   UNL     1      43.082 -13.198   6.347  1.00  0.00     0.037 A 
HETATM   27  C   UNL     1      44.028 -13.383   7.354  1.00  0.00     0.068 A 
HETATM   28  C   UNL     1      44.669 -14.614   7.458  1.00  0.00     0.037 A 
HETATM   29  C   UNL     1      44.379 -15.637   6.544  1.00  0.00     0.016 A 
BRANCH  27  30
HETATM   30  O   UNL     1      44.230 -12.299   8.161  1.00  0.00    -0.356 OA
HETATM   31  C   UNL     1      45.433 -12.284   8.919  1.00  0.00     0.210 C 
ENDBRANCH  27  30
ENDBRANCH   9  24
TORSDOF 5
ENDMDL
MODEL 2
REMARK VINA RESULT:      -8.9      3.494      7.082
REMARK  5 active torsions:
REMARK  status: ('A' for Active; 'I' for Inactive)
REMARK    1  A    between atoms: C_2  and  C_3 
REMARK    2  A    between atoms: C_6  and  N_7 
REMARK       I    between atoms: N_7  and  C_8 
REMARK    3  A    between atoms: C_8  and  C_9 
REMARK    4  A    between atoms: C_17  and  C_18 
REMARK    5  A    between atoms: C_21  and  O_22 
ROOT
HETATM    1  C   UNL     1      40.766 -14.935   4.476  1.00  0.00     0.047 A 
HETATM    2  C   UNL     1      40.009 -14.475   3.371  1.00  0.00     0.008 A 
HETATM    3  C   UNL     1      39.589 -13.136   3.434  1.00  0.00     0.068 A 
HETATM    4  C   UNL     1      38.875 -12.602   2.370  1.00  0.00     0.032 A 
HETATM    5  C   UNL     1      38.533 -13.361   1.250  1.00  0.00     0.002 A 
HETATM    6  C   UNL     1      38.896 -14.697   1.193  1.00  0.00     0.001 A 
HETATM    7  C   UNL     1      39.619 -15.254   2.246  1.00  0.00     0.015 A 
HETATM    8  N   UNL     1      39.823 -12.344   4.491  1.00  0.00    -0.248 NA
HETATM    9  C   UNL     1      40.464 -12.832   5.583  1.00  0.00     0.068 A 
HETATM   10  C   UNL     1      40.975 -14.118   5.591  1.00  0.00     0.050 A 
ENDROOT
BRANCH   1  11
HETATM   11  C   UNL     1      41.330 -16.308   4.559  1.00  0.00     0.257 C 
HETATM   12  N   UNL     1      42.408 -16.549   3.726  1.00  0.00    -0.323 N 
HETATM   13  H   UNL     1      42.766 -15.759   3.202  1.00  0.00     0.169 HD
HETATM   14  O   UNL     1      40.819 -17.088   5.352  1.00  0.00    -0.267 OA
BRANCH  12  15
HETATM   15  C   UNL     1      42.984 -17.802   3.429  1.00  0.00     0.035 A 
HETATM   16  C   UNL     1      43.870 -18.473   4.273  1.00  0.00     0.030 A 
HETATM   17  C   UNL     1      44.326 -19.756   3.950  1.00  0.00     0.017 A 
HETATM   18  C   UNL     1      43.886 -20.391   2.785  1.00  0.00     0.009 A 
HETATM   19  C   UNL     1      43.031 -19.711   1.915  1.00  0.00     0.017 A 
HETATM   20  C   UNL     1      42.590 -18.420   2.234  1.00  0.00     0.030 A 
BRANCH  18  21
HETATM   21  C   UNL     1      44.339 -21.784   2.519  1.00  0.00     0.155 C 
HETATM   22  C   UNL     1      44.695 -22.663   3.689  1.00  0.00     0.096 C 
HETATM   23  O   UNL     1      44.424 -22.187   1.361  1.00  0.00    -0.293 OA
ENDBRANCH  18  21
ENDBRANCH  12  15
ENDBRANCH   1  11
BRANCH   9  24
HETATM   24  C   UNL     1      40.529 -11.917   6.743  1.00  0.00    -0.007 A 
HETATM   25  C   UNL     1      41.673 -11.154   7.035  1.00  0.00     0.016 A 
HETATM   26  C   UNL     1      41.734 -10.339   8.172  1.00  0.00     0.037 A 
HETATM   27  C   UNL     1      40.660 -10.267   9.058  1.00  0.00     0.068 A 
HETATM   28  C   UNL     1      39.509 -10.999   8.782  1.00  0.00     0.037 A 
HETATM   29  C   UNL     1      39.450 -11.812   7.641  1.00  0.00     0.016 A 
BRANCH  27  30
HETATM   30  O   UNL     1      40.859  -9.455  10.140  1.00  0.00    -0.356 OA
HETATM   31  C   UNL     1      39.999  -9.656  11.254  1.00  0.00     0.210 C 
ENDBRANCH  27  30
ENDBRANCH   9  24
TORSDOF 5
ENDMDL
MODEL 3
REMARK VINA RESULT:      -8.8      1.611      8.592
REMARK  5 active torsions:
REMARK  status: ('A' for Active; 'I' for Inactive)
REMARK    1  A    between atoms: C_2  and  C_3 
REMARK    2  A    between atoms: C_6  and  N_7 
REMARK       I    between atoms: N_7  and  C_8 
REMARK    3  A    between atoms: C_8  and  C_9 
REMARK    4  A    between atoms: C_17  and  C_18 
REMARK    5  A    between atoms: C_21  and  O_22 
ROOT
HETATM    1  C   UNL     1      42.758 -16.426   3.810  1.00  0.00     0.047 A 
HETATM    2  C   UNL     1      43.263 -17.716   3.515  1.00  0.00     0.008 A 
HETATM    3  C   UNL     1      43.121 -18.137   2.183  1.00  0.00     0.068 A 
HETATM    4  C   UNL     1      43.627 -19.375   1.808  1.00  0.00     0.032 A 
HETATM    5  C   UNL     1      44.245 -20.231   2.720  1.00  0.00     0.002 A 
HETATM    6  C   UNL     1      44.350 -19.853   4.050  1.00  0.00     0.001 A 
HETATM    7  C   UNL     1      43.857 -18.612   4.448  1.00  0.00     0.015 A 
HETATM    8  N   UNL     1      42.494 -17.409   1.247  1.00  0.00    -0.248 NA
HETATM    9  C   UNL     1      41.929 -16.219   1.572  1.00  0.00     0.068 A 
HETATM   10  C   UNL     1      42.073 -15.686   2.842  1.00  0.00     0.050 A 
ENDROOT
BRANCH   1  11
HETATM   11  C   UNL     1      42.863 -15.801   5.155  1.00  0.00     0.257 C 
HETATM   12  N   UNL     1      43.433 -14.541   5.172  1.00  0.00    -0.323 N 
HETATM   13  H   UNL     1      43.651 -14.126   4.274  1.00  0.00     0.169 HD
HETATM   14  O   UNL     1      42.427 -16.430   6.111  1.00  0.00    -0.267 OA
BRANCH  12  15
HETATM   15  C   UNL     1      43.863 -13.822   6.308  1.00  0.00     0.035 A 
HETATM   16  C   UNL     1      45.119 -13.975   6.897  1.00  0.00     0.030 A 
HETATM   17  C   UNL     1      45.507 -13.158   7.966  1.00  0.00     0.017 A 
HETATM   18  C   UNL     1      44.648 -12.165   8.444  1.00  0.00     0.009 A 
HETATM   19  C   UNL     1      43.374 -12.031   7.885  1.00  0.00     0.017 A 
HETATM   20  C   UNL     1      42.984 -12.863   6.828  1.00  0.00     0.030 A 
BRANCH  18  21
HETATM   21  C   UNL     1      45.130 -11.270   9.532  1.00  0.00     0.155 C 
HETATM   22  C   UNL     1      44.427 -11.310  10.863  1.00  0.00     0.096 C 
HETATM   23  O   UNL     1      46.076 -10.513   9.326  1.00  0.00    -0.293 OA
ENDBRANCH  18  21
ENDBRANCH  12  15
ENDBRANCH   1  11
BRANCH   9  24
HETATM   24  C   UNL     1      41.135 -15.579   0.500  1.00  0.00    -0.007 A 
HETATM   25  C   UNL     1      41.359 -15.844  -0.862  1.00  0.00     0.016 A 
HETATM   26  C   UNL     1      40.635 -15.182  -1.861  1.00  0.00     0.037 A 
HETATM   27  C   UNL     1      39.673 -14.228  -1.533  1.00  0.00     0.068 A 
HETATM   28  C   UNL     1      39.419 -13.961  -0.192  1.00  0.00     0.037 A 
HETATM   29  C   UNL     1      40.144 -14.627   0.807  1.00  0.00     0.016 A 
BRANCH  27  30
HETATM   30  O   UNL     1      39.058 -13.640  -2.603  1.00  0.00    -0.356 OA
HETATM   31  C   UNL     1      38.394 -14.507  -3.513  1.00  0.00     0.210 C 
ENDBRANCH  27  30
ENDBRANCH   9  24
TORSDOF 5
ENDMDL
MODEL 4
REMARK VINA RESULT:      -8.7      2.995      8.764
REMARK  5 active torsions:
REMARK  status: ('A' for Active; 'I' for Inactive)
REMARK    1  A    between atoms: C_2  and  C_3 
REMARK    2  A    between atoms: C_6  and  N_7 
REMARK       I    between atoms: N_7  and  C_8 
REMARK    3  A    between atoms: C_8  and  C_9 
REMARK    4  A    between atoms: C_17  and  C_18 
REMARK    5  A    between atoms: C_21  and  O_22 
ROOT
HETATM    1  C   UNL     1      41.749 -14.590   2.453  1.00  0.00     0.047 A 
HETATM    2  C   UNL     1      41.504 -13.532   3.362  1.00  0.00     0.008 A 
HETATM    3  C   UNL     1      41.328 -12.263   2.787  1.00  0.00     0.068 A 
HETATM    4  C   UNL     1      41.046 -11.182   3.612  1.00  0.00     0.032 A 
HETATM    5  C   UNL     1      40.962 -11.308   4.999  1.00  0.00     0.002 A 
HETATM    6  C   UNL     1      41.182 -12.543   5.587  1.00  0.00     0.001 A 
HETATM    7  C   UNL     1      41.460 -13.644   4.780  1.00  0.00     0.015 A 
HETATM    8  N   UNL     1      41.443 -12.032   1.471  1.00  0.00    -0.248 NA
HETATM    9  C   UNL     1      41.776 -13.040   0.627  1.00  0.00     0.068 A 
HETATM   10  C   UNL     1      41.905 -14.340   1.087  1.00  0.00     0.050 A 
ENDROOT
BRANCH   1  11
HETATM   11  C   UNL     1      41.915 -16.005   2.879  1.00  0.00     0.257 C 
HETATM   12  N   UNL     1      43.222 -16.456   2.912  1.00  0.00    -0.323 N 
HETATM   13  H   UNL     1      43.946 -15.773   2.725  1.00  0.00     0.169 HD
HETATM   14  O   UNL     1      40.907 -16.633   3.178  1.00  0.00    -0.267 OA
BRANCH  12  15
HETATM   15  C   UNL     1      43.652 -17.794   3.050  1.00  0.00     0.035 A 
HETATM   16  C   UNL     1      44.099 -18.347   4.250  1.00  0.00     0.030 A 
HETATM   17  C   UNL     1      44.422 -19.707   4.329  1.00  0.00     0.017 A 
HETATM   18  C   UNL     1      44.281 -20.533   3.210  1.00  0.00     0.009 A 
HETATM   19  C   UNL     1      43.871 -19.978   1.995  1.00  0.00     0.017 A 
HETATM   20  C   UNL     1      43.567 -18.613   1.917  1.00  0.00     0.030 A 
BRANCH  18  21
HETATM   21  C   UNL     1      44.564 -21.987   3.358  1.00  0.00     0.155 C 
HETATM   22  C   UNL     1      44.802 -22.539   4.739  1.00  0.00     0.096 C 
HETATM   23  O   UNL     1      44.609 -22.705   2.361  1.00  0.00    -0.293 OA
ENDBRANCH  18  21
ENDBRANCH  12  15
ENDBRANCH   1  11
BRANCH   9  24
HETATM   24  C   UNL     1      42.024 -12.639  -0.775  1.00  0.00    -0.007 A 
HETATM   25  C   UNL     1      42.568 -11.388  -1.114  1.00  0.00     0.016 A 
HETATM   26  C   UNL     1      42.740 -11.006  -2.450  1.00  0.00     0.037 A 
HETATM   27  C   UNL     1      42.364 -11.856  -3.490  1.00  0.00     0.068 A 
HETATM   28  C   UNL     1      41.840 -13.107  -3.181  1.00  0.00     0.037 A 
HETATM   29  C   UNL     1      41.672 -13.488  -1.842  1.00  0.00     0.016 A 
BRANCH  27  30
HETATM   30  O   UNL     1      42.561 -11.352  -4.745  1.00  0.00    -0.356 OA
HETATM   31  C   UNL     1      41.815 -10.192  -5.090  1.00  0.00     0.210 C 
ENDBRANCH  27  30
ENDBRANCH   9  24
TORSDOF 5
ENDMDL
MODEL 5
REMARK VINA RESULT:      -8.6      3.107      7.783
REMARK  5 active torsions:
REMARK  status: ('A' for Active; 'I' for Inactive)
REMARK    1  A    between atoms: C_2  and  C_3 
REMARK    2  A    between atoms: C_6  and  N_7 
REMARK       I    between atoms: N_7  and  C_8 
REMARK    3  A    between atoms: C_8  and  C_9 
REMARK    4  A    between atoms: C_17  and  C_18 
REMARK    5  A    between atoms: C_21  and  O_22 
ROOT
HETATM    1  C   UNL     1      42.601 -14.983   2.618  1.00  0.00     0.047 A 
HETATM    2  C   UNL     1      42.061 -14.859   1.315  1.00  0.00     0.008 A 
HETATM    3  C   UNL     1      41.885 -16.062   0.611  1.00  0.00     0.068 A 
HETATM    4  C   UNL     1      41.323 -16.025  -0.659  1.00  0.00     0.032 A 
HETATM    5  C   UNL     1      40.957 -14.827  -1.273  1.00  0.00     0.002 A 
HETATM    6  C   UNL     1      41.169 -13.627  -0.614  1.00  0.00     0.001 A 
HETATM    7  C   UNL     1      41.724 -13.640   0.664  1.00  0.00     0.015 A 
HETATM    8  N   UNL     1      42.256 -17.256   1.096  1.00  0.00    -0.248 NA
HETATM    9  C   UNL     1      42.863 -17.344   2.306  1.00  0.00     0.068 A 
HETATM   10  C   UNL     1      43.021 -16.224   3.105  1.00  0.00     0.050 A 
ENDROOT
BRANCH   1  11
HETATM   11  C   UNL     1      42.814 -13.822   3.522  1.00  0.00     0.257 C 
HETATM   12  N   UNL     1      41.690 -13.403   4.210  1.00  0.00    -0.323 N 
HETATM   13  H   UNL     1      40.853 -13.964   4.105  1.00  0.00     0.169 HD
HETATM   14  O   UNL     1      43.944 -13.356   3.596  1.00  0.00    -0.267 OA
BRANCH  12  15
HETATM   15  C   UNL     1      41.544 -12.206   4.944  1.00  0.00     0.035 A 
HETATM   16  C   UNL     1      41.704 -12.116   6.327  1.00  0.00     0.030 A 
HETATM   17  C   UNL     1      41.635 -10.875   6.972  1.00  0.00     0.017 A 
HETATM   18  C   UNL     1      41.424  -9.706   6.235  1.00  0.00     0.009 A 
HETATM   19  C   UNL     1      41.225  -9.792   4.855  1.00  0.00     0.017 A 
HETATM   20  C   UNL     1      41.277 -11.038   4.217  1.00  0.00     0.030 A 
BRANCH  18  21
HETATM   21  C   UNL     1      41.433  -8.401   6.951  1.00  0.00     0.155 C 
HETATM   22  C   UNL     1      40.735  -8.305   8.282  1.00  0.00     0.096 C 
HETATM   23  O   UNL     1      41.992  -7.431   6.445  1.00  0.00    -0.293 OA
ENDBRANCH  18  21
ENDBRANCH  12  15
ENDBRANCH   1  11
BRANCH   9  24
HETATM   24  C   UNL     1      43.365 -18.687   2.669  1.00  0.00    -0.007 A 
HETATM   25  C   UNL     1      44.037 -18.936   3.879  1.00  0.00     0.016 A 
HETATM   26  C   UNL     1      44.556 -20.203   4.176  1.00  0.00     0.037 A 
HETATM   27  C   UNL     1      44.430 -21.256   3.271  1.00  0.00     0.068 A 
HETATM   28  C   UNL     1      43.754 -21.039   2.075  1.00  0.00     0.037 A 
HETATM   29  C   UNL     1      43.233 -19.771   1.781  1.00  0.00     0.016 A 
BRANCH  27  30
HETATM   30  O   UNL     1      45.002 -22.431   3.672  1.00  0.00    -0.356 OA
HETATM   31  C   UNL     1      45.149 -22.623   5.074  1.00  0.00     0.210 C 
ENDBRANCH  27  30
ENDBRANCH   9  24
TORSDOF 5
ENDMDL
MODEL 6
REMARK VINA RESULT:      -8.4      2.159      5.484
REMARK  5 active torsions:
REMARK  status: ('A' for Active; 'I' for Inactive)
REMARK    1  A    between atoms: C_2  and  C_3 
REMARK    2  A    between atoms: C_6  and  N_7 
REMARK       I    between atoms: N_7  and  C_8 
REMARK    3  A    between atoms: C_8  and  C_9 
REMARK    4  A    between atoms: C_17  and  C_18 
REMARK    5  A    between atoms: C_21  and  O_22 
ROOT
HETATM    1  C   UNL     1      42.305 -14.809   2.396  1.00  0.00     0.047 A 
HETATM    2  C   UNL     1      42.449 -14.243   3.686  1.00  0.00     0.008 A 
HETATM    3  C   UNL     1      43.059 -15.065   4.648  1.00  0.00     0.068 A 
HETATM    4  C   UNL     1      43.271 -14.565   5.927  1.00  0.00     0.032 A 
HETATM    5  C   UNL     1      42.867 -13.282   6.298  1.00  0.00     0.002 A 
HETATM    6  C   UNL     1      42.218 -12.476   5.377  1.00  0.00     0.001 A 
HETATM    7  C   UNL     1      42.002 -12.952   4.086  1.00  0.00     0.015 A 
HETATM    8  N   UNL     1      43.433 -16.329   4.401  1.00  0.00    -0.248 NA
HETATM    9  C   UNL     1      43.196 -16.887   3.187  1.00  0.00     0.068 A 
HETATM   10  C   UNL     1      42.660 -16.139   2.153  1.00  0.00     0.050 A 
ENDROOT
BRANCH   1  11
HETATM   11  C   UNL     1      41.723 -14.069   1.246  1.00  0.00     0.257 C 
HETATM   12  N   UNL     1      40.449 -14.465   0.880  1.00  0.00    -0.323 N 
HETATM   13  H   UNL     1      39.998 -15.156   1.468  1.00  0.00     0.169 HD
HETATM   14  O   UNL     1      42.394 -13.178   0.741  1.00  0.00    -0.267 OA
BRANCH  12  15
HETATM   15  C   UNL     1      39.757 -14.108  -0.297  1.00  0.00     0.035 A 
HETATM   16  C   UNL     1      40.092 -14.571  -1.570  1.00  0.00     0.030 A 
HETATM   17  C   UNL     1      39.300 -14.245  -2.676  1.00  0.00     0.017 A 
HETATM   18  C   UNL     1      38.150 -13.466  -2.518  1.00  0.00     0.009 A 
HETATM   19  C   UNL     1      37.829 -12.966  -1.254  1.00  0.00     0.017 A 
HETATM   20  C   UNL     1      38.635 -13.280  -0.152  1.00  0.00     0.030 A 
BRANCH  18  21
HETATM   21  C   UNL     1      37.296 -13.206  -3.710  1.00  0.00     0.155 C 
HETATM   22  C   UNL     1      36.630 -14.374  -4.388  1.00  0.00     0.096 C 
HETATM   23  O   UNL     1      37.158 -12.057  -4.124  1.00  0.00    -0.293 OA
ENDBRANCH  18  21
ENDBRANCH  12  15
ENDBRANCH   1  11
BRANCH   9  24
HETATM   24  C   UNL     1      43.509 -18.329   3.079  1.00  0.00    -0.007 A 
HETATM   25  C   UNL     1      44.243 -19.014   4.063  1.00  0.00     0.016 A 
HETATM   26  C   UNL     1      44.578 -20.366   3.911  1.00  0.00     0.037 A 
HETATM   27  C   UNL     1      44.201 -21.071   2.769  1.00  0.00     0.068 A 
HETATM   28  C   UNL     1      43.459 -20.420   1.789  1.00  0.00     0.037 A 
HETATM   29  C   UNL     1      43.122 -19.068   1.945  1.00  0.00     0.016 A 
BRANCH  27  30
HETATM   30  O   UNL     1      44.613 -22.374   2.735  1.00  0.00    -0.356 OA
HETATM   31  C   UNL     1      44.790 -23.020   3.990  1.00  0.00     0.210 C 
ENDBRANCH  27  30
ENDBRANCH   9  24
TORSDOF 5
ENDMDL
MODEL 7
REMARK VINA RESULT:      -8.3      3.396      6.002
REMARK  5 active torsions:
REMARK  status: ('A' for Active; 'I' for Inactive)
REMARK    1  A    between atoms: C_2  and  C_3 
REMARK    2  A    between atoms: C_6  and  N_7 
REMARK       I    between atoms: N_7  and  C_8 
REMARK    3  A    between atoms: C_8  and  C_9 
REMARK    4  A    between atoms: C_17  and  C_18 
REMARK    5  A    between atoms: C_21  and  O_22 
ROOT
HETATM    1  C   UNL     1      41.356 -14.928   1.828  1.00  0.00     0.047 A 
HETATM    2  C   UNL     1      40.859 -14.462   3.069  1.00  0.00     0.008 A 
HETATM    3  C   UNL     1      41.235 -15.211   4.197  1.00  0.00     0.068 A 
HETATM    4  C   UNL     1      40.819 -14.793   5.454  1.00  0.00     0.032 A 
HETATM    5  C   UNL     1      40.012 -13.669   5.633  1.00  0.00     0.002 A 
HETATM    6  C   UNL     1      39.591 -12.946   4.528  1.00  0.00     0.001 A 
HETATM    7  C   UNL     1      40.002 -13.342   3.257  1.00  0.00     0.015 A 
HETATM    8  N   UNL     1      41.963 -16.335   4.121  1.00  0.00    -0.248 NA
HETATM    9  C   UNL     1      42.345 -16.821   2.913  1.00  0.00     0.068 A 
HETATM   10  C   UNL     1      42.082 -16.120   1.749  1.00  0.00     0.050 A 
ENDROOT
BRANCH   1  11
HETATM   11  C   UNL     1      41.097 -14.236   0.538  1.00  0.00     0.257 C 
HETATM   12  N   UNL     1      42.110 -13.397   0.110  1.00  0.00    -0.323 N 
HETATM   13  H   UNL     1      42.961 -13.390   0.661  1.00  0.00     0.169 HD
HETATM   14  O   UNL     1      40.042 -14.474  -0.036  1.00  0.00    -0.267 OA
BRANCH  12  15
HETATM   15  C   UNL     1      42.043 -12.453  -0.936  1.00  0.00     0.035 A 
HETATM   16  C   UNL     1      41.591 -11.143  -0.776  1.00  0.00     0.030 A 
HETATM   17  C   UNL     1      41.642 -10.237  -1.842  1.00  0.00     0.017 A 
HETATM   18  C   UNL     1      42.164 -10.629  -3.078  1.00  0.00     0.009 A 
HETATM   19  C   UNL     1      42.582 -11.950  -3.258  1.00  0.00     0.017 A 
HETATM   20  C   UNL     1      42.513 -12.857  -2.193  1.00  0.00     0.030 A 
BRANCH  18  21
HETATM   21  C   UNL     1      42.268  -9.614  -4.162  1.00  0.00     0.155 C 
HETATM   22  C   UNL     1      42.040 -10.052  -5.585  1.00  0.00     0.096 C 
HETATM   23  O   UNL     1      42.545  -8.449  -3.883  1.00  0.00    -0.293 OA
ENDBRANCH  18  21
ENDBRANCH  12  15
ENDBRANCH   1  11
BRANCH   9  24
HETATM   24  C   UNL     1      43.009 -18.143   2.941  1.00  0.00    -0.007 A 
HETATM   25  C   UNL     1      42.913 -19.055   1.876  1.00  0.00     0.016 A 
HETATM   26  C   UNL     1      43.500 -20.324   1.949  1.00  0.00     0.037 A 
HETATM   27  C   UNL     1      44.191 -20.727   3.091  1.00  0.00     0.068 A 
HETATM   28  C   UNL     1      44.315 -19.836   4.152  1.00  0.00     0.037 A 
HETATM   29  C   UNL     1      43.729 -18.565   4.075  1.00  0.00     0.016 A 
BRANCH  27  30
HETATM   30  O   UNL     1      44.693 -21.997   3.042  1.00  0.00    -0.356 OA
HETATM   31  C   UNL     1      44.719 -22.720   4.267  1.00  0.00     0.210 C 
ENDBRANCH  27  30
ENDBRANCH   9  24
TORSDOF 5
ENDMDL
MODEL 8
REMARK VINA RESULT:      -8.3      1.791      2.695
REMARK  5 active torsions:
REMARK  status: ('A' for Active; 'I' for Inactive)
REMARK    1  A    between atoms: C_2  and  C_3 
REMARK    2  A    between atoms: C_6  and  N_7 
REMARK       I    between atoms: N_7  and  C_8 
REMARK    3  A    between atoms: C_8  and  C_9 
REMARK    4  A    between atoms: C_17  and  C_18 
REMARK    5  A    between atoms: C_21  and  O_22 
ROOT
HETATM    1  C   UNL     1      42.863 -15.963   4.386  1.00  0.00     0.047 A 
HETATM    2  C   UNL     1      43.478 -17.204   4.685  1.00  0.00     0.008 A 
HETATM    3  C   UNL     1      44.274 -17.228   5.842  1.00  0.00     0.068 A 
HETATM    4  C   UNL     1      44.878 -18.419   6.222  1.00  0.00     0.032 A 
HETATM    5  C   UNL     1      44.747 -19.589   5.473  1.00  0.00     0.002 A 
HETATM    6  C   UNL     1      44.006 -19.572   4.302  1.00  0.00     0.001 A 
HETATM    7  C   UNL     1      43.384 -18.390   3.905  1.00  0.00     0.015 A 
HETATM    8  N   UNL     1      44.503 -16.142   6.596  1.00  0.00    -0.248 NA
HETATM    9  C   UNL     1      43.986 -14.940   6.238  1.00  0.00     0.068 A 
HETATM   10  C   UNL     1      43.135 -14.826   5.152  1.00  0.00     0.050 A 
ENDROOT
BRANCH   1  11
HETATM   11  C   UNL     1      41.953 -15.767   3.227  1.00  0.00     0.257 C 
HETATM   12  N   UNL     1      42.586 -15.590   2.010  1.00  0.00    -0.323 N 
HETATM   13  H   UNL     1      43.594 -15.691   2.000  1.00  0.00     0.169 HD
HETATM   14  O   UNL     1      40.747 -15.796   3.437  1.00  0.00    -0.267 OA
BRANCH  12  15
HETATM   15  C   UNL     1      41.994 -15.159   0.803  1.00  0.00     0.035 A 
HETATM   16  C   UNL     1      41.870 -13.820   0.432  1.00  0.00     0.030 A 
HETATM   17  C   UNL     1      41.356 -13.475  -0.824  1.00  0.00     0.017 A 
HETATM   18  C   UNL     1      40.978 -14.470  -1.730  1.00  0.00     0.009 A 
HETATM   19  C   UNL     1      41.063 -15.812  -1.351  1.00  0.00     0.017 A 
HETATM   20  C   UNL     1      41.561 -16.151  -0.087  1.00  0.00     0.030 A 
BRANCH  18  21
HETATM   21  C   UNL     1      40.507 -14.060  -3.082  1.00  0.00     0.155 C 
HETATM   22  C   UNL     1      40.421 -12.591  -3.401  1.00  0.00     0.096 C 
HETATM   23  O   UNL     1      40.188 -14.917  -3.903  1.00  0.00    -0.293 OA
ENDBRANCH  18  21
ENDBRANCH  12  15
ENDBRANCH   1  11
BRANCH   9  24
HETATM   24  C   UNL     1      44.430 -13.789   7.055  1.00  0.00    -0.007 A 
HETATM   25  C   UNL     1      45.789 -13.481   7.244  1.00  0.00     0.016 A 
HETATM   26  C   UNL     1      46.187 -12.423   8.069  1.00  0.00     0.037 A 
HETATM   27  C   UNL     1      45.244 -11.645   8.740  1.00  0.00     0.068 A 
HETATM   28  C   UNL     1      43.892 -11.918   8.555  1.00  0.00     0.037 A 
HETATM   29  C   UNL     1      43.496 -12.977   7.726  1.00  0.00     0.016 A 
BRANCH  27  30
HETATM   30  O   UNL     1      45.767 -10.662   9.532  1.00  0.00    -0.356 OA
HETATM   31  C   UNL     1      45.074 -10.382  10.742  1.00  0.00     0.210 C 
ENDBRANCH  27  30
ENDBRANCH   9  24
TORSDOF 5
ENDMDL
MODEL 9
REMARK VINA RESULT:      -8.1      3.552      8.593
REMARK  5 active torsions:
REMARK  status: ('A' for Active; 'I' for Inactive)
REMARK    1  A    between atoms: C_2  and  C_3 
REMARK    2  A    between atoms: C_6  and  N_7 
REMARK       I    between atoms: N_7  and  C_8 
REMARK    3  A    between atoms: C_8  and  C_9 
REMARK    4  A    between atoms: C_17  and  C_18 
REMARK    5  A    between atoms: C_21  and  O_22 
ROOT
HETATM    1  C   UNL     1      39.866 -14.551   0.561  1.00  0.00     0.047 A 
HETATM    2  C   UNL     1      40.167 -14.423  -0.817  1.00  0.00     0.008 A 
HETATM    3  C   UNL     1      39.627 -13.295  -1.456  1.00  0.00     0.068 A 
HETATM    4  C   UNL     1      39.910 -13.079  -2.799  1.00  0.00     0.032 A 
HETATM    5  C   UNL     1      40.689 -13.965  -3.544  1.00  0.00     0.002 A 
HETATM    6  C   UNL     1      41.188 -15.110  -2.943  1.00  0.00     0.001 A 
HETATM    7  C   UNL     1      40.924 -15.343  -1.595  1.00  0.00     0.015 A 
HETATM    8  N   UNL     1      38.824 -12.416  -0.838  1.00  0.00    -0.248 NA
HETATM    9  C   UNL     1      38.467 -12.610   0.457  1.00  0.00     0.068 A 
HETATM   10  C   UNL     1      38.999 -13.655   1.192  1.00  0.00     0.050 A 
ENDROOT
BRANCH   1  11
HETATM   11  C   UNL     1      40.389 -15.657   1.406  1.00  0.00     0.257 C 
HETATM   12  N   UNL     1      41.767 -15.715   1.507  1.00  0.00    -0.323 N 
HETATM   13  H   UNL     1      42.290 -14.963   1.072  1.00  0.00     0.169 HD
HETATM   14  O   UNL     1      39.575 -16.396   1.946  1.00  0.00    -0.267 OA
BRANCH  12  15
HETATM   15  C   UNL     1      42.533 -16.774   2.040  1.00  0.00     0.035 A 
HETATM   16  C   UNL     1      42.638 -17.050   3.403  1.00  0.00     0.030 A 
HETATM   17  C   UNL     1      43.342 -18.175   3.849  1.00  0.00     0.017 A 
HETATM   18  C   UNL     1      43.934 -19.048   2.931  1.00  0.00     0.009 A 
HETATM   19  C   UNL     1      43.867 -18.757   1.566  1.00  0.00     0.017 A 
HETATM   20  C   UNL     1      43.176 -17.621   1.127  1.00  0.00     0.030 A 
BRANCH  18  21
HETATM   21  C   UNL     1      44.608 -20.272   3.445  1.00  0.00     0.155 C 
HETATM   22  C   UNL     1      44.489 -21.547   2.653  1.00  0.00     0.096 C 
HETATM   23  O   UNL     1      45.236 -20.226   4.500  1.00  0.00    -0.293 OA
ENDBRANCH  18  21
ENDBRANCH  12  15
ENDBRANCH   1  11
BRANCH   9  24
HETATM   24  C   UNL     1      37.459 -11.665   0.986  1.00  0.00    -0.007 A 
HETATM   25  C   UNL     1      36.134 -11.638   0.515  1.00  0.00     0.016 A 
HETATM   26  C   UNL     1      35.213 -10.696   0.988  1.00  0.00     0.037 A 
HETATM   27  C   UNL     1      35.586  -9.746   1.938  1.00  0.00     0.068 A 
HETATM   28  C   UNL     1      36.887  -9.763   2.433  1.00  0.00     0.037 A 
HETATM   29  C   UNL     1      37.807 -10.709   1.959  1.00  0.00     0.016 A 
BRANCH  27  30
HETATM   30  O   UNL     1      34.600  -8.870   2.295  1.00  0.00    -0.356 OA
HETATM   31  C   UNL     1      33.261  -9.328   2.160  1.00  0.00     0.210 C 
ENDBRANCH  27  30
ENDBRANCH   9  24
TORSDOF 5
ENDMDL
MODEL 10
REMARK VINA RESULT:      -7.9      3.496      9.027
REMARK  5 active torsions:
REMARK  status: ('A' for Active; 'I' for Inactive)
REMARK    1  A    between atoms: C_2  and  C_3 
REMARK    2  A    between atoms: C_6  and  N_7 
REMARK       I    between atoms: N_7  and  C_8 
REMARK    3  A    between atoms: C_8  and  C_9 
REMARK    4  A    between atoms: C_17  and  C_18 
REMARK    5  A    between atoms: C_21  and  O_22 
ROOT
HETATM    1  C   UNL     1      40.850 -13.767   3.997  1.00  0.00     0.047 A 
HETATM    2  C   UNL     1      39.832 -13.661   3.018  1.00  0.00     0.008 A 
HETATM    3  C   UNL     1      39.586 -14.822   2.267  1.00  0.00     0.068 A 
HETATM    4  C   UNL     1      38.576 -14.808   1.314  1.00  0.00     0.032 A 
HETATM    5  C   UNL     1      37.815 -13.667   1.056  1.00  0.00     0.002 A 
HETATM    6  C   UNL     1      38.077 -12.498   1.753  1.00  0.00     0.001 A 
HETATM    7  C   UNL     1      39.081 -12.490   2.719  1.00  0.00     0.015 A 
HETATM    8  N   UNL     1      40.300 -15.950   2.405  1.00  0.00    -0.248 NA
HETATM    9  C   UNL     1      41.337 -15.999   3.278  1.00  0.00     0.068 A 
HETATM   10  C   UNL     1      41.616 -14.930   4.112  1.00  0.00     0.050 A 
ENDROOT
BRANCH   1  11
HETATM   11  C   UNL     1      41.214 -12.653   4.913  1.00  0.00     0.257 C 
HETATM   12  N   UNL     1      40.655 -12.728   6.176  1.00  0.00    -0.323 N 
HETATM   13  H   UNL     1      40.122 -13.563   6.391  1.00  0.00     0.169 HD
HETATM   14  O   UNL     1      41.976 -11.792   4.490  1.00  0.00    -0.267 OA
BRANCH  12  15
HETATM   15  C   UNL     1      40.638 -11.712   7.155  1.00  0.00     0.035 A 
HETATM   16  C   UNL     1      39.492 -11.313   7.844  1.00  0.00     0.030 A 
HETATM   17  C   UNL     1      39.572 -10.363   8.868  1.00  0.00     0.017 A 
HETATM   18  C   UNL     1      40.806  -9.814   9.228  1.00  0.00     0.009 A 
HETATM   19  C   UNL     1      41.953 -10.179   8.517  1.00  0.00     0.017 A 
HETATM   20  C   UNL     1      41.864 -11.117   7.481  1.00  0.00     0.030 A 
BRANCH  18  21
HETATM   21  C   UNL     1      40.857  -8.863  10.372  1.00  0.00     0.155 C 
HETATM   22  C   UNL     1      42.069  -8.874  11.266  1.00  0.00     0.096 C 
HETATM   23  O   UNL     1      39.914  -8.100  10.574  1.00  0.00    -0.293 OA
ENDBRANCH  18  21
ENDBRANCH  12  15
ENDBRANCH   1  11
BRANCH   9  24
HETATM   24  C   UNL     1      42.145 -17.238   3.235  1.00  0.00    -0.007 A 
HETATM   25  C   UNL     1      42.876 -17.697   4.345  1.00  0.00     0.016 A 
HETATM   26  C   UNL     1      43.681 -18.840   4.263  1.00  0.00     0.037 A 
HETATM   27  C   UNL     1      43.791 -19.553   3.070  1.00  0.00     0.068 A 
HETATM   28  C   UNL     1      43.063 -19.129   1.963  1.00  0.00     0.037 A 
HETATM   29  C   UNL     1      42.256 -17.986   2.048  1.00  0.00     0.016 A 
BRANCH  27  30
HETATM   30  O   UNL     1      44.628 -20.632   3.120  1.00  0.00    -0.356 OA
HETATM   31  C   UNL     1      44.306 -21.728   2.273  1.00  0.00     0.210 C 
ENDBRANCH  27  30
ENDBRANCH   9  24
TORSDOF 5
ENDMDL
