MODEL 1
REMARK VINA RESULT:      -9.5      0.000      0.000
REMARK  3 active torsions:
REMARK  status: ('A' for Active; 'I' for Inactive)
REMARK    1  A    between atoms: C_4  and  C_5 
REMARK    2  A    between atoms: C_5  and  C_6 
REMARK    3  A    between atoms: C_6  and  N_7 
ROOT
HETATM    1  N   UNL     1      42.208 -17.795   3.222  1.00  0.00    -0.071 N 
HETATM    2  H   UNL     1      42.063 -18.690   2.733  1.00  0.00     0.279 HD
HETATM    3  C   UNL     1      43.160 -16.967   2.386  1.00  0.00     0.237 C 
HETATM    4  C   UNL     1      42.556 -16.694   1.027  1.00  0.00     0.065 C 
HETATM    5  C   UNL     1      41.219 -15.928   1.120  1.00  0.00     0.076 C 
HETATM    6  N   UNL     1      40.599 -15.968  -0.217  1.00  0.00    -0.373 N 
HETATM    7  C   UNL     1      41.088 -15.054  -1.167  1.00  0.00     0.056 A 
HETATM    8  C   UNL     1      41.639 -13.818  -0.790  1.00  0.00     0.065 A 
HETATM    9  N   UNL     1      41.719 -13.547   0.594  1.00  0.00    -0.321 N 
HETATM   10  C   UNL     1      41.459 -14.501   1.568  1.00  0.00     0.045 A 
HETATM   11  C   UNL     1      42.049 -12.365   1.213  1.00  0.00     0.097 A 
HETATM   12  C   UNL     1      41.892 -12.519   2.570  1.00  0.00     0.020 A 
HETATM   13  C   UNL     1      41.500 -13.858   2.795  1.00  0.00     0.029 A 
HETATM   14  C   UNL     1      40.904 -15.308  -2.530  1.00  0.00     0.031 A 
HETATM   15  C   UNL     1      41.329 -14.389  -3.493  1.00  0.00     0.002 A 
HETATM   16  C   UNL     1      41.914 -13.186  -3.103  1.00  0.00     0.002 A 
HETATM   17  C   UNL     1      42.060 -12.888  -1.749  1.00  0.00     0.032 A 
HETATM   18  C   UNL     1      40.266 -16.700   2.057  1.00  0.00     0.065 C 
HETATM   19  C   UNL     1      40.865 -17.126   3.390  1.00  0.00     0.237 C 
HETATM   20  H   UNL     1      40.463 -16.893  -0.618  1.00  0.00     0.161 HD
ENDROOT
BRANCH   1  21
HETATM   21  C   UNL     1      42.878 -18.120   4.555  1.00  0.00     0.239 C 
BRANCH  21  22
HETATM   22  C   UNL     1      44.342 -18.536   4.395  1.00  0.00     0.066 C 
BRANCH  22  23
HETATM   23  C   UNL     1      44.413 -20.017   4.125  1.00  0.00    -0.057 A 
HETATM   24  C   UNL     1      44.695 -20.914   5.166  1.00  0.00     0.007 A 
HETATM   25  C   UNL     1      44.836 -22.277   4.903  1.00  0.00     0.001 A 
HETATM   26  C   UNL     1      44.695 -22.757   3.602  1.00  0.00     0.000 A 
HETATM   27  C   UNL     1      44.407 -21.874   2.563  1.00  0.00     0.001 A 
HETATM   28  C   UNL     1      44.266 -20.510   2.821  1.00  0.00     0.007 A 
ENDBRANCH  22  23
ENDBRANCH  21  22
ENDBRANCH   1  21
TORSDOF 3
ENDMDL
MODEL 2
REMARK VINA RESULT:      -9.4      2.822      4.812
REMARK  3 active torsions:
REMARK  status: ('A' for Active; 'I' for Inactive)
REMARK    1  A    between atoms: C_4  and  C_5 
REMARK    2  A    between atoms: C_5  and  C_6 
REMARK    3  A    between atoms: C_6  and  N_7 
ROOT
HETATM    1  N   UNL     1      43.170 -18.073   6.555  1.00  0.00    -0.071 N 
HETATM    2  H   UNL     1      42.949 -17.997   7.559  1.00  0.00     0.279 HD
HETATM    3  C   UNL     1      41.895 -17.808   5.784  1.00  0.00     0.237 C 
HETATM    4  C   UNL     1      41.394 -16.411   6.073  1.00  0.00     0.065 C 
HETATM    5  C   UNL     1      42.419 -15.325   5.683  1.00  0.00     0.076 C 
HETATM    6  N   UNL     1      41.947 -14.052   6.258  1.00  0.00    -0.373 N 
HETATM    7  C   UNL     1      40.928 -13.382   5.559  1.00  0.00     0.056 A 
HETATM    8  C   UNL     1      40.775 -13.512   4.169  1.00  0.00     0.065 A 
HETATM    9  N   UNL     1      41.668 -14.382   3.504  1.00  0.00    -0.321 N 
HETATM   10  C   UNL     1      42.538 -15.231   4.175  1.00  0.00     0.045 A 
HETATM   11  C   UNL     1      41.841 -14.553   2.152  1.00  0.00     0.097 A 
HETATM   12  C   UNL     1      42.893 -15.416   1.948  1.00  0.00     0.020 A 
HETATM   13  C   UNL     1      43.346 -15.828   3.221  1.00  0.00     0.029 A 
HETATM   14  C   UNL     1      40.125 -12.452   6.229  1.00  0.00     0.031 A 
HETATM   15  C   UNL     1      39.143 -11.730   5.544  1.00  0.00     0.002 A 
HETATM   16  C   UNL     1      38.975 -11.904   4.173  1.00  0.00     0.002 A 
HETATM   17  C   UNL     1      39.799 -12.786   3.475  1.00  0.00     0.032 A 
HETATM   18  C   UNL     1      43.763 -15.636   6.373  1.00  0.00     0.065 C 
HETATM   19  C   UNL     1      44.252 -17.071   6.233  1.00  0.00     0.237 C 
HETATM   20  H   UNL     1      41.780 -14.052   7.262  1.00  0.00     0.161 HD
ENDROOT
BRANCH   1  21
HETATM   21  C   UNL     1      43.606 -19.515   6.304  1.00  0.00     0.239 C 
BRANCH  21  22
HETATM   22  C   UNL     1      44.870 -19.610   5.446  1.00  0.00     0.066 C 
BRANCH  22  23
HETATM   23  C   UNL     1      44.531 -20.260   4.129  1.00  0.00    -0.057 A 
HETATM   24  C   UNL     1      43.909 -19.519   3.113  1.00  0.00     0.007 A 
HETATM   25  C   UNL     1      43.526 -20.138   1.923  1.00  0.00     0.001 A 
HETATM   26  C   UNL     1      43.763 -21.498   1.735  1.00  0.00     0.000 A 
HETATM   27  C   UNL     1      44.388 -22.240   2.735  1.00  0.00     0.001 A 
HETATM   28  C   UNL     1      44.771 -21.626   3.927  1.00  0.00     0.007 A 
ENDBRANCH  22  23
ENDBRANCH  21  22
ENDBRANCH   1  21
TORSDOF 3
ENDMDL
MODEL 3
REMARK VINA RESULT:      -9.2      2.201      3.519
REMARK  3 active torsions:
REMARK  status: ('A' for Active; 'I' for Inactive)
REMARK    1  A    between atoms: C_4  and  C_5 
REMARK    2  A    between atoms: C_5  and  C_6 
REMARK    3  A    between atoms: C_6  and  N_7 
ROOT
HETATM    1  N   UNL     1      42.815 -17.634   6.081  1.00  0.00    -0.071 N 
HETATM    2  H   UNL     1      42.421 -17.186   6.922  1.00  0.00     0.279 HD
HETATM    3  C   UNL     1      41.674 -17.876   5.116  1.00  0.00     0.237 C 
HETATM    4  C   UNL     1      41.038 -16.562   4.722  1.00  0.00     0.065 C 
HETATM    5  C   UNL     1      42.040 -15.604   4.042  1.00  0.00     0.076 C 
HETATM    6  N   UNL     1      41.393 -14.281   3.962  1.00  0.00    -0.373 N 
HETATM    7  C   UNL     1      40.465 -14.094   2.923  1.00  0.00     0.056 A 
HETATM    8  C   UNL     1      40.559 -14.798   1.710  1.00  0.00     0.065 A 
HETATM    9  N   UNL     1      41.607 -15.737   1.594  1.00  0.00    -0.321 N 
HETATM   10  C   UNL     1      42.406 -16.117   2.665  1.00  0.00     0.045 A 
HETATM   11  C   UNL     1      42.019 -16.420   0.474  1.00  0.00     0.097 A 
HETATM   12  C   UNL     1      43.145 -17.144   0.789  1.00  0.00     0.020 A 
HETATM   13  C   UNL     1      43.403 -16.938   2.162  1.00  0.00     0.029 A 
HETATM   14  C   UNL     1      39.500 -13.087   3.030  1.00  0.00     0.031 A 
HETATM   15  C   UNL     1      38.603 -12.842   1.987  1.00  0.00     0.002 A 
HETATM   16  C   UNL     1      38.681 -13.579   0.808  1.00  0.00     0.002 A 
HETATM   17  C   UNL     1      39.668 -14.552   0.658  1.00  0.00     0.032 A 
HETATM   18  C   UNL     1      43.266 -15.427   4.963  1.00  0.00     0.065 C 
HETATM   19  C   UNL     1      43.866 -16.717   5.505  1.00  0.00     0.237 C 
HETATM   20  H   UNL     1      41.059 -13.895   4.841  1.00  0.00     0.161 HD
ENDROOT
BRANCH   1  21
HETATM   21  C   UNL     1      43.382 -18.982   6.520  1.00  0.00     0.239 C 
BRANCH  21  22
HETATM   22  C   UNL     1      44.751 -19.277   5.903  1.00  0.00     0.066 C 
BRANCH  22  23
HETATM   23  C   UNL     1      44.599 -20.324   4.829  1.00  0.00    -0.057 A 
HETATM   24  C   UNL     1      44.760 -21.683   5.137  1.00  0.00     0.007 A 
HETATM   25  C   UNL     1      44.695 -22.647   4.131  1.00  0.00     0.001 A 
HETATM   26  C   UNL     1      44.466 -22.264   2.810  1.00  0.00     0.000 A 
HETATM   27  C   UNL     1      44.297 -20.918   2.496  1.00  0.00     0.001 A 
HETATM   28  C   UNL     1      44.363 -19.950   3.499  1.00  0.00     0.007 A 
ENDBRANCH  22  23
ENDBRANCH  21  22
ENDBRANCH   1  21
TORSDOF 3
ENDMDL
MODEL 4
REMARK VINA RESULT:      -9.1      2.423      3.333
REMARK  3 active torsions:
REMARK  status: ('A' for Active; 'I' for Inactive)
REMARK    1  A    between atoms: C_4  and  C_5 
REMARK    2  A    between atoms: C_5  and  C_6 
REMARK    3  A    between atoms: C_6  and  N_7 
ROOT
HETATM    1  N   UNL     1      42.316 -17.210   1.201  1.00  0.00    -0.071 N 
HETATM    2  H   UNL     1      41.974 -17.587   0.305  1.00  0.00     0.279 HD
HETATM    3  C   UNL     1      42.394 -15.704   1.064  1.00  0.00     0.237 C 
HETATM    4  C   UNL     1      41.021 -15.137   0.783  1.00  0.00     0.065 C 
HETATM    5  C   UNL     1      40.009 -15.460   1.903  1.00  0.00     0.076 C 
HETATM    6  N   UNL     1      38.670 -15.108   1.396  1.00  0.00    -0.373 N 
HETATM    7  C   UNL     1      38.318 -13.748   1.432  1.00  0.00     0.056 A 
HETATM    8  C   UNL     1      38.854 -12.869   2.389  1.00  0.00     0.065 A 
HETATM    9  N   UNL     1      39.799 -13.404   3.292  1.00  0.00    -0.321 N 
HETATM   10  C   UNL     1      40.342 -14.675   3.155  1.00  0.00     0.045 A 
HETATM   11  C   UNL     1      40.336 -12.814   4.411  1.00  0.00     0.097 A 
HETATM   12  C   UNL     1      41.129 -13.734   5.057  1.00  0.00     0.020 A 
HETATM   13  C   UNL     1      41.117 -14.913   4.279  1.00  0.00     0.029 A 
HETATM   14  C   UNL     1      37.307 -13.272   0.591  1.00  0.00     0.031 A 
HETATM   15  C   UNL     1      36.899 -11.936   0.647  1.00  0.00     0.002 A 
HETATM   16  C   UNL     1      37.473 -11.067   1.571  1.00  0.00     0.002 A 
HETATM   17  C   UNL     1      38.444 -11.532   2.456  1.00  0.00     0.032 A 
HETATM   18  C   UNL     1      39.993 -16.985   2.137  1.00  0.00     0.065 C 
HETATM   19  C   UNL     1      41.360 -17.636   2.289  1.00  0.00     0.237 C 
HETATM   20  H   UNL     1      38.396 -15.547   0.521  1.00  0.00     0.161 HD
ENDROOT
BRANCH   1  21
HETATM   21  C   UNL     1      43.727 -17.758   1.405  1.00  0.00     0.239 C 
BRANCH  21  22
HETATM   22  C   UNL     1      44.006 -18.146   2.858  1.00  0.00     0.066 C 
BRANCH  22  23
HETATM   23  C   UNL     1      44.223 -19.635   2.945  1.00  0.00    -0.057 A 
HETATM   24  C   UNL     1      43.833 -20.470   1.887  1.00  0.00     0.007 A 
HETATM   25  C   UNL     1      43.964 -21.855   1.997  1.00  0.00     0.001 A 
HETATM   26  C   UNL     1      44.486 -22.417   3.161  1.00  0.00     0.000 A 
HETATM   27  C   UNL     1      44.883 -21.596   4.213  1.00  0.00     0.001 A 
HETATM   28  C   UNL     1      44.753 -20.210   4.108  1.00  0.00     0.007 A 
ENDBRANCH  22  23
ENDBRANCH  21  22
ENDBRANCH   1  21
TORSDOF 3
ENDMDL
MODEL 5
REMARK VINA RESULT:      -8.9      1.926      8.058
REMARK  3 active torsions:
REMARK  status: ('A' for Active; 'I' for Inactive)
REMARK    1  A    between atoms: C_4  and  C_5 
REMARK    2  A    between atoms: C_5  and  C_6 
REMARK    3  A    between atoms: C_6  and  N_7 
ROOT
HETATM    1  N   UNL     1      41.422 -14.988   1.292  1.00  0.00    -0.071 N 
HETATM    2  H   UNL     1      40.956 -14.211   1.783  1.00  0.00     0.279 HD
HETATM    3  C   UNL     1      42.780 -15.184   1.931  1.00  0.00     0.237 C 
HETATM    4  C   UNL     1      42.620 -15.547   3.390  1.00  0.00     0.065 C 
HETATM    5  C   UNL     1      41.811 -16.847   3.588  1.00  0.00     0.076 C 
HETATM    6  N   UNL     1      41.486 -16.946   5.022  1.00  0.00    -0.373 N 
HETATM    7  C   UNL     1      42.504 -17.417   5.870  1.00  0.00     0.056 A 
HETATM    8  C   UNL     1      43.501 -18.295   5.412  1.00  0.00     0.065 A 
HETATM    9  N   UNL     1      43.461 -18.654   4.047  1.00  0.00    -0.321 N 
HETATM   10  C   UNL     1      42.618 -18.044   3.128  1.00  0.00     0.045 A 
HETATM   11  C   UNL     1      44.201 -19.613   3.396  1.00  0.00     0.097 A 
HETATM   12  C   UNL     1      43.759 -19.704   2.097  1.00  0.00     0.020 A 
HETATM   13  C   UNL     1      42.748 -18.732   1.931  1.00  0.00     0.029 A 
HETATM   14  C   UNL     1      42.458 -17.124   7.237  1.00  0.00     0.031 A 
HETATM   15  C   UNL     1      43.426 -17.628   8.110  1.00  0.00     0.002 A 
HETATM   16  C   UNL     1      44.434 -18.462   7.632  1.00  0.00     0.002 A 
HETATM   17  C   UNL     1      44.469 -18.811   6.283  1.00  0.00     0.032 A 
HETATM   18  C   UNL     1      40.462 -16.713   2.850  1.00  0.00     0.065 C 
HETATM   19  C   UNL     1      40.550 -16.214   1.415  1.00  0.00     0.237 C 
HETATM   20  H   UNL     1      40.999 -16.148   5.424  1.00  0.00     0.161 HD
ENDROOT
BRANCH   1  21
HETATM   21  C   UNL     1      41.619 -14.545  -0.156  1.00  0.00     0.239 C 
BRANCH  21  22
HETATM   22  C   UNL     1      40.438 -13.733  -0.693  1.00  0.00     0.066 C 
BRANCH  22  23
HETATM   23  C   UNL     1      39.841 -14.445  -1.879  1.00  0.00    -0.057 A 
HETATM   24  C   UNL     1      38.545 -14.132  -2.314  1.00  0.00     0.007 A 
HETATM   25  C   UNL     1      37.963 -14.842  -3.364  1.00  0.00     0.001 A 
HETATM   26  C   UNL     1      38.668 -15.868  -3.990  1.00  0.00     0.000 A 
HETATM   27  C   UNL     1      39.959 -16.181  -3.570  1.00  0.00     0.001 A 
HETATM   28  C   UNL     1      40.545 -15.474  -2.519  1.00  0.00     0.007 A 
ENDBRANCH  22  23
ENDBRANCH  21  22
ENDBRANCH   1  21
TORSDOF 3
ENDMDL
MODEL 6
REMARK VINA RESULT:      -8.9      3.251      5.242
REMARK  3 active torsions:
REMARK  status: ('A' for Active; 'I' for Inactive)
REMARK    1  A    between atoms: C_4  and  C_5 
REMARK    2  A    between atoms: C_5  and  C_6 
REMARK    3  A    between atoms: C_6  and  N_7 
ROOT
HETATM    1  N   UNL     1      41.702 -17.512   3.008  1.00  0.00    -0.071 N 
HETATM    2  H   UNL     1      40.756 -17.582   2.605  1.00  0.00     0.279 HD
HETATM    3  C   UNL     1      42.168 -16.082   2.837  1.00  0.00     0.237 C 
HETATM    4  C   UNL     1      41.246 -15.143   3.580  1.00  0.00     0.065 C 
HETATM    5  C   UNL     1      41.191 -15.446   5.093  1.00  0.00     0.076 C 
HETATM    6  N   UNL     1      40.071 -14.668   5.653  1.00  0.00    -0.373 N 
HETATM    7  C   UNL     1      40.312 -13.306   5.906  1.00  0.00     0.056 A 
HETATM    8  C   UNL     1      41.596 -12.825   6.211  1.00  0.00     0.065 A 
HETATM    9  N   UNL     1      42.649 -13.767   6.212  1.00  0.00    -0.321 N 
HETATM   10  C   UNL     1      42.501 -15.069   5.753  1.00  0.00     0.045 A 
HETATM   11  C   UNL     1      43.945 -13.595   6.637  1.00  0.00     0.097 A 
HETATM   12  C   UNL     1      44.597 -14.804   6.564  1.00  0.00     0.020 A 
HETATM   13  C   UNL     1      43.683 -15.738   6.027  1.00  0.00     0.029 A 
HETATM   14  C   UNL     1      39.235 -12.418   5.996  1.00  0.00     0.031 A 
HETATM   15  C   UNL     1      39.442 -11.070   6.303  1.00  0.00     0.002 A 
HETATM   16  C   UNL     1      40.728 -10.600   6.559  1.00  0.00     0.002 A 
HETATM   17  C   UNL     1      41.811 -11.478   6.527  1.00  0.00     0.032 A 
HETATM   18  C   UNL     1      40.823 -16.931   5.291  1.00  0.00     0.065 C 
HETATM   19  C   UNL     1      41.629 -17.919   4.459  1.00  0.00     0.237 C 
HETATM   20  H   UNL     1      39.163 -14.817   5.218  1.00  0.00     0.161 HD
ENDROOT
BRANCH   1  21
HETATM   21  C   UNL     1      42.606 -18.426   2.182  1.00  0.00     0.239 C 
BRANCH  21  22
HETATM   22  C   UNL     1      44.032 -18.501   2.731  1.00  0.00     0.066 C 
BRANCH  22  23
HETATM   23  C   UNL     1      44.328 -19.914   3.162  1.00  0.00    -0.057 A 
HETATM   24  C   UNL     1      44.159 -20.978   2.264  1.00  0.00     0.007 A 
HETATM   25  C   UNL     1      44.359 -22.294   2.684  1.00  0.00     0.001 A 
HETATM   26  C   UNL     1      44.731 -22.558   4.001  1.00  0.00     0.000 A 
HETATM   27  C   UNL     1      44.908 -21.507   4.898  1.00  0.00     0.001 A 
HETATM   28  C   UNL     1      44.708 -20.190   4.483  1.00  0.00     0.007 A 
ENDBRANCH  22  23
ENDBRANCH  21  22
ENDBRANCH   1  21
TORSDOF 3
ENDMDL
MODEL 7
REMARK VINA RESULT:      -8.8      4.582      8.702
REMARK  3 active torsions:
REMARK  status: ('A' for Active; 'I' for Inactive)
REMARK    1  A    between atoms: C_4  and  C_5 
REMARK    2  A    between atoms: C_5  and  C_6 
REMARK    3  A    between atoms: C_6  and  N_7 
ROOT
HETATM    1  N   UNL     1      43.649 -14.845   7.169  1.00  0.00    -0.071 N 
HETATM    2  H   UNL     1      43.618 -15.122   8.161  1.00  0.00     0.279 HD
HETATM    3  C   UNL     1      44.808 -15.577   6.526  1.00  0.00     0.237 C 
HETATM    4  C   UNL     1      44.594 -17.071   6.615  1.00  0.00     0.065 C 
HETATM    5  C   UNL     1      43.297 -17.523   5.908  1.00  0.00     0.076 C 
HETATM    6  N   UNL     1      43.055 -18.924   6.296  1.00  0.00    -0.373 N 
HETATM    7  C   UNL     1      43.800 -19.905   5.618  1.00  0.00     0.056 A 
HETATM    8  C   UNL     1      44.259 -19.710   4.305  1.00  0.00     0.065 A 
HETATM    9  N   UNL     1      43.974 -18.463   3.705  1.00  0.00    -0.321 N 
HETATM   10  C   UNL     1      43.442 -17.389   4.406  1.00  0.00     0.045 A 
HETATM   11  C   UNL     1      44.156 -18.087   2.396  1.00  0.00     0.097 A 
HETATM   12  C   UNL     1      43.639 -16.824   2.225  1.00  0.00     0.020 A 
HETATM   13  C   UNL     1      43.171 -16.390   3.485  1.00  0.00     0.029 A 
HETATM   14  C   UNL     1      43.979 -21.164   6.201  1.00  0.00     0.031 A 
HETATM   15  C   UNL     1      44.666 -22.175   5.523  1.00  0.00     0.002 A 
HETATM   16  C   UNL     1      45.154 -21.950   4.238  1.00  0.00     0.002 A 
HETATM   17  C   UNL     1      44.941 -20.721   3.616  1.00  0.00     0.032 A 
HETATM   18  C   UNL     1      42.112 -16.710   6.472  1.00  0.00     0.065 C 
HETATM   19  C   UNL     1      42.326 -15.204   6.537  1.00  0.00     0.237 C 
HETATM   20  H   UNL     1      43.009 -19.108   7.295  1.00  0.00     0.161 HD
ENDROOT
BRANCH   1  21
HETATM   21  C   UNL     1      43.933 -13.345   7.133  1.00  0.00     0.239 C 
BRANCH  21  22
HETATM   22  C   UNL     1      45.067 -12.935   8.075  1.00  0.00     0.066 C 
BRANCH  22  23
HETATM   23  C   UNL     1      44.552 -11.922   9.065  1.00  0.00    -0.057 A 
HETATM   24  C   UNL     1      45.250 -11.677  10.256  1.00  0.00     0.007 A 
HETATM   25  C   UNL     1      44.735 -10.796  11.207  1.00  0.00     0.001 A 
HETATM   26  C   UNL     1      43.521 -10.151  10.978  1.00  0.00     0.000 A 
HETATM   27  C   UNL     1      42.824 -10.382   9.794  1.00  0.00     0.001 A 
HETATM   28  C   UNL     1      43.335 -11.263   8.840  1.00  0.00     0.007 A 
ENDBRANCH  22  23
ENDBRANCH  21  22
ENDBRANCH   1  21
TORSDOF 3
ENDMDL
MODEL 8
REMARK VINA RESULT:      -8.7      2.177      7.467
REMARK  3 active torsions:
REMARK  status: ('A' for Active; 'I' for Inactive)
REMARK    1  A    between atoms: C_4  and  C_5 
REMARK    2  A    between atoms: C_5  and  C_6 
REMARK    3  A    between atoms: C_6  and  N_7 
ROOT
HETATM    1  N   UNL     1      40.494 -15.993   1.154  1.00  0.00    -0.071 N 
HETATM    2  H   UNL     1      40.266 -16.475   0.273  1.00  0.00     0.279 HD
HETATM    3  C   UNL     1      40.352 -16.998   2.277  1.00  0.00     0.237 C 
HETATM    4  C   UNL     1      41.321 -18.141   2.076  1.00  0.00     0.065 C 
HETATM    5  C   UNL     1      42.791 -17.669   2.046  1.00  0.00     0.076 C 
HETATM    6  N   UNL     1      43.604 -18.804   1.573  1.00  0.00    -0.373 N 
HETATM    7  C   UNL     1      43.913 -19.797   2.519  1.00  0.00     0.056 A 
HETATM    8  C   UNL     1      44.015 -19.508   3.890  1.00  0.00     0.065 A 
HETATM    9  N   UNL     1      43.752 -18.178   4.286  1.00  0.00    -0.321 N 
HETATM   10  C   UNL     1      43.228 -17.221   3.426  1.00  0.00     0.045 A 
HETATM   11  C   UNL     1      43.945 -17.601   5.519  1.00  0.00     0.097 A 
HETATM   12  C   UNL     1      43.661 -16.259   5.427  1.00  0.00     0.020 A 
HETATM   13  C   UNL     1      43.229 -16.013   4.105  1.00  0.00     0.029 A 
HETATM   14  C   UNL     1      44.267 -21.079   2.086  1.00  0.00     0.031 A 
HETATM   15  C   UNL     1      44.634 -22.068   3.002  1.00  0.00     0.002 A 
HETATM   16  C   UNL     1      44.686 -21.777   4.363  1.00  0.00     0.002 A 
HETATM   17  C   UNL     1      44.390 -20.491   4.813  1.00  0.00     0.032 A 
HETATM   18  C   UNL     1      42.937 -16.562   0.981  1.00  0.00     0.065 C 
HETATM   19  C   UNL     1      41.899 -15.451   1.047  1.00  0.00     0.237 C 
HETATM   20  H   UNL     1      43.332 -19.205   0.679  1.00  0.00     0.161 HD
ENDROOT
BRANCH   1  21
HETATM   21  C   UNL     1      39.450 -14.894   1.343  1.00  0.00     0.239 C 
BRANCH  21  22
HETATM   22  C   UNL     1      40.070 -13.543   1.701  1.00  0.00     0.066 C 
BRANCH  22  23
HETATM   23  C   UNL     1      39.703 -13.184   3.118  1.00  0.00    -0.057 A 
HETATM   24  C   UNL     1      39.048 -11.975   3.396  1.00  0.00     0.007 A 
HETATM   25  C   UNL     1      38.775 -11.608   4.713  1.00  0.00     0.001 A 
HETATM   26  C   UNL     1      39.152 -12.442   5.764  1.00  0.00     0.000 A 
HETATM   27  C   UNL     1      39.796 -13.648   5.498  1.00  0.00     0.001 A 
HETATM   28  C   UNL     1      40.072 -14.020   4.181  1.00  0.00     0.007 A 
ENDBRANCH  22  23
ENDBRANCH  21  22
ENDBRANCH   1  21
TORSDOF 3
ENDMDL
MODEL 9
REMARK VINA RESULT:      -8.7      2.463      7.385
REMARK  3 active torsions:
REMARK  status: ('A' for Active; 'I' for Inactive)
REMARK    1  A    between atoms: C_4  and  C_5 
REMARK    2  A    between atoms: C_5  and  C_6 
REMARK    3  A    between atoms: C_6  and  N_7 
ROOT
HETATM    1  N   UNL     1      41.736 -14.021   5.923  1.00  0.00    -0.071 N 
HETATM    2  H   UNL     1      42.182 -14.086   6.849  1.00  0.00     0.279 HD
HETATM    3  C   UNL     1      42.777 -14.394   4.888  1.00  0.00     0.237 C 
HETATM    4  C   UNL     1      43.246 -15.814   5.111  1.00  0.00     0.065 C 
HETATM    5  C   UNL     1      42.094 -16.837   5.015  1.00  0.00     0.076 C 
HETATM    6  N   UNL     1      42.609 -18.123   5.518  1.00  0.00    -0.373 N 
HETATM    7  C   UNL     1      43.393 -18.880   4.630  1.00  0.00     0.056 A 
HETATM    8  C   UNL     1      43.224 -18.798   3.238  1.00  0.00     0.065 A 
HETATM    9  N   UNL     1      42.255 -17.887   2.763  1.00  0.00    -0.321 N 
HETATM   10  C   UNL     1      41.619 -16.962   3.582  1.00  0.00     0.045 A 
HETATM   11  C   UNL     1      41.780 -17.739   1.482  1.00  0.00     0.097 A 
HETATM   12  C   UNL     1      40.765 -16.812   1.492  1.00  0.00     0.020 A 
HETATM   13  C   UNL     1      40.648 -16.336   2.817  1.00  0.00     0.029 A 
HETATM   14  C   UNL     1      44.272 -19.845   5.134  1.00  0.00     0.031 A 
HETATM   15  C   UNL     1      45.021 -20.651   4.271  1.00  0.00     0.002 A 
HETATM   16  C   UNL     1      44.873 -20.526   2.892  1.00  0.00     0.002 A 
HETATM   17  C   UNL     1      43.964 -19.608   2.368  1.00  0.00     0.032 A 
HETATM   18  C   UNL     1      40.970 -16.416   5.985  1.00  0.00     0.065 C 
HETATM   19  C   UNL     1      40.550 -14.955   5.902  1.00  0.00     0.237 C 
HETATM   20  H   UNL     1      43.006 -18.108   6.455  1.00  0.00     0.161 HD
ENDROOT
BRANCH   1  21
HETATM   21  C   UNL     1      41.342 -12.560   5.719  1.00  0.00     0.239 C 
BRANCH  21  22
HETATM   22  C   UNL     1      39.959 -12.403   5.084  1.00  0.00     0.066 C 
BRANCH  22  23
HETATM   23  C   UNL     1      40.098 -12.383   3.584  1.00  0.00    -0.057 A 
HETATM   24  C   UNL     1      39.129 -12.994   2.775  1.00  0.00     0.007 A 
HETATM   25  C   UNL     1      39.295 -13.042   1.390  1.00  0.00     0.001 A 
HETATM   26  C   UNL     1      40.426 -12.480   0.802  1.00  0.00     0.000 A 
HETATM   27  C   UNL     1      41.390 -11.863   1.597  1.00  0.00     0.001 A 
HETATM   28  C   UNL     1      41.229 -11.814   2.982  1.00  0.00     0.007 A 
ENDBRANCH  22  23
ENDBRANCH  21  22
ENDBRANCH   1  21
TORSDOF 3
ENDMDL
MODEL 10
REMARK VINA RESULT:      -8.6      3.827      8.158
REMARK  3 active torsions:
REMARK  status: ('A' for Active; 'I' for Inactive)
REMARK    1  A    between atoms: C_4  and  C_5 
REMARK    2  A    between atoms: C_5  and  C_6 
REMARK    3  A    between atoms: C_6  and  N_7 
ROOT
HETATM    1  N   UNL     1      41.760 -13.752   5.850  1.00  0.00    -0.071 N 
HETATM    2  H   UNL     1      42.213 -13.804   6.774  1.00  0.00     0.279 HD
HETATM    3  C   UNL     1      42.782 -14.175   4.815  1.00  0.00     0.237 C 
HETATM    4  C   UNL     1      43.221 -15.598   5.070  1.00  0.00     0.065 C 
HETATM    5  C   UNL     1      42.046 -16.597   5.011  1.00  0.00     0.076 C 
HETATM    6  N   UNL     1      42.537 -17.882   5.542  1.00  0.00    -0.373 N 
HETATM    7  C   UNL     1      43.295 -18.679   4.666  1.00  0.00     0.056 A 
HETATM    8  C   UNL     1      43.114 -18.628   3.274  1.00  0.00     0.065 A 
HETATM    9  N   UNL     1      42.161 -17.707   2.785  1.00  0.00    -0.321 N 
HETATM   10  C   UNL     1      41.554 -16.748   3.586  1.00  0.00     0.045 A 
HETATM   11  C   UNL     1      41.677 -17.582   1.505  1.00  0.00     0.097 A 
HETATM   12  C   UNL     1      40.683 -16.631   1.501  1.00  0.00     0.020 A 
HETATM   13  C   UNL     1      40.590 -16.120   2.814  1.00  0.00     0.029 A 
HETATM   14  C   UNL     1      44.157 -19.650   5.186  1.00  0.00     0.031 A 
HETATM   15  C   UNL     1      44.879 -20.494   4.337  1.00  0.00     0.002 A 
HETATM   16  C   UNL     1      44.721 -20.401   2.956  1.00  0.00     0.002 A 
HETATM   17  C   UNL     1      43.828 -19.476   2.418  1.00  0.00     0.032 A 
HETATM   18  C   UNL     1      40.941 -16.126   5.980  1.00  0.00     0.065 C 
HETATM   19  C   UNL     1      40.553 -14.659   5.864  1.00  0.00     0.237 C 
HETATM   20  H   UNL     1      42.944 -17.852   6.474  1.00  0.00     0.161 HD
ENDROOT
BRANCH   1  21
HETATM   21  C   UNL     1      41.397 -12.288   5.613  1.00  0.00     0.239 C 
BRANCH  21  22
HETATM   22  C   UNL     1      40.098 -11.881   6.310  1.00  0.00     0.066 C 
BRANCH  22  23
HETATM   23  C   UNL     1      40.420 -11.279   7.654  1.00  0.00    -0.057 A 
HETATM   24  C   UNL     1      41.660 -10.663   7.875  1.00  0.00     0.007 A 
HETATM   25  C   UNL     1      41.989 -10.173   9.139  1.00  0.00     0.001 A 
HETATM   26  C   UNL     1      41.084 -10.292  10.192  1.00  0.00     0.000 A 
HETATM   27  C   UNL     1      39.846 -10.896   9.980  1.00  0.00     0.001 A 
HETATM   28  C   UNL     1      39.514 -11.388   8.718  1.00  0.00     0.007 A 
ENDBRANCH  22  23
ENDBRANCH  21  22
ENDBRANCH   1  21
TORSDOF 3
ENDMDL
