MODEL 1
REMARK VINA RESULT:      -8.1      0.000      0.000
REMARK  5 active torsions:
REMARK  status: ('A' for Active; 'I' for Inactive)
REMARK    1  A    between atoms: C_2  and  C_3 
REMARK    2  A    between atoms: C_3  and  N_4 
REMARK       I    between atoms: N_4  and  C_5 
REMARK    3  A    between atoms: C_5  and  C_6 
REMARK    4  A    between atoms: C_19  and  O_20 
REMARK    5  A    between atoms: O_20  and  C_21 
ROOT
HETATM    1  N   UNL     1      42.695 -17.487   2.300  1.00  0.00    -0.353 N 
HETATM    2  C   UNL     1      41.385 -17.123   2.090  1.00  0.00     0.254 C 
HETATM    3  O   UNL     1      40.665 -17.678   1.265  1.00  0.00    -0.268 OA
HETATM    4  H   UNL     1      43.262 -16.940   2.948  1.00  0.00     0.163 HD
ENDROOT
BRANCH   1   5
HETATM    5  C   UNL     1      43.310 -18.490   1.471  1.00  0.00     0.161 C 
BRANCH   5   6
HETATM    6  C   UNL     1      43.742 -19.698   2.251  1.00  0.00    -0.035 A 
HETATM    7  C   UNL     1      43.921 -20.933   1.622  1.00  0.00     0.028 A 
HETATM    8  C   UNL     1      44.387 -22.001   2.375  1.00  0.00     0.120 A 
HETATM    9  N   UNL     1      44.686 -21.925   3.689  1.00  0.00    -0.237 NA
HETATM   10  C   UNL     1      44.485 -20.729   4.277  1.00  0.00     0.164 A 
HETATM   11  C   UNL     1      44.004 -19.608   3.621  1.00  0.00     0.066 A 
BRANCH  10  12
HETATM   12  O   UNL     1      44.781 -20.584   5.619  1.00  0.00    -0.329 OA
BRANCH  12  13
HETATM   13  C   UNL     1      44.107 -19.496   6.287  1.00  0.00     0.130 C 
HETATM   14  C   UNL     1      43.770 -19.768   7.778  1.00  0.00     0.032 C 
HETATM   15  C   UNL     1      44.073 -18.285   8.049  1.00  0.00     0.005 C 
HETATM   16  C   UNL     1      44.973 -18.314   6.800  1.00  0.00     0.032 C 
ENDBRANCH  12  13
ENDBRANCH  10  12
ENDBRANCH   5   6
ENDBRANCH   1   5
BRANCH   2  17
HETATM   17  C   UNL     1      40.848 -16.004   2.899  1.00  0.00     0.066 A 
HETATM   18  C   UNL     1      40.914 -15.990   4.307  1.00  0.00     0.100 A 
HETATM   19  C   UNL     1      40.390 -14.896   4.998  1.00  0.00     0.066 A 
HETATM   20  N   UNL     1      41.434 -16.910   5.197  1.00  0.00    -0.241 NA
HETATM   21  N   UNL     1      40.609 -15.187   6.322  1.00  0.00    -0.349 N 
HETATM   22  C   UNL     1      39.800 -13.800   4.366  1.00  0.00     0.074 A 
HETATM   23  H   UNL     1      40.353 -14.608   7.110  1.00  0.00     0.167 HD
HETATM   24  C   UNL     1      41.233 -16.400   6.390  1.00  0.00     0.208 A 
HETATM   25  C   UNL     1      39.750 -13.839   2.973  1.00  0.00     0.119 A 
HETATM   26  F   UNL     1      39.195 -12.810   2.319  1.00  0.00    -0.206 F 
HETATM   27  C   UNL     1      40.257 -14.909   2.244  1.00  0.00     0.061 A 
ENDBRANCH   2  17
TORSDOF 5
ENDMDL
MODEL 2
REMARK VINA RESULT:      -8.1      5.744      7.606
REMARK  5 active torsions:
REMARK  status: ('A' for Active; 'I' for Inactive)
REMARK    1  A    between atoms: C_2  and  C_3 
REMARK    2  A    between atoms: C_3  and  N_4 
REMARK       I    between atoms: N_4  and  C_5 
REMARK    3  A    between atoms: C_5  and  C_6 
REMARK    4  A    between atoms: C_19  and  O_20 
REMARK    5  A    between atoms: O_20  and  C_21 
ROOT
HETATM    1  N   UNL     1      44.080 -12.977   8.105  1.00  0.00    -0.353 N 
HETATM    2  C   UNL     1      44.722 -12.334   9.138  1.00  0.00     0.254 C 
HETATM    3  O   UNL     1      45.873 -12.597   9.472  1.00  0.00    -0.268 OA
HETATM    4  H   UNL     1      43.099 -12.764   7.922  1.00  0.00     0.163 HD
ENDROOT
BRANCH   1   5
HETATM    5  C   UNL     1      44.720 -14.074   7.426  1.00  0.00     0.161 C 
BRANCH   5   6
HETATM    6  C   UNL     1      43.892 -14.615   6.297  1.00  0.00    -0.035 A 
HETATM    7  C   UNL     1      43.258 -13.757   5.394  1.00  0.00     0.028 A 
HETATM    8  C   UNL     1      42.561 -14.308   4.329  1.00  0.00     0.120 A 
HETATM    9  N   UNL     1      42.457 -15.634   4.101  1.00  0.00    -0.237 NA
HETATM   10  C   UNL     1      43.060 -16.442   4.996  1.00  0.00     0.164 A 
HETATM   11  C   UNL     1      43.761 -15.993   6.103  1.00  0.00     0.066 A 
BRANCH  10  12
HETATM   12  O   UNL     1      42.998 -17.810   4.813  1.00  0.00    -0.329 OA
BRANCH  12  13
HETATM   13  C   UNL     1      43.945 -18.352   3.867  1.00  0.00     0.130 C 
HETATM   14  C   UNL     1      44.383 -19.812   4.163  1.00  0.00     0.032 C 
HETATM   15  C   UNL     1      44.413 -20.040   2.642  1.00  0.00     0.005 C 
HETATM   16  C   UNL     1      43.394 -18.892   2.521  1.00  0.00     0.032 C 
ENDBRANCH  12  13
ENDBRANCH  10  12
ENDBRANCH   5   6
ENDBRANCH   1   5
BRANCH   2  17
HETATM   17  C   UNL     1      43.964 -11.292   9.870  1.00  0.00     0.066 A 
HETATM   18  C   UNL     1      42.906 -10.572   9.280  1.00  0.00     0.100 A 
HETATM   19  C   UNL     1      42.237  -9.609  10.037  1.00  0.00     0.066 A 
HETATM   20  N   UNL     1      42.365 -10.640   8.011  1.00  0.00    -0.241 NA
HETATM   21  N   UNL     1      41.284  -9.103   9.189  1.00  0.00    -0.349 N 
HETATM   22  C   UNL     1      42.557  -9.318  11.364  1.00  0.00     0.074 A 
HETATM   23  H   UNL     1      40.614  -8.380   9.409  1.00  0.00     0.167 HD
HETATM   24  C   UNL     1      41.400  -9.749   7.990  1.00  0.00     0.208 A 
HETATM   25  C   UNL     1      43.606 -10.047  11.924  1.00  0.00     0.119 A 
HETATM   26  F   UNL     1      43.953  -9.806  13.196  1.00  0.00    -0.206 F 
HETATM   27  C   UNL     1      44.303 -11.013  11.207  1.00  0.00     0.061 A 
ENDBRANCH   2  17
TORSDOF 5
ENDMDL
MODEL 3
REMARK VINA RESULT:      -7.8      3.422      6.329
REMARK  5 active torsions:
REMARK  status: ('A' for Active; 'I' for Inactive)
REMARK    1  A    between atoms: C_2  and  C_3 
REMARK    2  A    between atoms: C_3  and  N_4 
REMARK       I    between atoms: N_4  and  C_5 
REMARK    3  A    between atoms: C_5  and  C_6 
REMARK    4  A    between atoms: C_19  and  O_20 
REMARK    5  A    between atoms: O_20  and  C_21 
ROOT
HETATM    1  N   UNL     1      41.935 -17.598   2.077  1.00  0.00    -0.353 N 
HETATM    2  C   UNL     1      43.103 -18.193   1.660  1.00  0.00     0.254 C 
HETATM    3  O   UNL     1      43.656 -17.905   0.603  1.00  0.00    -0.268 OA
HETATM    4  H   UNL     1      41.487 -17.932   2.930  1.00  0.00     0.163 HD
ENDROOT
BRANCH   1   5
HETATM    5  C   UNL     1      41.254 -16.662   1.221  1.00  0.00     0.161 C 
BRANCH   5   6
HETATM    6  C   UNL     1      41.727 -15.251   1.416  1.00  0.00    -0.035 A 
HETATM    7  C   UNL     1      41.534 -14.284   0.425  1.00  0.00     0.028 A 
HETATM    8  C   UNL     1      41.929 -12.979   0.683  1.00  0.00     0.120 A 
HETATM    9  N   UNL     1      42.491 -12.576   1.841  1.00  0.00    -0.237 NA
HETATM   10  C   UNL     1      42.685 -13.530   2.773  1.00  0.00     0.164 A 
HETATM   11  C   UNL     1      42.347 -14.863   2.607  1.00  0.00     0.066 A 
BRANCH  10  12
HETATM   12  O   UNL     1      43.248 -13.178   3.985  1.00  0.00    -0.329 OA
BRANCH  12  13
HETATM   13  C   UNL     1      43.570 -14.280   4.861  1.00  0.00     0.130 C 
HETATM   14  C   UNL     1      44.666 -13.963   5.914  1.00  0.00     0.032 C 
HETATM   15  C   UNL     1      43.886 -14.855   6.896  1.00  0.00     0.005 C 
HETATM   16  C   UNL     1      42.628 -14.547   6.064  1.00  0.00     0.032 C 
ENDBRANCH  12  13
ENDBRANCH  10  12
ENDBRANCH   5   6
ENDBRANCH   1   5
BRANCH   2  17
HETATM   17  C   UNL     1      43.691 -19.233   2.537  1.00  0.00     0.066 A 
HETATM   18  C   UNL     1      44.008 -18.990   3.888  1.00  0.00     0.100 A 
HETATM   19  C   UNL     1      44.555 -20.023   4.652  1.00  0.00     0.066 A 
HETATM   20  N   UNL     1      43.872 -17.851   4.658  1.00  0.00    -0.241 NA
HETATM   21  N   UNL     1      44.743 -19.472   5.895  1.00  0.00    -0.349 N 
HETATM   22  C   UNL     1      44.806 -21.300   4.147  1.00  0.00     0.074 A 
HETATM   23  H   UNL     1      45.127 -19.941   6.703  1.00  0.00     0.167 HD
HETATM   24  C   UNL     1      44.321 -18.173   5.849  1.00  0.00     0.208 A 
HETATM   25  C   UNL     1      44.481 -21.513   2.808  1.00  0.00     0.119 A 
HETATM   26  F   UNL     1      44.702 -22.723   2.275  1.00  0.00    -0.206 F 
HETATM   27  C   UNL     1      43.937 -20.514   2.009  1.00  0.00     0.061 A 
ENDBRANCH   2  17
TORSDOF 5
ENDMDL
MODEL 4
REMARK VINA RESULT:      -7.6      3.781      7.696
REMARK  5 active torsions:
REMARK  status: ('A' for Active; 'I' for Inactive)
REMARK    1  A    between atoms: C_2  and  C_3 
REMARK    2  A    between atoms: C_3  and  N_4 
REMARK       I    between atoms: N_4  and  C_5 
REMARK    3  A    between atoms: C_5  and  C_6 
REMARK    4  A    between atoms: C_19  and  O_20 
REMARK    5  A    between atoms: O_20  and  C_21 
ROOT
HETATM    1  N   UNL     1      41.780 -17.810   1.813  1.00  0.00    -0.353 N 
HETATM    2  C   UNL     1      43.092 -18.173   1.614  1.00  0.00     0.254 C 
HETATM    3  O   UNL     1      43.766 -17.747   0.681  1.00  0.00    -0.268 OA
HETATM    4  H   UNL     1      41.253 -18.254   2.565  1.00  0.00     0.163 HD
ENDROOT
BRANCH   1   5
HETATM    5  C   UNL     1      41.108 -16.973   0.855  1.00  0.00     0.161 C 
BRANCH   5   6
HETATM    6  C   UNL     1      40.945 -15.560   1.336  1.00  0.00    -0.035 A 
HETATM    7  C   UNL     1      39.960 -15.227   2.270  1.00  0.00     0.028 A 
HETATM    8  C   UNL     1      39.896 -13.921   2.733  1.00  0.00     0.120 A 
HETATM    9  N   UNL     1      40.735 -12.940   2.340  1.00  0.00    -0.237 NA
HETATM   10  C   UNL     1      41.664 -13.280   1.425  1.00  0.00     0.164 A 
HETATM   11  C   UNL     1      41.797 -14.548   0.884  1.00  0.00     0.066 A 
BRANCH  10  12
HETATM   12  O   UNL     1      42.558 -12.322   0.989  1.00  0.00    -0.329 OA
BRANCH  12  13
HETATM   13  C   UNL     1      42.167 -11.606  -0.202  1.00  0.00     0.130 C 
HETATM   14  C   UNL     1      42.918 -10.264  -0.420  1.00  0.00     0.032 C 
HETATM   15  C   UNL     1      42.886 -10.568  -1.928  1.00  0.00     0.005 C 
HETATM   16  C   UNL     1      42.783 -12.058  -1.553  1.00  0.00     0.032 C 
ENDBRANCH  12  13
ENDBRANCH  10  12
ENDBRANCH   5   6
ENDBRANCH   1   5
BRANCH   2  17
HETATM   17  C   UNL     1      43.690 -19.130   2.575  1.00  0.00     0.066 A 
HETATM   18  C   UNL     1      43.985 -18.778   3.907  1.00  0.00     0.100 A 
HETATM   19  C   UNL     1      44.543 -19.738   4.753  1.00  0.00     0.066 A 
HETATM   20  N   UNL     1      43.816 -17.586   4.585  1.00  0.00    -0.241 NA
HETATM   21  N   UNL     1      44.705 -19.089   5.952  1.00  0.00    -0.349 N 
HETATM   22  C   UNL     1      44.826 -21.044   4.351  1.00  0.00     0.074 A 
HETATM   23  H   UNL     1      45.087 -19.488   6.799  1.00  0.00     0.167 HD
HETATM   24  C   UNL     1      44.257 -17.807   5.803  1.00  0.00     0.208 A 
HETATM   25  C   UNL     1      44.522 -21.366   3.028  1.00  0.00     0.119 A 
HETATM   26  F   UNL     1      44.774 -22.608   2.592  1.00  0.00    -0.206 F 
HETATM   27  C   UNL     1      43.969 -20.442   2.150  1.00  0.00     0.061 A 
ENDBRANCH   2  17
TORSDOF 5
ENDMDL
MODEL 5
REMARK VINA RESULT:      -7.6      1.788      4.160
REMARK  5 active torsions:
REMARK  status: ('A' for Active; 'I' for Inactive)
REMARK    1  A    between atoms: C_2  and  C_3 
REMARK    2  A    between atoms: C_3  and  N_4 
REMARK       I    between atoms: N_4  and  C_5 
REMARK    3  A    between atoms: C_5  and  C_6 
REMARK    4  A    between atoms: C_19  and  O_20 
REMARK    5  A    between atoms: O_20  and  C_21 
ROOT
HETATM    1  N   UNL     1      42.703 -15.387   5.945  1.00  0.00    -0.353 N 
HETATM    2  C   UNL     1      41.370 -15.659   5.746  1.00  0.00     0.254 C 
HETATM    3  O   UNL     1      40.711 -16.354   6.514  1.00  0.00    -0.268 OA
HETATM    4  H   UNL     1      43.212 -14.863   5.233  1.00  0.00     0.163 HD
ENDROOT
BRANCH   1   5
HETATM    5  C   UNL     1      43.413 -16.001   7.036  1.00  0.00     0.161 C 
BRANCH   5   6
HETATM    6  C   UNL     1      43.738 -17.443   6.774  1.00  0.00    -0.035 A 
HETATM    7  C   UNL     1      43.563 -18.411   7.767  1.00  0.00     0.028 A 
HETATM    8  C   UNL     1      43.813 -19.739   7.453  1.00  0.00     0.120 A 
HETATM    9  N   UNL     1      44.215 -20.164   6.237  1.00  0.00    -0.237 NA
HETATM   10  C   UNL     1      44.396 -19.210   5.302  1.00  0.00     0.164 A 
HETATM   11  C   UNL     1      44.195 -17.857   5.520  1.00  0.00     0.066 A 
BRANCH  10  12
HETATM   12  O   UNL     1      44.798 -19.582   4.034  1.00  0.00    -0.329 OA
BRANCH  12  13
HETATM   13  C   UNL     1      43.896 -20.464   3.332  1.00  0.00     0.130 C 
HETATM   14  C   UNL     1      43.639 -20.073   1.852  1.00  0.00     0.032 C 
HETATM   15  C   UNL     1      43.595 -21.577   1.531  1.00  0.00     0.005 C 
HETATM   16  C   UNL     1      44.470 -21.795   2.779  1.00  0.00     0.032 C 
ENDBRANCH  12  13
ENDBRANCH  10  12
ENDBRANCH   5   6
ENDBRANCH   1   5
BRANCH   2  17
HETATM   17  C   UNL     1      40.728 -15.088   4.538  1.00  0.00     0.066 A 
HETATM   18  C   UNL     1      40.631 -15.800   3.326  1.00  0.00     0.100 A 
HETATM   19  C   UNL     1      40.007 -15.195   2.234  1.00  0.00     0.066 A 
HETATM   20  N   UNL     1      41.062 -17.068   2.986  1.00  0.00    -0.241 NA
HETATM   21  N   UNL     1      40.077 -16.132   1.233  1.00  0.00    -0.349 N 
HETATM   22  C   UNL     1      39.463 -13.910   2.275  1.00  0.00     0.074 A 
HETATM   23  H   UNL     1      39.720 -16.029   0.293  1.00  0.00     0.167 HD
HETATM   24  C   UNL     1      40.717 -17.233   1.729  1.00  0.00     0.208 A 
HETATM   25  C   UNL     1      39.571 -13.229   3.487  1.00  0.00     0.119 A 
HETATM   26  F   UNL     1      39.063 -11.992   3.580  1.00  0.00    -0.206 F 
HETATM   27  C   UNL     1      40.187 -13.791   4.600  1.00  0.00     0.061 A 
ENDBRANCH   2  17
TORSDOF 5
ENDMDL
MODEL 6
REMARK VINA RESULT:      -7.5      3.999      7.999
REMARK  5 active torsions:
REMARK  status: ('A' for Active; 'I' for Inactive)
REMARK    1  A    between atoms: C_2  and  C_3 
REMARK    2  A    between atoms: C_3  and  N_4 
REMARK       I    between atoms: N_4  and  C_5 
REMARK    3  A    between atoms: C_5  and  C_6 
REMARK    4  A    between atoms: C_19  and  O_20 
REMARK    5  A    between atoms: O_20  and  C_21 
ROOT
HETATM    1  N   UNL     1      41.811 -16.227   2.287  1.00  0.00    -0.353 N 
HETATM    2  C   UNL     1      41.702 -17.561   1.971  1.00  0.00     0.254 C 
HETATM    3  O   UNL     1      40.801 -18.006   1.266  1.00  0.00    -0.268 OA
HETATM    4  H   UNL     1      42.540 -15.931   2.936  1.00  0.00     0.163 HD
ENDROOT
BRANCH   1   5
HETATM    5  C   UNL     1      40.793 -15.299   1.871  1.00  0.00     0.161 C 
BRANCH   5   6
HETATM    6  C   UNL     1      41.122 -14.626   0.571  1.00  0.00    -0.035 A 
HETATM    7  C   UNL     1      41.729 -13.367   0.546  1.00  0.00     0.028 A 
HETATM    8  C   UNL     1      42.074 -12.819  -0.681  1.00  0.00     0.120 A 
HETATM    9  N   UNL     1      41.864 -13.429  -1.866  1.00  0.00    -0.237 NA
HETATM   10  C   UNL     1      41.259 -14.632  -1.817  1.00  0.00     0.164 A 
HETATM   11  C   UNL     1      40.856 -15.256  -0.648  1.00  0.00     0.066 A 
BRANCH  10  12
HETATM   12  O   UNL     1      41.023 -15.312  -2.997  1.00  0.00    -0.329 OA
BRANCH  12  13
HETATM   13  C   UNL     1      39.838 -14.912  -3.716  1.00  0.00     0.130 C 
HETATM   14  C   UNL     1      38.944 -16.090  -4.187  1.00  0.00     0.032 C 
HETATM   15  C   UNL     1      37.726 -15.197  -3.894  1.00  0.00     0.005 C 
HETATM   16  C   UNL     1      38.613 -14.441  -2.888  1.00  0.00     0.032 C 
ENDBRANCH  12  13
ENDBRANCH  10  12
ENDBRANCH   5   6
ENDBRANCH   1   5
BRANCH   2  17
HETATM   17  C   UNL     1      42.721 -18.481   2.528  1.00  0.00     0.066 A 
HETATM   18  C   UNL     1      43.345 -18.254   3.771  1.00  0.00     0.100 A 
HETATM   19  C   UNL     1      44.293 -19.170   4.231  1.00  0.00     0.066 A 
HETATM   20  N   UNL     1      43.190 -17.231   4.687  1.00  0.00    -0.241 NA
HETATM   21  N   UNL     1      44.700 -18.668   5.442  1.00  0.00    -0.349 N 
HETATM   22  C   UNL     1      44.660 -20.316   3.522  1.00  0.00     0.074 A 
HETATM   23  H   UNL     1      45.386 -19.081   6.058  1.00  0.00     0.167 HD
HETATM   24  C   UNL     1      44.014 -17.509   5.671  1.00  0.00     0.208 A 
HETATM   25  C   UNL     1      44.025 -20.517   2.297  1.00  0.00     0.119 A 
HETATM   26  F   UNL     1      44.342 -21.603   1.577  1.00  0.00    -0.206 F 
HETATM   27  C   UNL     1      43.078 -19.630   1.798  1.00  0.00     0.061 A 
ENDBRANCH   2  17
TORSDOF 5
ENDMDL
MODEL 7
REMARK VINA RESULT:      -7.5      3.464      7.690
REMARK  5 active torsions:
REMARK  status: ('A' for Active; 'I' for Inactive)
REMARK    1  A    between atoms: C_2  and  C_3 
REMARK    2  A    between atoms: C_3  and  N_4 
REMARK       I    between atoms: N_4  and  C_5 
REMARK    3  A    between atoms: C_5  and  C_6 
REMARK    4  A    between atoms: C_19  and  O_20 
REMARK    5  A    between atoms: O_20  and  C_21 
ROOT
HETATM    1  N   UNL     1      43.477 -16.581   3.168  1.00  0.00    -0.353 N 
HETATM    2  C   UNL     1      43.883 -17.497   2.226  1.00  0.00     0.254 C 
HETATM    3  O   UNL     1      44.111 -17.194   1.059  1.00  0.00    -0.268 OA
HETATM    4  H   UNL     1      43.233 -16.908   4.103  1.00  0.00     0.163 HD
ENDROOT
BRANCH   1   5
HETATM    5  C   UNL     1      43.207 -15.220   2.786  1.00  0.00     0.161 C 
BRANCH   5   6
HETATM    6  C   UNL     1      41.767 -14.996   2.425  1.00  0.00    -0.035 A 
HETATM    7  C   UNL     1      40.792 -14.851   3.416  1.00  0.00     0.028 A 
HETATM    8  C   UNL     1      39.487 -14.578   3.031  1.00  0.00     0.120 A 
HETATM    9  N   UNL     1      39.093 -14.439   1.748  1.00  0.00    -0.237 NA
HETATM   10  C   UNL     1      40.047 -14.603   0.810  1.00  0.00     0.164 A 
HETATM   11  C   UNL     1      41.371 -14.898   1.088  1.00  0.00     0.066 A 
BRANCH  10  12
HETATM   12  O   UNL     1      39.708 -14.464  -0.522  1.00  0.00    -0.329 OA
BRANCH  12  13
HETATM   13  C   UNL     1      40.813 -14.505  -1.449  1.00  0.00     0.130 C 
HETATM   14  C   UNL     1      40.564 -15.380  -2.707  1.00  0.00     0.032 C 
HETATM   15  C   UNL     1      41.370 -14.343  -3.508  1.00  0.00     0.005 C 
HETATM   16  C   UNL     1      40.980 -13.314  -2.430  1.00  0.00     0.032 C 
ENDBRANCH  12  13
ENDBRANCH  10  12
ENDBRANCH   5   6
ENDBRANCH   1   5
BRANCH   2  17
HETATM   17  C   UNL     1      44.030 -18.906   2.662  1.00  0.00     0.066 A 
HETATM   18  C   UNL     1      44.267 -19.260   4.005  1.00  0.00     0.100 A 
HETATM   19  C   UNL     1      44.390 -20.611   4.337  1.00  0.00     0.066 A 
HETATM   20  N   UNL     1      44.409 -18.478   5.134  1.00  0.00    -0.241 NA
HETATM   21  N   UNL     1      44.610 -20.615   5.692  1.00  0.00    -0.349 N 
HETATM   22  C   UNL     1      44.287 -21.643   3.403  1.00  0.00     0.074 A 
HETATM   23  H   UNL     1      44.746 -21.431   6.272  1.00  0.00     0.167 HD
HETATM   24  C   UNL     1      44.614 -19.318   6.123  1.00  0.00     0.208 A 
HETATM   25  C   UNL     1      44.051 -21.264   2.082  1.00  0.00     0.119 A 
HETATM   26  F   UNL     1      43.943 -22.218   1.147  1.00  0.00    -0.206 F 
HETATM   27  C   UNL     1      43.925 -19.932   1.705  1.00  0.00     0.061 A 
ENDBRANCH   2  17
TORSDOF 5
ENDMDL
MODEL 8
REMARK VINA RESULT:      -7.4      3.747      7.401
REMARK  5 active torsions:
REMARK  status: ('A' for Active; 'I' for Inactive)
REMARK    1  A    between atoms: C_2  and  C_3 
REMARK    2  A    between atoms: C_3  and  N_4 
REMARK       I    between atoms: N_4  and  C_5 
REMARK    3  A    between atoms: C_5  and  C_6 
REMARK    4  A    between atoms: C_19  and  O_20 
REMARK    5  A    between atoms: O_20  and  C_21 
ROOT
HETATM    1  N   UNL     1      42.356 -17.653   3.155  1.00  0.00    -0.353 N 
HETATM    2  C   UNL     1      43.299 -18.433   3.784  1.00  0.00     0.254 C 
HETATM    3  O   UNL     1      43.989 -19.253   3.186  1.00  0.00    -0.268 OA
HETATM    4  H   UNL     1      41.765 -17.042   3.718  1.00  0.00     0.163 HD
ENDROOT
BRANCH   1   5
HETATM    5  C   UNL     1      42.073 -17.845   1.757  1.00  0.00     0.161 C 
BRANCH   5   6
HETATM    6  C   UNL     1      41.313 -16.697   1.159  1.00  0.00    -0.035 A 
HETATM    7  C   UNL     1      40.398 -15.965   1.920  1.00  0.00     0.028 A 
HETATM    8  C   UNL     1      39.773 -14.871   1.339  1.00  0.00     0.120 A 
HETATM    9  N   UNL     1      39.995 -14.459   0.074  1.00  0.00    -0.237 NA
HETATM   10  C   UNL     1      40.867 -15.193  -0.647  1.00  0.00     0.164 A 
HETATM   11  C   UNL     1      41.527 -16.313  -0.168  1.00  0.00     0.066 A 
BRANCH  10  12
HETATM   12  O   UNL     1      41.144 -14.817  -1.947  1.00  0.00    -0.329 OA
BRANCH  12  13
HETATM   13  C   UNL     1      41.263 -13.395  -2.169  1.00  0.00     0.130 C 
HETATM   14  C   UNL     1      42.677 -12.818  -1.891  1.00  0.00     0.032 C 
HETATM   15  C   UNL     1      42.448 -11.865  -3.077  1.00  0.00     0.005 C 
HETATM   16  C   UNL     1      41.455 -12.904  -3.628  1.00  0.00     0.032 C 
ENDBRANCH  12  13
ENDBRANCH  10  12
ENDBRANCH   5   6
ENDBRANCH   1   5
BRANCH   2  17
HETATM   17  C   UNL     1      43.459 -18.265   5.247  1.00  0.00     0.066 A 
HETATM   18  C   UNL     1      43.514 -16.997   5.860  1.00  0.00     0.100 A 
HETATM   19  C   UNL     1      43.662 -16.922   7.246  1.00  0.00     0.066 A 
HETATM   20  N   UNL     1      43.443 -15.728   5.320  1.00  0.00    -0.241 NA
HETATM   21  N   UNL     1      43.679 -15.576   7.519  1.00  0.00    -0.349 N 
HETATM   22  C   UNL     1      43.757 -18.045   8.070  1.00  0.00     0.074 A 
HETATM   23  H   UNL     1      43.773 -15.155   8.433  1.00  0.00     0.167 HD
HETATM   24  C   UNL     1      43.546 -14.904   6.337  1.00  0.00     0.208 A 
HETATM   25  C   UNL     1      43.698 -19.286   7.438  1.00  0.00     0.119 A 
HETATM   26  F   UNL     1      43.783 -20.395   8.185  1.00  0.00    -0.206 F 
HETATM   27  C   UNL     1      43.554 -19.409   6.060  1.00  0.00     0.061 A 
ENDBRANCH   2  17
TORSDOF 5
ENDMDL
MODEL 9
REMARK VINA RESULT:      -7.3      3.060      6.634
REMARK  5 active torsions:
REMARK  status: ('A' for Active; 'I' for Inactive)
REMARK    1  A    between atoms: C_2  and  C_3 
REMARK    2  A    between atoms: C_3  and  N_4 
REMARK       I    between atoms: N_4  and  C_5 
REMARK    3  A    between atoms: C_5  and  C_6 
REMARK    4  A    between atoms: C_19  and  O_20 
REMARK    5  A    between atoms: O_20  and  C_21 
ROOT
HETATM    1  N   UNL     1      41.879 -17.596   1.722  1.00  0.00    -0.353 N 
HETATM    2  C   UNL     1      43.193 -18.002   1.688  1.00  0.00     0.254 C 
HETATM    3  O   UNL     1      43.912 -17.845   0.705  1.00  0.00    -0.268 OA
HETATM    4  H   UNL     1      41.314 -17.819   2.542  1.00  0.00     0.163 HD
ENDROOT
BRANCH   1   5
HETATM    5  C   UNL     1      41.260 -17.047   0.545  1.00  0.00     0.161 C 
BRANCH   5   6
HETATM    6  C   UNL     1      41.501 -15.572   0.400  1.00  0.00    -0.035 A 
HETATM    7  C   UNL     1      41.245 -14.916  -0.808  1.00  0.00     0.028 A 
HETATM    8  C   UNL     1      41.420 -13.541  -0.868  1.00  0.00     0.120 A 
HETATM    9  N   UNL     1      41.822 -12.785   0.174  1.00  0.00    -0.237 NA
HETATM   10  C   UNL     1      42.081 -13.442   1.322  1.00  0.00     0.164 A 
HETATM   11  C   UNL     1      41.959 -14.813   1.481  1.00  0.00     0.066 A 
BRANCH  10  12
HETATM   12  O   UNL     1      42.488 -12.723   2.429  1.00  0.00    -0.329 OA
BRANCH  12  13
HETATM   13  C   UNL     1      42.332 -13.396   3.697  1.00  0.00     0.130 C 
HETATM   14  C   UNL     1      43.668 -13.781   4.388  1.00  0.00     0.032 C 
HETATM   15  C   UNL     1      42.989 -13.459   5.731  1.00  0.00     0.005 C 
HETATM   16  C   UNL     1      42.047 -12.525   4.949  1.00  0.00     0.032 C 
ENDBRANCH  12  13
ENDBRANCH  10  12
ENDBRANCH   5   6
ENDBRANCH   1   5
BRANCH   2  17
HETATM   17  C   UNL     1      43.735 -18.665   2.897  1.00  0.00     0.066 A 
HETATM   18  C   UNL     1      44.035 -20.042   2.932  1.00  0.00     0.100 A 
HETATM   19  C   UNL     1      44.548 -20.593   4.108  1.00  0.00     0.066 A 
HETATM   20  N   UNL     1      43.913 -21.019   1.963  1.00  0.00    -0.241 NA
HETATM   21  N   UNL     1      44.728 -21.922   3.817  1.00  0.00    -0.349 N 
HETATM   22  C   UNL     1      44.788 -19.848   5.264  1.00  0.00     0.074 A 
HETATM   23  H   UNL     1      45.088 -22.627   4.446  1.00  0.00     0.167 HD
HETATM   24  C   UNL     1      44.333 -22.129   2.525  1.00  0.00     0.208 A 
HETATM   25  C   UNL     1      44.484 -18.488   5.200  1.00  0.00     0.119 A 
HETATM   26  F   UNL     1      44.698 -17.728   6.283  1.00  0.00    -0.206 F 
HETATM   27  C   UNL     1      43.969 -17.897   4.052  1.00  0.00     0.061 A 
ENDBRANCH   2  17
TORSDOF 5
ENDMDL
MODEL 10
REMARK VINA RESULT:      -7.3      2.227      4.270
REMARK  5 active torsions:
REMARK  status: ('A' for Active; 'I' for Inactive)
REMARK    1  A    between atoms: C_2  and  C_3 
REMARK    2  A    between atoms: C_3  and  N_4 
REMARK       I    between atoms: N_4  and  C_5 
REMARK    3  A    between atoms: C_5  and  C_6 
REMARK    4  A    between atoms: C_19  and  O_20 
REMARK    5  A    between atoms: O_20  and  C_21 
ROOT
HETATM    1  N   UNL     1      42.817 -15.774   5.031  1.00  0.00    -0.353 N 
HETATM    2  C   UNL     1      41.452 -15.709   4.875  1.00  0.00     0.254 C 
HETATM    3  O   UNL     1      40.667 -15.914   5.797  1.00  0.00    -0.268 OA
HETATM    4  H   UNL     1      43.414 -15.665   4.211  1.00  0.00     0.163 HD
ENDROOT
BRANCH   1   5
HETATM    5  C   UNL     1      43.384 -16.190   6.287  1.00  0.00     0.161 C 
BRANCH   5   6
HETATM    6  C   UNL     1      43.736 -17.649   6.307  1.00  0.00    -0.035 A 
HETATM    7  C   UNL     1      43.460 -18.440   7.426  1.00  0.00     0.028 A 
HETATM    8  C   UNL     1      43.743 -19.797   7.368  1.00  0.00     0.120 A 
HETATM    9  N   UNL     1      44.270 -20.412   6.288  1.00  0.00    -0.237 NA
HETATM   10  C   UNL     1      44.547 -19.625   5.230  1.00  0.00     0.164 A 
HETATM   11  C   UNL     1      44.322 -18.258   5.194  1.00  0.00     0.066 A 
BRANCH  10  12
HETATM   12  O   UNL     1      45.080 -20.196   4.090  1.00  0.00    -0.329 OA
BRANCH  12  13
HETATM   13  C   UNL     1      44.177 -21.032   3.336  1.00  0.00     0.130 C 
HETATM   14  C   UNL     1      43.643 -20.385   2.029  1.00  0.00     0.032 C 
HETATM   15  C   UNL     1      43.710 -21.782   1.389  1.00  0.00     0.005 C 
HETATM   16  C   UNL     1      44.793 -22.128   2.427  1.00  0.00     0.032 C 
ENDBRANCH  12  13
ENDBRANCH  10  12
ENDBRANCH   5   6
ENDBRANCH   1   5
BRANCH   2  17
HETATM   17  C   UNL     1      40.933 -15.388   3.525  1.00  0.00     0.066 A 
HETATM   18  C   UNL     1      40.190 -14.220   3.259  1.00  0.00     0.100 A 
HETATM   19  C   UNL     1      39.740 -13.985   1.959  1.00  0.00     0.066 A 
HETATM   20  N   UNL     1      39.798 -13.190   4.092  1.00  0.00    -0.241 NA
HETATM   21  N   UNL     1      39.066 -12.791   2.037  1.00  0.00    -0.349 N 
HETATM   22  C   UNL     1      39.987 -14.852   0.893  1.00  0.00     0.074 A 
HETATM   23  H   UNL     1      38.605 -12.316   1.274  1.00  0.00     0.167 HD
HETATM   24  C   UNL     1      39.127 -12.355   3.331  1.00  0.00     0.208 A 
HETATM   25  C   UNL     1      40.725 -15.999   1.184  1.00  0.00     0.119 A 
HETATM   26  F   UNL     1      40.992 -16.862   0.194  1.00  0.00    -0.206 F 
HETATM   27  C   UNL     1      41.192 -16.274   2.464  1.00  0.00     0.061 A 
ENDBRANCH   2  17
TORSDOF 5
ENDMDL
