MODEL 1
REMARK VINA RESULT:      -7.4      0.000      0.000
REMARK  5 active torsions:
REMARK  status: ('A' for Active; 'I' for Inactive)
REMARK    1  A    between atoms: C_3  and  N_4 
REMARK       I    between atoms: N_4  and  C_5 
REMARK       I    between atoms: C_5  and  N_6 
REMARK    2  A    between atoms: N_6  and  C_7 
REMARK    3  A    between atoms: C_7  and  C_8 
REMARK    4  A    between atoms: C_8  and  C_9 
REMARK    5  A    between atoms: N_16  and  C_17 
ROOT
HETATM    1  C   UNL     1      44.343 -14.753   7.352  1.00  0.00     0.054 C 
HETATM    2  C   UNL     1      43.838 -15.992   6.710  1.00  0.00     0.003 A 
HETATM    3  C   UNL     1      42.544 -16.299   6.219  1.00  0.00     0.159 A 
HETATM    4  N   UNL     1      42.479 -17.551   5.760  1.00  0.00    -0.149 NA
HETATM    5  N   UNL     1      43.755 -18.039   5.842  1.00  0.00    -0.241 N 
HETATM    6  C   UNL     1      44.565 -17.142   6.495  1.00  0.00     0.129 A 
ENDROOT
BRANCH   3   7
HETATM    7  N   UNL     1      41.492 -15.413   6.252  1.00  0.00    -0.291 N 
HETATM    8  C   UNL     1      40.678 -14.958   5.271  1.00  0.00     0.321 C 
HETATM    9  N   UNL     1      40.881 -15.385   3.998  1.00  0.00    -0.342 N 
HETATM   10  O   UNL     1      39.775 -14.179   5.578  1.00  0.00    -0.247 OA
HETATM   11  H   UNL     1      41.529 -16.158   3.880  1.00  0.00     0.164 HD
HETATM   12  H   UNL     1      41.241 -15.035   7.152  1.00  0.00     0.172 HD
BRANCH   9  13
HETATM   13  C   UNL     1      39.897 -15.071   2.989  1.00  0.00     0.134 C 
BRANCH  13  14
HETATM   14  C   UNL     1      40.509 -14.497   1.723  1.00  0.00    -0.021 A 
HETATM   15  C   UNL     1      39.885 -13.190   1.241  1.00  0.00     0.012 A 
HETATM   16  C   UNL     1      41.248 -13.173   1.860  1.00  0.00     0.012 A 
BRANCH  14  17
HETATM   17  C   UNL     1      40.922 -15.562   0.676  1.00  0.00    -0.004 A 
HETATM   18  C   UNL     1      42.255 -16.279   0.679  1.00  0.00     0.006 A 
HETATM   19  C   UNL     1      41.004 -17.036   0.996  1.00  0.00     0.006 A 
ENDBRANCH  14  17
ENDBRANCH  13  14
ENDBRANCH   9  13
ENDBRANCH   3   7
BRANCH   5  20
HETATM   20  C   UNL     1      44.060 -19.342   5.342  1.00  0.00     0.079 A 
HETATM   21  C   UNL     1      44.313 -19.654   3.995  1.00  0.00     0.062 A 
HETATM   22 CL   UNL     1      44.132 -18.579   2.654  1.00  0.00    -0.082 Cl
HETATM   23  C   UNL     1      44.655 -20.971   3.635  1.00  0.00     0.026 A 
HETATM   24  C   UNL     1      44.727 -21.984   4.588  1.00  0.00     0.002 A 
HETATM   25  C   UNL     1      44.444 -21.695   5.915  1.00  0.00     0.002 A 
HETATM   26  C   UNL     1      44.110 -20.390   6.285  1.00  0.00     0.033 A 
ENDBRANCH   5  20
TORSDOF 5
ENDMDL
MODEL 2
REMARK VINA RESULT:      -7.4      2.724      3.750
REMARK  5 active torsions:
REMARK  status: ('A' for Active; 'I' for Inactive)
REMARK    1  A    between atoms: C_3  and  N_4 
REMARK       I    between atoms: N_4  and  C_5 
REMARK       I    between atoms: C_5  and  N_6 
REMARK    2  A    between atoms: N_6  and  C_7 
REMARK    3  A    between atoms: C_7  and  C_8 
REMARK    4  A    between atoms: C_8  and  C_9 
REMARK    5  A    between atoms: N_16  and  C_17 
ROOT
HETATM    1  C   UNL     1      42.828 -14.202   3.133  1.00  0.00     0.054 C 
HETATM    2  C   UNL     1      42.594 -15.665   3.050  1.00  0.00     0.003 A 
HETATM    3  C   UNL     1      41.390 -16.382   2.832  1.00  0.00     0.159 A 
HETATM    4  N   UNL     1      41.590 -17.701   2.881  1.00  0.00    -0.149 NA
HETATM    5  N   UNL     1      42.942 -17.862   3.021  1.00  0.00    -0.241 N 
HETATM    6  C   UNL     1      43.547 -16.645   3.214  1.00  0.00     0.129 A 
ENDROOT
BRANCH   3   7
HETATM    7  N   UNL     1      40.173 -15.773   2.629  1.00  0.00    -0.291 N 
HETATM    8  C   UNL     1      39.652 -15.162   1.540  1.00  0.00     0.321 C 
HETATM    9  N   UNL     1      40.405 -15.072   0.414  1.00  0.00    -0.342 N 
HETATM   10  O   UNL     1      38.505 -14.720   1.612  1.00  0.00    -0.247 OA
HETATM   11  H   UNL     1      41.260 -15.621   0.398  1.00  0.00     0.164 HD
HETATM   12  H   UNL     1      39.521 -15.787   3.398  1.00  0.00     0.172 HD
BRANCH   9  13
HETATM   13  C   UNL     1      39.787 -14.612  -0.808  1.00  0.00     0.134 C 
BRANCH  13  14
HETATM   14  C   UNL     1      40.785 -14.411  -1.936  1.00  0.00    -0.021 A 
HETATM   15  C   UNL     1      40.916 -15.589  -2.897  1.00  0.00     0.012 A 
HETATM   16  C   UNL     1      40.218 -14.343  -3.347  1.00  0.00     0.012 A 
BRANCH  14  17
HETATM   17  C   UNL     1      42.060 -13.631  -1.526  1.00  0.00    -0.004 A 
HETATM   18  C   UNL     1      42.675 -12.521  -2.350  1.00  0.00     0.006 A 
HETATM   19  C   UNL     1      42.026 -12.202  -1.040  1.00  0.00     0.006 A 
ENDBRANCH  14  17
ENDBRANCH  13  14
ENDBRANCH   9  13
ENDBRANCH   3   7
BRANCH   5  20
HETATM   20  C   UNL     1      43.514 -19.172   3.017  1.00  0.00     0.079 A 
HETATM   21  C   UNL     1      44.314 -19.709   4.040  1.00  0.00     0.062 A 
HETATM   22 CL   UNL     1      44.918 -18.849   5.412  1.00  0.00    -0.082 Cl
HETATM   23  C   UNL     1      44.776 -21.035   3.943  1.00  0.00     0.026 A 
HETATM   24  C   UNL     1      44.474 -21.825   2.837  1.00  0.00     0.002 A 
HETATM   25  C   UNL     1      43.715 -21.292   1.804  1.00  0.00     0.002 A 
HETATM   26  C   UNL     1      43.245 -19.980   1.893  1.00  0.00     0.033 A 
ENDBRANCH   5  20
TORSDOF 5
ENDMDL
MODEL 3
REMARK VINA RESULT:      -7.4      1.118      1.990
REMARK  5 active torsions:
REMARK  status: ('A' for Active; 'I' for Inactive)
REMARK    1  A    between atoms: C_3  and  N_4 
REMARK       I    between atoms: N_4  and  C_5 
REMARK       I    between atoms: C_5  and  N_6 
REMARK    2  A    between atoms: N_6  and  C_7 
REMARK    3  A    between atoms: C_7  and  C_8 
REMARK    4  A    between atoms: C_8  and  C_9 
REMARK    5  A    between atoms: N_16  and  C_17 
ROOT
HETATM    1  C   UNL     1      44.367 -15.306   7.007  1.00  0.00     0.054 C 
HETATM    2  C   UNL     1      43.929 -16.432   6.144  1.00  0.00     0.003 A 
HETATM    3  C   UNL     1      42.807 -16.533   5.282  1.00  0.00     0.159 A 
HETATM    4  N   UNL     1      42.732 -17.740   4.717  1.00  0.00    -0.149 NA
HETATM    5  N   UNL     1      43.862 -18.403   5.115  1.00  0.00    -0.241 N 
HETATM    6  C   UNL     1      44.545 -17.659   6.046  1.00  0.00     0.129 A 
ENDROOT
BRANCH   3   7
HETATM    7  N   UNL     1      41.905 -15.512   5.092  1.00  0.00    -0.291 N 
HETATM    8  C   UNL     1      41.609 -14.776   3.996  1.00  0.00     0.321 C 
HETATM    9  N   UNL     1      42.291 -15.007   2.845  1.00  0.00    -0.342 N 
HETATM   10  O   UNL     1      40.718 -13.930   4.085  1.00  0.00    -0.247 OA
HETATM   11  H   UNL     1      42.872 -15.840   2.825  1.00  0.00     0.164 HD
HETATM   12  H   UNL     1      41.330 -15.258   5.880  1.00  0.00     0.172 HD
BRANCH   9  13
HETATM   13  C   UNL     1      41.842 -14.377   1.625  1.00  0.00     0.134 C 
BRANCH  13  14
HETATM   14  C   UNL     1      40.878 -15.243   0.833  1.00  0.00    -0.021 A 
HETATM   15  C   UNL     1      41.533 -16.165  -0.192  1.00  0.00     0.012 A 
HETATM   16  C   UNL     1      40.959 -16.746   1.063  1.00  0.00     0.012 A 
BRANCH  14  17
HETATM   17  C   UNL     1      39.546 -14.541   0.467  1.00  0.00    -0.004 A 
HETATM   18  C   UNL     1      38.345 -14.471   1.386  1.00  0.00     0.006 A 
HETATM   19  C   UNL     1      39.118 -13.228   1.077  1.00  0.00     0.006 A 
ENDBRANCH  14  17
ENDBRANCH  13  14
ENDBRANCH   9  13
ENDBRANCH   3   7
BRANCH   5  20
HETATM   20  C   UNL     1      44.144 -19.710   4.611  1.00  0.00     0.079 A 
HETATM   21  C   UNL     1      44.189 -20.061   3.251  1.00  0.00     0.062 A 
HETATM   22 CL   UNL     1      43.740 -19.046   1.926  1.00  0.00    -0.082 Cl
HETATM   23  C   UNL     1      44.530 -21.375   2.880  1.00  0.00     0.026 A 
HETATM   24  C   UNL     1      44.805 -22.347   3.838  1.00  0.00     0.002 A 
HETATM   25  C   UNL     1      44.727 -22.021   5.184  1.00  0.00     0.002 A 
HETATM   26  C   UNL     1      44.396 -20.718   5.565  1.00  0.00     0.033 A 
ENDBRANCH   5  20
TORSDOF 5
ENDMDL
MODEL 4
REMARK VINA RESULT:      -7.3      2.659      3.809
REMARK  5 active torsions:
REMARK  status: ('A' for Active; 'I' for Inactive)
REMARK    1  A    between atoms: C_3  and  N_4 
REMARK       I    between atoms: N_4  and  C_5 
REMARK       I    between atoms: C_5  and  N_6 
REMARK    2  A    between atoms: N_6  and  C_7 
REMARK    3  A    between atoms: C_7  and  C_8 
REMARK    4  A    between atoms: C_8  and  C_9 
REMARK    5  A    between atoms: N_16  and  C_17 
ROOT
HETATM    1  C   UNL     1      40.337 -14.804   4.929  1.00  0.00     0.054 C 
HETATM    2  C   UNL     1      41.350 -15.584   4.175  1.00  0.00     0.003 A 
HETATM    3  C   UNL     1      42.256 -15.163   3.168  1.00  0.00     0.159 A 
HETATM    4  N   UNL     1      42.971 -16.187   2.696  1.00  0.00    -0.149 NA
HETATM    5  N   UNL     1      42.621 -17.265   3.464  1.00  0.00    -0.241 N 
HETATM    6  C   UNL     1      41.581 -16.935   4.298  1.00  0.00     0.129 A 
ENDROOT
BRANCH   3   7
HETATM    7  N   UNL     1      42.347 -13.864   2.726  1.00  0.00    -0.291 N 
HETATM    8  C   UNL     1      42.234 -13.334   1.486  1.00  0.00     0.321 C 
HETATM    9  N   UNL     1      42.015 -14.163   0.434  1.00  0.00    -0.342 N 
HETATM   10  O   UNL     1      42.326 -12.111   1.364  1.00  0.00    -0.247 OA
HETATM   11  H   UNL     1      41.777 -15.125   0.660  1.00  0.00     0.164 HD
HETATM   12  H   UNL     1      42.500 -13.153   3.424  1.00  0.00     0.172 HD
BRANCH   9  13
HETATM   13  C   UNL     1      41.687 -13.593  -0.852  1.00  0.00     0.134 C 
BRANCH  13  14
HETATM   14  C   UNL     1      40.629 -14.387  -1.599  1.00  0.00    -0.021 A 
HETATM   15  C   UNL     1      41.061 -14.908  -2.967  1.00  0.00     0.012 A 
HETATM   16  C   UNL     1      40.914 -15.865  -1.825  1.00  0.00     0.012 A 
BRANCH  14  17
HETATM   17  C   UNL     1      39.187 -13.846  -1.423  1.00  0.00    -0.004 A 
HETATM   18  C   UNL     1      38.390 -13.965  -0.142  1.00  0.00     0.006 A 
HETATM   19  C   UNL     1      38.866 -12.622  -0.599  1.00  0.00     0.006 A 
ENDBRANCH  14  17
ENDBRANCH  13  14
ENDBRANCH   9  13
ENDBRANCH   3   7
BRANCH   5  20
HETATM   20  C   UNL     1      43.276 -18.522   3.279  1.00  0.00     0.079 A 
HETATM   21  C   UNL     1      44.192 -19.096   4.177  1.00  0.00     0.062 A 
HETATM   22 CL   UNL     1      44.849 -18.334   5.582  1.00  0.00    -0.082 Cl
HETATM   23  C   UNL     1      44.731 -20.368   3.906  1.00  0.00     0.026 A 
HETATM   24  C   UNL     1      44.390 -21.065   2.749  1.00  0.00     0.002 A 
HETATM   25  C   UNL     1      43.516 -20.490   1.839  1.00  0.00     0.002 A 
HETATM   26  C   UNL     1      42.969 -19.232   2.100  1.00  0.00     0.033 A 
ENDBRANCH   5  20
TORSDOF 5
ENDMDL
MODEL 5
REMARK VINA RESULT:      -7.2      2.598      3.403
REMARK  5 active torsions:
REMARK  status: ('A' for Active; 'I' for Inactive)
REMARK    1  A    between atoms: C_3  and  N_4 
REMARK       I    between atoms: N_4  and  C_5 
REMARK       I    between atoms: C_5  and  N_6 
REMARK    2  A    between atoms: N_6  and  C_7 
REMARK    3  A    between atoms: C_7  and  C_8 
REMARK    4  A    between atoms: C_8  and  C_9 
REMARK    5  A    between atoms: N_16  and  C_17 
ROOT
HETATM    1  C   UNL     1      42.363 -13.933   3.825  1.00  0.00     0.054 C 
HETATM    2  C   UNL     1      42.234 -15.382   3.532  1.00  0.00     0.003 A 
HETATM    3  C   UNL     1      41.110 -16.122   3.083  1.00  0.00     0.159 A 
HETATM    4  N   UNL     1      41.387 -17.424   2.990  1.00  0.00    -0.149 NA
HETATM    5  N   UNL     1      42.723 -17.536   3.269  1.00  0.00    -0.241 N 
HETATM    6  C   UNL     1      43.224 -16.326   3.684  1.00  0.00     0.129 A 
ENDROOT
BRANCH   3   7
HETATM    7  N   UNL     1      39.887 -15.552   2.815  1.00  0.00    -0.291 N 
HETATM    8  C   UNL     1      39.437 -14.876   1.732  1.00  0.00     0.321 C 
HETATM    9  N   UNL     1      40.284 -14.660   0.692  1.00  0.00    -0.342 N 
HETATM   10  O   UNL     1      38.267 -14.492   1.730  1.00  0.00    -0.247 OA
HETATM   11  H   UNL     1      41.163 -15.169   0.714  1.00  0.00     0.164 HD
HETATM   12  H   UNL     1      39.170 -15.656   3.515  1.00  0.00     0.172 HD
BRANCH   9  13
HETATM   13  C   UNL     1      39.756 -14.129  -0.542  1.00  0.00     0.134 C 
BRANCH  13  14
HETATM   14  C   UNL     1      40.835 -13.568  -1.454  1.00  0.00    -0.021 A 
HETATM   15  C   UNL     1      40.971 -12.048  -1.430  1.00  0.00     0.012 A 
HETATM   16  C   UNL     1      42.020 -12.894  -0.777  1.00  0.00     0.012 A 
BRANCH  14  17
HETATM   17  C   UNL     1      40.977 -14.314  -2.805  1.00  0.00    -0.004 A 
HETATM   18  C   UNL     1      41.045 -15.820  -2.937  1.00  0.00     0.006 A 
HETATM   19  C   UNL     1      39.843 -15.085  -3.438  1.00  0.00     0.006 A 
ENDBRANCH  14  17
ENDBRANCH  13  14
ENDBRANCH   9  13
ENDBRANCH   3   7
BRANCH   5  20
HETATM   20  C   UNL     1      43.375 -18.804   3.170  1.00  0.00     0.079 A 
HETATM   21  C   UNL     1      44.234 -19.351   4.137  1.00  0.00     0.062 A 
HETATM   22 CL   UNL     1      44.820 -18.540   5.547  1.00  0.00    -0.082 Cl
HETATM   23  C   UNL     1      44.774 -20.636   3.946  1.00  0.00     0.026 A 
HETATM   24  C   UNL     1      44.491 -21.374   2.799  1.00  0.00     0.002 A 
HETATM   25  C   UNL     1      43.673 -20.829   1.821  1.00  0.00     0.002 A 
HETATM   26  C   UNL     1      43.126 -19.557   2.003  1.00  0.00     0.033 A 
ENDBRANCH   5  20
TORSDOF 5
ENDMDL
MODEL 6
REMARK VINA RESULT:      -7.0      3.178      4.618
REMARK  5 active torsions:
REMARK  status: ('A' for Active; 'I' for Inactive)
REMARK    1  A    between atoms: C_3  and  N_4 
REMARK       I    between atoms: N_4  and  C_5 
REMARK       I    between atoms: C_5  and  N_6 
REMARK    2  A    between atoms: N_6  and  C_7 
REMARK    3  A    between atoms: C_7  and  C_8 
REMARK    4  A    between atoms: C_8  and  C_9 
REMARK    5  A    between atoms: N_16  and  C_17 
ROOT
HETATM    1  C   UNL     1      39.212 -15.173   1.873  1.00  0.00     0.054 C 
HETATM    2  C   UNL     1      40.573 -15.744   2.033  1.00  0.00     0.003 A 
HETATM    3  C   UNL     1      41.841 -15.125   1.890  1.00  0.00     0.159 A 
HETATM    4  N   UNL     1      42.834 -15.999   2.065  1.00  0.00    -0.149 NA
HETATM    5  N   UNL     1      42.231 -17.172   2.433  1.00  0.00    -0.241 N 
HETATM    6  C   UNL     1      40.866 -17.056   2.330  1.00  0.00     0.129 A 
ENDROOT
BRANCH   3   7
HETATM    7  N   UNL     1      42.003 -13.795   1.578  1.00  0.00    -0.291 N 
HETATM    8  C   UNL     1      42.123 -13.167   0.385  1.00  0.00     0.321 C 
HETATM    9  N   UNL     1      42.114 -13.909  -0.752  1.00  0.00    -0.342 N 
HETATM   10  O   UNL     1      42.225 -11.940   0.380  1.00  0.00    -0.247 OA
HETATM   11  H   UNL     1      41.845 -14.884  -0.652  1.00  0.00     0.164 HD
HETATM   12  H   UNL     1      42.015 -13.143   2.347  1.00  0.00     0.172 HD
BRANCH   9  13
HETATM   13  C   UNL     1      42.031 -13.236  -2.027  1.00  0.00     0.134 C 
BRANCH  13  14
HETATM   14  C   UNL     1      40.632 -13.260  -2.619  1.00  0.00    -0.021 A 
HETATM   15  C   UNL     1      39.807 -12.000  -2.370  1.00  0.00     0.012 A 
HETATM   16  C   UNL     1      40.346 -12.271  -3.740  1.00  0.00     0.012 A 
BRANCH  14  17
HETATM   17  C   UNL     1      39.934 -14.641  -2.545  1.00  0.00    -0.004 A 
HETATM   18  C   UNL     1      39.408 -15.388  -3.752  1.00  0.00     0.006 A 
HETATM   19  C   UNL     1      40.593 -15.918  -3.010  1.00  0.00     0.006 A 
ENDBRANCH  14  17
ENDBRANCH  13  14
ENDBRANCH   9  13
ENDBRANCH   3   7
BRANCH   5  20
HETATM   20  C   UNL     1      43.023 -18.307   2.788  1.00  0.00     0.079 A 
HETATM   21  C   UNL     1      43.694 -18.476   4.010  1.00  0.00     0.062 A 
HETATM   22 CL   UNL     1      43.852 -17.285   5.253  1.00  0.00    -0.082 Cl
HETATM   23  C   UNL     1      44.401 -19.667   4.261  1.00  0.00     0.026 A 
HETATM   24  C   UNL     1      44.469 -20.680   3.307  1.00  0.00     0.002 A 
HETATM   25  C   UNL     1      43.841 -20.508   2.082  1.00  0.00     0.002 A 
HETATM   26  C   UNL     1      43.130 -19.333   1.825  1.00  0.00     0.033 A 
ENDBRANCH   5  20
TORSDOF 5
ENDMDL
MODEL 7
REMARK VINA RESULT:      -6.8      2.595      3.478
REMARK  5 active torsions:
REMARK  status: ('A' for Active; 'I' for Inactive)
REMARK    1  A    between atoms: C_3  and  N_4 
REMARK       I    between atoms: N_4  and  C_5 
REMARK       I    between atoms: C_5  and  N_6 
REMARK    2  A    between atoms: N_6  and  C_7 
REMARK    3  A    between atoms: C_7  and  C_8 
REMARK    4  A    between atoms: C_8  and  C_9 
REMARK    5  A    between atoms: N_16  and  C_17 
ROOT
HETATM    1  C   UNL     1      41.579 -13.132   3.830  1.00  0.00     0.054 C 
HETATM    2  C   UNL     1      41.624 -14.600   3.615  1.00  0.00     0.003 A 
HETATM    3  C   UNL     1      40.629 -15.475   3.108  1.00  0.00     0.159 A 
HETATM    4  N   UNL     1      41.043 -16.744   3.119  1.00  0.00    -0.149 NA
HETATM    5  N   UNL     1      42.349 -16.701   3.528  1.00  0.00    -0.241 N 
HETATM    6  C   UNL     1      42.683 -15.426   3.915  1.00  0.00     0.129 A 
ENDROOT
BRANCH   3   7
HETATM    7  N   UNL     1      39.388 -15.051   2.692  1.00  0.00    -0.291 N 
HETATM    8  C   UNL     1      38.969 -14.545   1.509  1.00  0.00     0.321 C 
HETATM    9  N   UNL     1      39.873 -14.373   0.510  1.00  0.00    -0.342 N 
HETATM   10  O   UNL     1      37.775 -14.269   1.383  1.00  0.00    -0.247 OA
HETATM   11  H   UNL     1      40.786 -14.795   0.651  1.00  0.00     0.164 HD
HETATM   12  H   UNL     1      38.631 -15.140   3.351  1.00  0.00     0.172 HD
BRANCH   9  13
HETATM   13  C   UNL     1      39.400 -14.033  -0.811  1.00  0.00     0.134 C 
BRANCH  13  14
HETATM   14  C   UNL     1      40.485 -13.438  -1.693  1.00  0.00    -0.021 A 
HETATM   15  C   UNL     1      40.536 -11.912  -1.709  1.00  0.00     0.012 A 
HETATM   16  C   UNL     1      41.601 -12.679  -0.987  1.00  0.00     0.012 A 
BRANCH  14  17
HETATM   17  C   UNL     1      40.727 -14.211  -3.014  1.00  0.00    -0.004 A 
HETATM   18  C   UNL     1      41.244 -15.631  -3.081  1.00  0.00     0.006 A 
HETATM   19  C   UNL     1      39.833 -15.335  -3.480  1.00  0.00     0.006 A 
ENDBRANCH  14  17
ENDBRANCH  13  14
ENDBRANCH   9  13
ENDBRANCH   3   7
BRANCH   5  20
HETATM   20  C   UNL     1      43.130 -17.897   3.566  1.00  0.00     0.079 A 
HETATM   21  C   UNL     1      43.816 -18.451   2.473  1.00  0.00     0.062 A 
HETATM   22 CL   UNL     1      43.714 -17.913   0.833  1.00  0.00    -0.082 Cl
HETATM   23  C   UNL     1      44.597 -19.609   2.651  1.00  0.00     0.026 A 
HETATM   24  C   UNL     1      44.687 -20.234   3.892  1.00  0.00     0.002 A 
HETATM   25  C   UNL     1      43.984 -19.716   4.970  1.00  0.00     0.002 A 
HETATM   26  C   UNL     1      43.211 -18.564   4.807  1.00  0.00     0.033 A 
ENDBRANCH   5  20
TORSDOF 5
ENDMDL
MODEL 8
REMARK VINA RESULT:      -6.7      4.066      6.080
REMARK  5 active torsions:
REMARK  status: ('A' for Active; 'I' for Inactive)
REMARK    1  A    between atoms: C_3  and  N_4 
REMARK       I    between atoms: N_4  and  C_5 
REMARK       I    between atoms: C_5  and  N_6 
REMARK    2  A    between atoms: N_6  and  C_7 
REMARK    3  A    between atoms: C_7  and  C_8 
REMARK    4  A    between atoms: C_8  and  C_9 
REMARK    5  A    between atoms: N_16  and  C_17 
ROOT
HETATM    1  C   UNL     1      39.043 -13.852   0.393  1.00  0.00     0.054 C 
HETATM    2  C   UNL     1      40.013 -14.932   0.700  1.00  0.00     0.003 A 
HETATM    3  C   UNL     1      40.768 -15.753  -0.177  1.00  0.00     0.159 A 
HETATM    4  N   UNL     1      41.493 -16.650   0.495  1.00  0.00    -0.149 NA
HETATM    5  N   UNL     1      41.307 -16.354   1.819  1.00  0.00    -0.241 N 
HETATM    6  C   UNL     1      40.349 -15.380   1.958  1.00  0.00     0.129 A 
ENDROOT
BRANCH   3   7
HETATM    7  N   UNL     1      40.718 -15.642  -1.547  1.00  0.00    -0.291 N 
HETATM    8  C   UNL     1      41.314 -14.770  -2.393  1.00  0.00     0.321 C 
HETATM    9  N   UNL     1      42.098 -13.787  -1.880  1.00  0.00    -0.342 N 
HETATM   10  O   UNL     1      41.128 -14.911  -3.603  1.00  0.00    -0.247 OA
HETATM   11  H   UNL     1      42.332 -13.865  -0.894  1.00  0.00     0.164 HD
HETATM   12  H   UNL     1      40.170 -16.328  -2.042  1.00  0.00     0.172 HD
BRANCH   9  13
HETATM   13  C   UNL     1      42.899 -12.988  -2.778  1.00  0.00     0.134 C 
BRANCH  13  14
HETATM   14  C   UNL     1      42.475 -11.529  -2.809  1.00  0.00    -0.021 A 
HETATM   15  C   UNL     1      42.321 -10.933  -4.206  1.00  0.00     0.012 A 
HETATM   16  C   UNL     1      41.101 -11.227  -3.389  1.00  0.00     0.012 A 
BRANCH  14  17
HETATM   17  C   UNL     1      43.102 -10.662  -1.688  1.00  0.00    -0.004 A 
HETATM   18  C   UNL     1      42.416  -9.468  -1.059  1.00  0.00     0.006 A 
HETATM   19  C   UNL     1      42.630 -10.710  -0.254  1.00  0.00     0.006 A 
ENDBRANCH  14  17
ENDBRANCH  13  14
ENDBRANCH   9  13
ENDBRANCH   3   7
BRANCH   5  20
HETATM   20  C   UNL     1      42.022 -17.077   2.824  1.00  0.00     0.079 A 
HETATM   21  C   UNL     1      43.368 -17.469   2.736  1.00  0.00     0.062 A 
HETATM   22 CL   UNL     1      44.378 -17.323   1.341  1.00  0.00    -0.082 Cl
HETATM   23  C   UNL     1      43.974 -18.133   3.819  1.00  0.00     0.026 A 
HETATM   24  C   UNL     1      43.257 -18.432   4.975  1.00  0.00     0.002 A 
HETATM   25  C   UNL     1      41.917 -18.083   5.057  1.00  0.00     0.002 A 
HETATM   26  C   UNL     1      41.307 -17.417   3.991  1.00  0.00     0.033 A 
ENDBRANCH   5  20
TORSDOF 5
ENDMDL
MODEL 9
REMARK VINA RESULT:      -6.7      3.281      7.016
REMARK  5 active torsions:
REMARK  status: ('A' for Active; 'I' for Inactive)
REMARK    1  A    between atoms: C_3  and  N_4 
REMARK       I    between atoms: N_4  and  C_5 
REMARK       I    between atoms: C_5  and  N_6 
REMARK    2  A    between atoms: N_6  and  C_7 
REMARK    3  A    between atoms: C_7  and  C_8 
REMARK    4  A    between atoms: C_8  and  C_9 
REMARK    5  A    between atoms: N_16  and  C_17 
ROOT
HETATM    1  C   UNL     1      39.942 -11.524   3.798  1.00  0.00     0.054 C 
HETATM    2  C   UNL     1      40.749 -12.148   2.720  1.00  0.00     0.003 A 
HETATM    3  C   UNL     1      42.018 -12.778   2.784  1.00  0.00     0.159 A 
HETATM    4  N   UNL     1      42.432 -13.166   1.575  1.00  0.00    -0.149 NA
HETATM    5  N   UNL     1      41.393 -12.895   0.727  1.00  0.00    -0.241 N 
HETATM    6  C   UNL     1      40.409 -12.201   1.388  1.00  0.00     0.129 A 
ENDROOT
BRANCH   3   7
HETATM    7  N   UNL     1      42.730 -12.930   3.951  1.00  0.00    -0.291 N 
HETATM    8  C   UNL     1      43.203 -14.037   4.569  1.00  0.00     0.321 C 
HETATM    9  N   UNL     1      42.958 -15.253   4.018  1.00  0.00    -0.342 N 
HETATM   10  O   UNL     1      43.851 -13.893   5.607  1.00  0.00    -0.247 OA
HETATM   11  H   UNL     1      42.575 -15.253   3.077  1.00  0.00     0.164 HD
HETATM   12  H   UNL     1      42.981 -12.089   4.447  1.00  0.00     0.172 HD
BRANCH   9  13
HETATM   13  C   UNL     1      43.631 -16.413   4.552  1.00  0.00     0.134 C 
BRANCH  13  14
HETATM   14  C   UNL     1      42.866 -17.704   4.312  1.00  0.00    -0.021 A 
HETATM   15  C   UNL     1      42.570 -18.520   5.568  1.00  0.00     0.012 A 
HETATM   16  C   UNL     1      41.459 -17.783   4.886  1.00  0.00     0.012 A 
BRANCH  14  17
HETATM   17  C   UNL     1      43.265 -18.447   3.011  1.00  0.00    -0.004 A 
HETATM   18  C   UNL     1      42.694 -18.127   1.646  1.00  0.00     0.006 A 
HETATM   19  C   UNL     1      44.128 -17.820   1.942  1.00  0.00     0.006 A 
ENDBRANCH  14  17
ENDBRANCH  13  14
ENDBRANCH   9  13
ENDBRANCH   3   7
BRANCH   5  20
HETATM   20  C   UNL     1      41.471 -13.274  -0.649  1.00  0.00     0.079 A 
HETATM   21  C   UNL     1      42.281 -12.654  -1.615  1.00  0.00     0.062 A 
HETATM   22 CL   UNL     1      43.203 -11.209  -1.390  1.00  0.00    -0.082 Cl
HETATM   23  C   UNL     1      42.309 -13.156  -2.930  1.00  0.00     0.026 A 
HETATM   24  C   UNL     1      41.529 -14.247  -3.302  1.00  0.00     0.002 A 
HETATM   25  C   UNL     1      40.697 -14.844  -2.366  1.00  0.00     0.002 A 
HETATM   26  C   UNL     1      40.667 -14.359  -1.056  1.00  0.00     0.033 A 
ENDBRANCH   5  20
TORSDOF 5
ENDMDL
MODEL 10
REMARK VINA RESULT:      -6.6      3.027      5.041
REMARK  5 active torsions:
REMARK  status: ('A' for Active; 'I' for Inactive)
REMARK    1  A    between atoms: C_3  and  N_4 
REMARK       I    between atoms: N_4  and  C_5 
REMARK       I    between atoms: C_5  and  N_6 
REMARK    2  A    between atoms: N_6  and  C_7 
REMARK    3  A    between atoms: C_7  and  C_8 
REMARK    4  A    between atoms: C_8  and  C_9 
REMARK    5  A    between atoms: N_16  and  C_17 
ROOT
HETATM    1  C   UNL     1      40.958 -17.310   0.670  1.00  0.00     0.054 C 
HETATM    2  C   UNL     1      41.151 -16.565   1.939  1.00  0.00     0.003 A 
HETATM    3  C   UNL     1      40.271 -15.683   2.618  1.00  0.00     0.159 A 
HETATM    4  N   UNL     1      40.841 -15.169   3.710  1.00  0.00    -0.149 NA
HETATM    5  N   UNL     1      42.056 -15.791   3.818  1.00  0.00    -0.241 N 
HETATM    6  C   UNL     1      42.291 -16.567   2.709  1.00  0.00     0.129 A 
ENDROOT
BRANCH   3   7
HETATM    7  N   UNL     1      39.005 -15.386   2.171  1.00  0.00    -0.291 N 
HETATM    8  C   UNL     1      38.574 -14.519   1.225  1.00  0.00     0.321 C 
HETATM    9  N   UNL     1      39.484 -13.755   0.569  1.00  0.00    -0.342 N 
HETATM   10  O   UNL     1      37.365 -14.467   0.990  1.00  0.00    -0.247 OA
HETATM   11  H   UNL     1      40.461 -14.000   0.706  1.00  0.00     0.164 HD
HETATM   12  H   UNL     1      38.242 -15.901   2.582  1.00  0.00     0.172 HD
BRANCH   9  13
HETATM   13  C   UNL     1      39.059 -12.987  -0.577  1.00  0.00     0.134 C 
BRANCH  13  14
HETATM   14  C   UNL     1      39.252 -13.727  -1.890  1.00  0.00    -0.021 A 
HETATM   15  C   UNL     1      37.969 -14.259  -2.524  1.00  0.00     0.012 A 
HETATM   16  C   UNL     1      38.661 -13.080  -3.134  1.00  0.00     0.012 A 
BRANCH  14  17
HETATM   17  C   UNL     1      40.534 -14.597  -1.947  1.00  0.00    -0.004 A 
HETATM   18  C   UNL     1      40.689 -15.818  -2.828  1.00  0.00     0.006 A 
HETATM   19  C   UNL     1      41.481 -14.584  -3.123  1.00  0.00     0.006 A 
ENDBRANCH  14  17
ENDBRANCH  13  14
ENDBRANCH   9  13
ENDBRANCH   3   7
BRANCH   5  20
HETATM   20  C   UNL     1      42.898 -15.534   4.944  1.00  0.00     0.079 A 
HETATM   21  C   UNL     1      43.335 -16.500   5.866  1.00  0.00     0.062 A 
HETATM   22 CL   UNL     1      42.807 -18.144   5.939  1.00  0.00    -0.082 Cl
HETATM   23  C   UNL     1      44.208 -16.128   6.905  1.00  0.00     0.026 A 
HETATM   24  C   UNL     1      44.633 -14.811   7.055  1.00  0.00     0.002 A 
HETATM   25  C   UNL     1      44.179 -13.842   6.172  1.00  0.00     0.002 A 
HETATM   26  C   UNL     1      43.318 -14.200   5.132  1.00  0.00     0.033 A 
ENDBRANCH   5  20
TORSDOF 5
ENDMDL
