MODEL 1
REMARK VINA RESULT:     -10.2      0.000      0.000
REMARK  5 active torsions:
REMARK  status: ('A' for Active; 'I' for Inactive)
REMARK    1  A    between atoms: C_8  and  C_9 
REMARK    2  A    between atoms: N_10  and  N_11 
REMARK    3  A    between atoms: C_22  and  C_23 
REMARK       I    between atoms: C_23  and  N_24 
REMARK    4  A    between atoms: N_24  and  C_25 
REMARK    5  A    between atoms: C_33  and  N_34 
ROOT
HETATM    1  N   UNL     1      40.761 -16.210   2.760  1.00  0.00    -0.197 N 
HETATM    2  C   UNL     1      40.346 -15.023   3.345  1.00  0.00     0.183 A 
HETATM    3  C   UNL     1      39.954 -14.172   2.323  1.00  0.00     0.125 A 
HETATM    4  N   UNL     1      39.555 -12.894   2.568  1.00  0.00    -0.242 NA
HETATM    5  C   UNL     1      39.555 -12.552   3.869  1.00  0.00     0.086 A 
HETATM    6  C   UNL     1      39.960 -13.444   4.899  1.00  0.00     0.088 A 
HETATM    7  N   UNL     1      40.371 -14.699   4.659  1.00  0.00    -0.225 NA
HETATM    8  C   UNL     1      39.153 -11.267   4.210  1.00  0.00     0.034 A 
HETATM    9  C   UNL     1      39.139 -10.835   5.536  1.00  0.00     0.002 A 
HETATM   10  C   UNL     1      39.537 -11.704   6.543  1.00  0.00     0.002 A 
HETATM   11  C   UNL     1      39.941 -12.998   6.215  1.00  0.00     0.034 A 
HETATM   12  C   UNL     1      40.126 -14.840   1.084  1.00  0.00     0.110 C 
HETATM   13  C   UNL     1      40.517 -16.133   1.392  1.00  0.00     0.143 C 
ENDROOT
BRANCH   1  14
HETATM   14  N   UNL     1      41.401 -17.283   3.333  1.00  0.00    -0.176 NA
HETATM   15  C   UNL     1      42.687 -17.154   3.332  1.00  0.00     0.153 C 
BRANCH  15  16
HETATM   16  C   UNL     1      43.521 -18.233   3.813  1.00  0.00     0.011 A 
HETATM   17  C   UNL     1      43.715 -19.505   3.183  1.00  0.00     0.004 A 
HETATM   18  C   UNL     1      43.235 -20.101   1.997  1.00  0.00     0.014 A 
HETATM   19  C   UNL     1      44.551 -20.257   4.011  1.00  0.00     0.043 A 
HETATM   20  C   UNL     1      43.602 -21.414   1.685  1.00  0.00     0.001 A 
HETATM   21  C   UNL     1      44.437 -22.137   2.533  1.00  0.00     0.002 A 
HETATM   22  C   UNL     1      44.931 -21.571   3.713  1.00  0.00     0.030 A 
HETATM   23  N   UNL     1      44.867 -19.465   5.092  1.00  0.00    -0.364 N 
HETATM   24  H   UNL     1      45.459 -19.754   5.860  1.00  0.00     0.165 HD
HETATM   25  C   UNL     1      44.244 -18.252   4.989  1.00  0.00     0.102 A 
ENDBRANCH  15  16
ENDBRANCH   1  14
BRANCH  13  26
HETATM   26  N   UNL     1      40.800 -17.179   0.579  1.00  0.00    -0.383 N 
HETATM   27  H   UNL     1      41.743 -17.568   0.526  1.00  0.00     0.157 HD
HETATM   28  H   UNL     1      40.172 -17.430  -0.184  1.00  0.00     0.157 HD
ENDBRANCH  13  26
BRANCH  12  29
HETATM   29  C   UNL     1      40.066 -14.268  -0.253  1.00  0.00     0.262 C 
HETATM   30  N   UNL     1      39.892 -12.891  -0.240  1.00  0.00    -0.323 N 
HETATM   31  H   UNL     1      39.264 -12.566   0.494  1.00  0.00     0.169 HD
HETATM   32  O   UNL     1      40.281 -14.916  -1.273  1.00  0.00    -0.267 OA
BRANCH  30  33
HETATM   33  C   UNL     1      41.026 -12.043  -0.373  1.00  0.00     0.035 A 
HETATM   34  C   UNL     1      41.170 -10.855   0.351  1.00  0.00     0.031 A 
HETATM   35  C   UNL     1      42.223  -9.980   0.062  1.00  0.00     0.026 A 
HETATM   36  C   UNL     1      43.139 -10.301  -0.936  1.00  0.00     0.034 A 
HETATM   37 CL   UNL     1      44.407  -9.205  -1.319  1.00  0.00    -0.084 Cl
HETATM   38  C   UNL     1      43.024 -11.499  -1.637  1.00  0.00     0.026 A 
HETATM   39  C   UNL     1      41.970 -12.371  -1.354  1.00  0.00     0.031 A 
ENDBRANCH  30  33
ENDBRANCH  12  29
TORSDOF 5
ENDMDL
MODEL 2
REMARK VINA RESULT:     -10.2      2.329      2.740
REMARK  5 active torsions:
REMARK  status: ('A' for Active; 'I' for Inactive)
REMARK    1  A    between atoms: C_8  and  C_9 
REMARK    2  A    between atoms: N_10  and  N_11 
REMARK    3  A    between atoms: C_22  and  C_23 
REMARK       I    between atoms: C_23  and  N_24 
REMARK    4  A    between atoms: N_24  and  C_25 
REMARK    5  A    between atoms: C_33  and  N_34 
ROOT
HETATM    1  N   UNL     1      40.796 -16.282   2.841  1.00  0.00    -0.197 N 
HETATM    2  C   UNL     1      40.409 -15.087   3.429  1.00  0.00     0.183 A 
HETATM    3  C   UNL     1      40.022 -14.230   2.410  1.00  0.00     0.125 A 
HETATM    4  N   UNL     1      39.649 -12.944   2.658  1.00  0.00    -0.242 NA
HETATM    5  C   UNL     1      39.668 -12.602   3.958  1.00  0.00     0.086 A 
HETATM    6  C   UNL     1      40.067 -13.500   4.986  1.00  0.00     0.088 A 
HETATM    7  N   UNL     1      40.453 -14.763   4.742  1.00  0.00    -0.225 NA
HETATM    8  C   UNL     1      39.293 -11.310   4.302  1.00  0.00     0.034 A 
HETATM    9  C   UNL     1      39.300 -10.876   5.628  1.00  0.00     0.002 A 
HETATM   10  C   UNL     1      39.692 -11.752   6.632  1.00  0.00     0.002 A 
HETATM   11  C   UNL     1      40.069 -13.053   6.301  1.00  0.00     0.034 A 
HETATM   12  C   UNL     1      40.170 -14.902   1.170  1.00  0.00     0.110 C 
HETATM   13  C   UNL     1      40.540 -16.202   1.475  1.00  0.00     0.143 C 
ENDROOT
BRANCH   1  14
HETATM   14  N   UNL     1      41.423 -17.366   3.409  1.00  0.00    -0.176 NA
HETATM   15  C   UNL     1      42.708 -17.231   3.453  1.00  0.00     0.153 C 
BRANCH  15  16
HETATM   16  C   UNL     1      43.531 -18.319   3.935  1.00  0.00     0.011 A 
HETATM   17  C   UNL     1      43.750 -19.575   3.282  1.00  0.00     0.004 A 
HETATM   18  C   UNL     1      43.310 -20.145   2.068  1.00  0.00     0.014 A 
HETATM   19  C   UNL     1      44.562 -20.343   4.118  1.00  0.00     0.043 A 
HETATM   20  C   UNL     1      43.692 -21.449   1.737  1.00  0.00     0.001 A 
HETATM   21  C   UNL     1      44.504 -22.188   2.594  1.00  0.00     0.002 A 
HETATM   22  C   UNL     1      44.957 -21.648   3.801  1.00  0.00     0.030 A 
HETATM   23  N   UNL     1      44.841 -19.575   5.227  1.00  0.00    -0.364 N 
HETATM   24  H   UNL     1      45.410 -19.880   6.005  1.00  0.00     0.165 HD
HETATM   25  C   UNL     1      44.217 -18.362   5.132  1.00  0.00     0.102 A 
ENDBRANCH  15  16
ENDBRANCH   1  14
BRANCH  13  26
HETATM   26  N   UNL     1      40.797 -17.253   0.660  1.00  0.00    -0.383 N 
HETATM   27  H   UNL     1      40.518 -17.242  -0.322  1.00  0.00     0.157 HD
HETATM   28  H   UNL     1      41.025 -18.168   1.047  1.00  0.00     0.157 HD
ENDBRANCH  13  26
BRANCH  12  29
HETATM   29  C   UNL     1      40.107 -14.330  -0.167  1.00  0.00     0.262 C 
HETATM   30  N   UNL     1      38.826 -14.350  -0.699  1.00  0.00    -0.323 N 
HETATM   31  H   UNL     1      38.301 -15.193  -0.469  1.00  0.00     0.169 HD
HETATM   32  O   UNL     1      41.058 -13.770  -0.705  1.00  0.00    -0.267 OA
BRANCH  30  33
HETATM   33  C   UNL     1      38.013 -13.187  -0.608  1.00  0.00     0.035 A 
HETATM   34  C   UNL     1      37.172 -12.935   0.481  1.00  0.00     0.031 A 
HETATM   35  C   UNL     1      36.276 -11.862   0.443  1.00  0.00     0.026 A 
HETATM   36  C   UNL     1      36.233 -11.032  -0.674  1.00  0.00     0.034 A 
HETATM   37 CL   UNL     1      35.102  -9.738  -0.736  1.00  0.00    -0.084 Cl
HETATM   38  C   UNL     1      37.093 -11.252  -1.747  1.00  0.00     0.026 A 
HETATM   39  C   UNL     1      37.984 -12.328  -1.714  1.00  0.00     0.031 A 
ENDBRANCH  30  33
ENDBRANCH  12  29
TORSDOF 5
ENDMDL
MODEL 3
REMARK VINA RESULT:      -9.7      2.822      8.001
REMARK  5 active torsions:
REMARK  status: ('A' for Active; 'I' for Inactive)
REMARK    1  A    between atoms: C_8  and  C_9 
REMARK    2  A    between atoms: N_10  and  N_11 
REMARK    3  A    between atoms: C_22  and  C_23 
REMARK       I    between atoms: C_23  and  N_24 
REMARK    4  A    between atoms: N_24  and  C_25 
REMARK    5  A    between atoms: C_33  and  N_34 
ROOT
HETATM    1  N   UNL     1      40.874 -15.965   1.268  1.00  0.00    -0.197 N 
HETATM    2  C   UNL     1      41.629 -16.949   1.888  1.00  0.00     0.183 A 
HETATM    3  C   UNL     1      41.433 -16.823   3.254  1.00  0.00     0.125 A 
HETATM    4  N   UNL     1      42.095 -17.607   4.149  1.00  0.00    -0.242 NA
HETATM    5  C   UNL     1      42.919 -18.511   3.591  1.00  0.00     0.086 A 
HETATM    6  C   UNL     1      43.101 -18.623   2.185  1.00  0.00     0.088 A 
HETATM    7  N   UNL     1      42.463 -17.839   1.302  1.00  0.00    -0.225 NA
HETATM    8  C   UNL     1      43.628 -19.360   4.431  1.00  0.00     0.034 A 
HETATM    9  C   UNL     1      44.512 -20.315   3.927  1.00  0.00     0.002 A 
HETATM   10  C   UNL     1      44.692 -20.423   2.555  1.00  0.00     0.002 A 
HETATM   11  C   UNL     1      43.985 -19.579   1.699  1.00  0.00     0.034 A 
HETATM   12  C   UNL     1      40.543 -15.744   3.489  1.00  0.00     0.110 C 
HETATM   13  C   UNL     1      40.126 -15.307   2.241  1.00  0.00     0.143 C 
ENDROOT
BRANCH   1  14
HETATM   14  N   UNL     1      40.875 -15.570  -0.048  1.00  0.00    -0.176 NA
HETATM   15  C   UNL     1      41.674 -14.577  -0.270  1.00  0.00     0.153 C 
BRANCH  15  16
HETATM   16  C   UNL     1      41.729 -13.974  -1.583  1.00  0.00     0.011 A 
HETATM   17  C   UNL     1      42.176 -12.649  -1.894  1.00  0.00     0.004 A 
HETATM   18  C   UNL     1      42.681 -11.575  -1.131  1.00  0.00     0.014 A 
HETATM   19  C   UNL     1      42.011 -12.465  -3.268  1.00  0.00     0.043 A 
HETATM   20  C   UNL     1      42.998 -10.367  -1.761  1.00  0.00     0.001 A 
HETATM   21  C   UNL     1      42.822 -10.217  -3.134  1.00  0.00     0.002 A 
HETATM   22  C   UNL     1      42.326 -11.265  -3.916  1.00  0.00     0.030 A 
HETATM   23  N   UNL     1      41.501 -13.640  -3.774  1.00  0.00    -0.364 N 
HETATM   24  H   UNL     1      41.278 -13.794  -4.748  1.00  0.00     0.165 HD
HETATM   25  C   UNL     1      41.316 -14.549  -2.769  1.00  0.00     0.102 A 
ENDBRANCH  15  16
ENDBRANCH   1  14
BRANCH  13  26
HETATM   26  N   UNL     1      39.271 -14.314   1.903  1.00  0.00    -0.383 N 
HETATM   27  H   UNL     1      39.559 -13.555   1.283  1.00  0.00     0.157 HD
HETATM   28  H   UNL     1      38.427 -14.145   2.449  1.00  0.00     0.157 HD
ENDBRANCH  13  26
BRANCH  12  29
HETATM   29  C   UNL     1      40.233 -15.103   4.758  1.00  0.00     0.262 C 
HETATM   30  N   UNL     1      40.954 -15.635   5.818  1.00  0.00    -0.323 N 
HETATM   31  H   UNL     1      41.076 -16.646   5.762  1.00  0.00     0.169 HD
HETATM   32  O   UNL     1      39.515 -14.112   4.855  1.00  0.00    -0.267 OA
BRANCH  30  33
HETATM   33  C   UNL     1      42.144 -14.987   6.249  1.00  0.00     0.035 A 
HETATM   34  C   UNL     1      42.371 -13.619   6.061  1.00  0.00     0.031 A 
HETATM   35  C   UNL     1      43.622 -13.068   6.356  1.00  0.00     0.026 A 
HETATM   36  C   UNL     1      44.638 -13.878   6.855  1.00  0.00     0.034 A 
HETATM   37 CL   UNL     1      46.188 -13.207   7.177  1.00  0.00    -0.084 Cl
HETATM   38  C   UNL     1      44.410 -15.234   7.081  1.00  0.00     0.026 A 
HETATM   39  C   UNL     1      43.162 -15.787   6.781  1.00  0.00     0.031 A 
ENDBRANCH  30  33
ENDBRANCH  12  29
TORSDOF 5
ENDMDL
MODEL 4
REMARK VINA RESULT:      -9.6      2.910      5.592
REMARK  5 active torsions:
REMARK  status: ('A' for Active; 'I' for Inactive)
REMARK    1  A    between atoms: C_8  and  C_9 
REMARK    2  A    between atoms: N_10  and  N_11 
REMARK    3  A    between atoms: C_22  and  C_23 
REMARK       I    between atoms: C_23  and  N_24 
REMARK    4  A    between atoms: N_24  and  C_25 
REMARK    5  A    between atoms: C_33  and  N_34 
ROOT
HETATM    1  N   UNL     1      42.339 -14.090   1.976  1.00  0.00    -0.197 N 
HETATM    2  C   UNL     1      41.650 -14.133   0.774  1.00  0.00     0.183 A 
HETATM    3  C   UNL     1      40.789 -13.047   0.750  1.00  0.00     0.125 A 
HETATM    4  N   UNL     1      39.918 -12.845  -0.278  1.00  0.00    -0.242 NA
HETATM    5  C   UNL     1      39.990 -13.766  -1.254  1.00  0.00     0.086 A 
HETATM    6  C   UNL     1      40.883 -14.871  -1.208  1.00  0.00     0.088 A 
HETATM    7  N   UNL     1      41.730 -15.082  -0.188  1.00  0.00    -0.225 NA
HETATM    8  C   UNL     1      39.142 -13.631  -2.347  1.00  0.00     0.034 A 
HETATM    9  C   UNL     1      39.148 -14.554  -3.393  1.00  0.00     0.002 A 
HETATM   10  C   UNL     1      40.018 -15.634  -3.347  1.00  0.00     0.002 A 
HETATM   11  C   UNL     1      40.876 -15.781  -2.258  1.00  0.00     0.034 A 
HETATM   12  C   UNL     1      40.946 -12.316   1.954  1.00  0.00     0.110 C 
HETATM   13  C   UNL     1      41.988 -12.918   2.641  1.00  0.00     0.143 C 
ENDROOT
BRANCH   1  14
HETATM   14  N   UNL     1      43.162 -15.035   2.540  1.00  0.00    -0.176 NA
HETATM   15  C   UNL     1      42.509 -16.044   3.017  1.00  0.00     0.153 C 
BRANCH  15  16
HETATM   16  C   UNL     1      43.212 -17.088   3.729  1.00  0.00     0.011 A 
HETATM   17  C   UNL     1      43.543 -18.388   3.226  1.00  0.00     0.004 A 
HETATM   18  C   UNL     1      43.343 -19.048   1.995  1.00  0.00     0.014 A 
HETATM   19  C   UNL     1      44.170 -19.087   4.259  1.00  0.00     0.043 A 
HETATM   20  C   UNL     1      43.770 -20.371   1.843  1.00  0.00     0.001 A 
HETATM   21  C   UNL     1      44.393 -21.040   2.893  1.00  0.00     0.002 A 
HETATM   22  C   UNL     1      44.607 -20.410   4.123  1.00  0.00     0.030 A 
HETATM   23  N   UNL     1      44.234 -18.238   5.341  1.00  0.00    -0.364 N 
HETATM   24  H   UNL     1      44.637 -18.480   6.236  1.00  0.00     0.165 HD
HETATM   25  C   UNL     1      43.651 -17.038   5.037  1.00  0.00     0.102 A 
ENDBRANCH  15  16
ENDBRANCH   1  14
BRANCH  13  26
HETATM   26  N   UNL     1      42.545 -12.606   3.836  1.00  0.00    -0.383 N 
HETATM   27  H   UNL     1      43.312 -11.936   3.904  1.00  0.00     0.157 HD
HETATM   28  H   UNL     1      42.408 -13.209   4.646  1.00  0.00     0.157 HD
ENDBRANCH  13  26
BRANCH  12  29
HETATM   29  C   UNL     1      40.098 -11.248   2.466  1.00  0.00     0.262 C 
HETATM   30  N   UNL     1      39.122 -11.709   3.338  1.00  0.00    -0.323 N 
HETATM   31  H   UNL     1      38.722 -12.606   3.065  1.00  0.00     0.169 HD
HETATM   32  O   UNL     1      40.312 -10.058   2.253  1.00  0.00    -0.267 OA
BRANCH  30  33
HETATM   33  C   UNL     1      39.350 -11.643   4.740  1.00  0.00     0.035 A 
HETATM   34  C   UNL     1      39.326 -12.773   5.564  1.00  0.00     0.031 A 
HETATM   35  C   UNL     1      39.394 -12.630   6.954  1.00  0.00     0.026 A 
HETATM   36  C   UNL     1      39.504 -11.361   7.517  1.00  0.00     0.034 A 
HETATM   37 CL   UNL     1      39.546 -11.184   9.227  1.00  0.00    -0.084 Cl
HETATM   38  C   UNL     1      39.567 -10.233   6.703  1.00  0.00     0.026 A 
HETATM   39  C   UNL     1      39.493 -10.374   5.314  1.00  0.00     0.031 A 
ENDBRANCH  30  33
ENDBRANCH  12  29
TORSDOF 5
ENDMDL
MODEL 5
REMARK VINA RESULT:      -9.6      1.713      2.055
REMARK  5 active torsions:
REMARK  status: ('A' for Active; 'I' for Inactive)
REMARK    1  A    between atoms: C_8  and  C_9 
REMARK    2  A    between atoms: N_10  and  N_11 
REMARK    3  A    between atoms: C_22  and  C_23 
REMARK       I    between atoms: C_23  and  N_24 
REMARK    4  A    between atoms: N_24  and  C_25 
REMARK    5  A    between atoms: C_33  and  N_34 
ROOT
HETATM    1  N   UNL     1      40.983 -15.119   3.320  1.00  0.00    -0.197 N 
HETATM    2  C   UNL     1      40.753 -13.963   4.052  1.00  0.00     0.183 A 
HETATM    3  C   UNL     1      39.672 -13.315   3.475  1.00  0.00     0.125 A 
HETATM    4  N   UNL     1      39.237 -12.106   3.926  1.00  0.00    -0.242 NA
HETATM    5  C   UNL     1      39.926 -11.625   4.975  1.00  0.00     0.086 A 
HETATM    6  C   UNL     1      41.031 -12.309   5.551  1.00  0.00     0.088 A 
HETATM    7  N   UNL     1      41.473 -13.493   5.097  1.00  0.00    -0.225 NA
HETATM    8  C   UNL     1      39.543 -10.399   5.505  1.00  0.00     0.034 A 
HETATM    9  C   UNL     1      40.217  -9.828   6.585  1.00  0.00     0.002 A 
HETATM   10  C   UNL     1      41.298 -10.495   7.146  1.00  0.00     0.002 A 
HETATM   11  C   UNL     1      41.692 -11.727   6.625  1.00  0.00     0.034 A 
HETATM   12  C   UNL     1      39.222 -14.079   2.369  1.00  0.00     0.110 C 
HETATM   13  C   UNL     1      39.977 -15.241   2.367  1.00  0.00     0.143 C 
ENDROOT
BRANCH   1  14
HETATM   14  N   UNL     1      42.043 -15.991   3.386  1.00  0.00    -0.176 NA
HETATM   15  C   UNL     1      41.885 -16.899   4.293  1.00  0.00     0.153 C 
BRANCH  15  16
HETATM   16  C   UNL     1      42.947 -17.844   4.561  1.00  0.00     0.011 A 
HETATM   17  C   UNL     1      43.386 -18.899   3.698  1.00  0.00     0.004 A 
HETATM   18  C   UNL     1      43.003 -19.347   2.416  1.00  0.00     0.014 A 
HETATM   19  C   UNL     1      44.391 -19.596   4.370  1.00  0.00     0.043 A 
HETATM   20  C   UNL     1      43.631 -20.466   1.857  1.00  0.00     0.001 A 
HETATM   21  C   UNL     1      44.631 -21.138   2.555  1.00  0.00     0.002 A 
HETATM   22  C   UNL     1      45.033 -20.715   3.825  1.00  0.00     0.030 A 
HETATM   23  N   UNL     1      44.569 -18.976   5.587  1.00  0.00    -0.364 N 
HETATM   24  H   UNL     1      45.235 -19.271   6.288  1.00  0.00     0.165 HD
HETATM   25  C   UNL     1      43.698 -17.930   5.717  1.00  0.00     0.102 A 
ENDBRANCH  15  16
ENDBRANCH   1  14
BRANCH  13  26
HETATM   26  N   UNL     1      39.941 -16.306   1.531  1.00  0.00    -0.383 N 
HETATM   27  H   UNL     1      39.710 -16.196   0.543  1.00  0.00     0.157 HD
HETATM   28  H   UNL     1      39.878 -17.254   1.899  1.00  0.00     0.157 HD
ENDBRANCH  13  26
BRANCH  12  29
HETATM   29  C   UNL     1      38.274 -13.681   1.337  1.00  0.00     0.262 C 
HETATM   30  N   UNL     1      38.504 -12.398   0.864  1.00  0.00    -0.323 N 
HETATM   31  H   UNL     1      38.791 -11.740   1.589  1.00  0.00     0.169 HD
HETATM   32  O   UNL     1      37.450 -14.449   0.848  1.00  0.00    -0.267 OA
BRANCH  30  33
HETATM   33  C   UNL     1      39.253 -12.218  -0.331  1.00  0.00     0.035 A 
HETATM   34  C   UNL     1      38.733 -12.499  -1.599  1.00  0.00     0.031 A 
HETATM   35  C   UNL     1      39.563 -12.460  -2.724  1.00  0.00     0.026 A 
HETATM   36  C   UNL     1      40.907 -12.123  -2.583  1.00  0.00     0.034 A 
HETATM   37 CL   UNL     1      41.937 -12.117  -3.961  1.00  0.00    -0.084 Cl
HETATM   38  C   UNL     1      41.425 -11.805  -1.330  1.00  0.00     0.026 A 
HETATM   39  C   UNL     1      40.598 -11.850  -0.205  1.00  0.00     0.031 A 
ENDBRANCH  30  33
ENDBRANCH  12  29
TORSDOF 5
ENDMDL
MODEL 6
REMARK VINA RESULT:      -9.4      2.419      7.575
REMARK  5 active torsions:
REMARK  status: ('A' for Active; 'I' for Inactive)
REMARK    1  A    between atoms: C_8  and  C_9 
REMARK    2  A    between atoms: N_10  and  N_11 
REMARK    3  A    between atoms: C_22  and  C_23 
REMARK       I    between atoms: C_23  and  N_24 
REMARK    4  A    between atoms: N_24  and  C_25 
REMARK    5  A    between atoms: C_33  and  N_34 
ROOT
HETATM    1  N   UNL     1      40.898 -16.164   1.940  1.00  0.00    -0.197 N 
HETATM    2  C   UNL     1      41.720 -17.158   2.447  1.00  0.00     0.183 A 
HETATM    3  C   UNL     1      41.813 -16.963   3.816  1.00  0.00     0.125 A 
HETATM    4  N   UNL     1      42.609 -17.742   4.599  1.00  0.00    -0.242 NA
HETATM    5  C   UNL     1      43.263 -18.711   3.935  1.00  0.00     0.086 A 
HETATM    6  C   UNL     1      43.150 -18.893   2.530  1.00  0.00     0.088 A 
HETATM    7  N   UNL     1      42.380 -18.116   1.753  1.00  0.00    -0.225 NA
HETATM    8  C   UNL     1      44.092 -19.558   4.660  1.00  0.00     0.034 A 
HETATM    9  C   UNL     1      44.813 -20.579   4.040  1.00  0.00     0.002 A 
HETATM   10  C   UNL     1      44.705 -20.756   2.667  1.00  0.00     0.002 A 
HETATM   11  C   UNL     1      43.875 -19.914   1.928  1.00  0.00     0.034 A 
HETATM   12  C   UNL     1      41.036 -15.830   4.167  1.00  0.00     0.110 C 
HETATM   13  C   UNL     1      40.393 -15.427   3.008  1.00  0.00     0.143 C 
ENDROOT
BRANCH   1  14
HETATM   14  N   UNL     1      40.648 -15.827   0.631  1.00  0.00    -0.176 NA
HETATM   15  C   UNL     1      41.589 -15.107   0.114  1.00  0.00     0.153 C 
BRANCH  15  16
HETATM   16  C   UNL     1      41.444 -14.586  -1.228  1.00  0.00     0.011 A 
HETATM   17  C   UNL     1      41.910 -13.318  -1.703  1.00  0.00     0.004 A 
HETATM   18  C   UNL     1      42.610 -12.242  -1.117  1.00  0.00     0.014 A 
HETATM   19  C   UNL     1      41.513 -13.201  -3.036  1.00  0.00     0.043 A 
HETATM   20  C   UNL     1      42.883 -11.098  -1.875  1.00  0.00     0.001 A 
HETATM   21  C   UNL     1      42.473 -11.014  -3.203  1.00  0.00     0.002 A 
HETATM   22  C   UNL     1      41.780 -12.066  -3.811  1.00  0.00     0.030 A 
HETATM   23  N   UNL     1      40.848 -14.362  -3.363  1.00  0.00    -0.364 N 
HETATM   24  H   UNL     1      40.443 -14.554  -4.269  1.00  0.00     0.165 HD
HETATM   25  C   UNL     1      40.790 -15.195  -2.280  1.00  0.00     0.102 A 
ENDBRANCH  15  16
ENDBRANCH   1  14
BRANCH  13  26
HETATM   26  N   UNL     1      39.529 -14.405   2.796  1.00  0.00    -0.383 N 
HETATM   27  H   UNL     1      38.923 -14.061   3.542  1.00  0.00     0.157 HD
HETATM   28  H   UNL     1      39.267 -14.133   1.849  1.00  0.00     0.157 HD
ENDBRANCH  13  26
BRANCH  12  29
HETATM   29  C   UNL     1      41.019 -15.119   5.437  1.00  0.00     0.262 C 
HETATM   30  N   UNL     1      41.775 -13.956   5.410  1.00  0.00    -0.323 N 
HETATM   31  H   UNL     1      42.637 -14.042   4.873  1.00  0.00     0.169 HD
HETATM   32  O   UNL     1      40.305 -15.444   6.382  1.00  0.00    -0.267 OA
BRANCH  30  33
HETATM   33  C   UNL     1      41.133 -12.710   5.173  1.00  0.00     0.035 A 
HETATM   34  C   UNL     1      41.520 -11.843   4.145  1.00  0.00     0.031 A 
HETATM   35  C   UNL     1      40.963 -10.563   4.058  1.00  0.00     0.026 A 
HETATM   36  C   UNL     1      40.009 -10.157   4.987  1.00  0.00     0.034 A 
HETATM   37 CL   UNL     1      39.357  -8.568   4.905  1.00  0.00    -0.084 Cl
HETATM   38  C   UNL     1      39.590 -11.026   5.992  1.00  0.00     0.026 A 
HETATM   39  C   UNL     1      40.150 -12.303   6.083  1.00  0.00     0.031 A 
ENDBRANCH  30  33
ENDBRANCH  12  29
TORSDOF 5
ENDMDL
MODEL 7
REMARK VINA RESULT:      -9.2      2.938      4.880
REMARK  5 active torsions:
REMARK  status: ('A' for Active; 'I' for Inactive)
REMARK    1  A    between atoms: C_8  and  C_9 
REMARK    2  A    between atoms: N_10  and  N_11 
REMARK    3  A    between atoms: C_22  and  C_23 
REMARK       I    between atoms: C_23  and  N_24 
REMARK    4  A    between atoms: N_24  and  C_25 
REMARK    5  A    between atoms: C_33  and  N_34 
ROOT
HETATM    1  N   UNL     1      42.113 -14.430   2.142  1.00  0.00    -0.197 N 
HETATM    2  C   UNL     1      41.463 -14.443   0.917  1.00  0.00     0.183 A 
HETATM    3  C   UNL     1      40.491 -13.455   0.953  1.00  0.00     0.125 A 
HETATM    4  N   UNL     1      39.630 -13.259  -0.084  1.00  0.00    -0.242 NA
HETATM    5  C   UNL     1      39.825 -14.081  -1.130  1.00  0.00     0.086 A 
HETATM    6  C   UNL     1      40.831 -15.085  -1.144  1.00  0.00     0.088 A 
HETATM    7  N   UNL     1      41.669 -15.292  -0.116  1.00  0.00    -0.225 NA
HETATM    8  C   UNL     1      38.996 -13.943  -2.236  1.00  0.00     0.034 A 
HETATM    9  C   UNL     1      39.128 -14.768  -3.354  1.00  0.00     0.002 A 
HETATM   10  C   UNL     1      40.109 -15.750  -3.367  1.00  0.00     0.002 A 
HETATM   11  C   UNL     1      40.950 -15.898  -2.265  1.00  0.00     0.034 A 
HETATM   12  C   UNL     1      40.537 -12.817   2.218  1.00  0.00     0.110 C 
HETATM   13  C   UNL     1      41.620 -13.362   2.888  1.00  0.00     0.143 C 
ENDROOT
BRANCH   1  14
HETATM   14  N   UNL     1      43.018 -15.328   2.654  1.00  0.00    -0.176 NA
HETATM   15  C   UNL     1      42.465 -16.434   3.029  1.00  0.00     0.153 C 
BRANCH  15  16
HETATM   16  C   UNL     1      43.259 -17.455   3.678  1.00  0.00     0.011 A 
HETATM   17  C   UNL     1      43.555 -18.758   3.163  1.00  0.00     0.004 A 
HETATM   18  C   UNL     1      43.234 -19.444   1.971  1.00  0.00     0.014 A 
HETATM   19  C   UNL     1      44.301 -19.430   4.132  1.00  0.00     0.043 A 
HETATM   20  C   UNL     1      43.665 -20.763   1.795  1.00  0.00     0.001 A 
HETATM   21  C   UNL     1      44.409 -21.404   2.782  1.00  0.00     0.002 A 
HETATM   22  C   UNL     1      44.744 -20.748   3.971  1.00  0.00     0.030 A 
HETATM   23  N   UNL     1      44.468 -18.560   5.188  1.00  0.00    -0.364 N 
HETATM   24  H   UNL     1      44.969 -18.781   6.038  1.00  0.00     0.165 HD
HETATM   25  C   UNL     1      43.835 -17.376   4.930  1.00  0.00     0.102 A 
ENDBRANCH  15  16
ENDBRANCH   1  14
BRANCH  13  26
HETATM   26  N   UNL     1      42.109 -13.097   4.123  1.00  0.00    -0.383 N 
HETATM   27  H   UNL     1      42.313 -12.141   4.418  1.00  0.00     0.157 HD
HETATM   28  H   UNL     1      42.532 -13.835   4.684  1.00  0.00     0.157 HD
ENDBRANCH  13  26
BRANCH  12  29
HETATM   29  C   UNL     1      39.566 -11.892   2.786  1.00  0.00     0.262 C 
HETATM   30  N   UNL     1      39.379 -10.763   2.002  1.00  0.00    -0.323 N 
HETATM   31  H   UNL     1      40.235 -10.419   1.570  1.00  0.00     0.169 HD
HETATM   32  O   UNL     1      38.892 -12.150   3.780  1.00  0.00    -0.267 OA
BRANCH  30  33
HETATM   33  C   UNL     1      38.282 -10.715   1.098  1.00  0.00     0.035 A 
HETATM   34  C   UNL     1      37.059 -11.343   1.359  1.00  0.00     0.031 A 
HETATM   35  C   UNL     1      36.074 -11.402   0.368  1.00  0.00     0.026 A 
HETATM   36  C   UNL     1      36.304 -10.818  -0.875  1.00  0.00     0.034 A 
HETATM   37 CL   UNL     1      35.109 -10.928  -2.107  1.00  0.00    -0.084 Cl
HETATM   38  C   UNL     1      37.504 -10.159  -1.132  1.00  0.00     0.026 A 
HETATM   39  C   UNL     1      38.491 -10.105  -0.144  1.00  0.00     0.031 A 
ENDBRANCH  30  33
ENDBRANCH  12  29
TORSDOF 5
ENDMDL
MODEL 8
REMARK VINA RESULT:      -9.2      1.344      2.047
REMARK  5 active torsions:
REMARK  status: ('A' for Active; 'I' for Inactive)
REMARK    1  A    between atoms: C_8  and  C_9 
REMARK    2  A    between atoms: N_10  and  N_11 
REMARK    3  A    between atoms: C_22  and  C_23 
REMARK       I    between atoms: C_23  and  N_24 
REMARK    4  A    between atoms: N_24  and  C_25 
REMARK    5  A    between atoms: C_33  and  N_34 
ROOT
HETATM    1  N   UNL     1      41.616 -15.538   1.374  1.00  0.00    -0.197 N 
HETATM    2  C   UNL     1      40.958 -14.673   2.234  1.00  0.00     0.183 A 
HETATM    3  C   UNL     1      40.249 -13.772   1.455  1.00  0.00     0.125 A 
HETATM    4  N   UNL     1      39.547 -12.744   2.007  1.00  0.00    -0.242 NA
HETATM    5  C   UNL     1      39.586 -12.703   3.350  1.00  0.00     0.086 A 
HETATM    6  C   UNL     1      40.318 -13.640   4.128  1.00  0.00     0.088 A 
HETATM    7  N   UNL     1      41.026 -14.644   3.586  1.00  0.00    -0.225 NA
HETATM    8  C   UNL     1      38.888 -11.691   3.996  1.00  0.00     0.034 A 
HETATM    9  C   UNL     1      38.892 -11.575   5.386  1.00  0.00     0.002 A 
HETATM   10  C   UNL     1      39.609 -12.488   6.147  1.00  0.00     0.002 A 
HETATM   11  C   UNL     1      40.312 -13.511   5.511  1.00  0.00     0.034 A 
HETATM   12  C   UNL     1      40.469 -14.081   0.089  1.00  0.00     0.110 C 
HETATM   13  C   UNL     1      41.224 -15.243   0.071  1.00  0.00     0.143 C 
ENDROOT
BRANCH   1  14
HETATM   14  N   UNL     1      42.577 -16.480   1.657  1.00  0.00    -0.176 NA
HETATM   15  C   UNL     1      42.074 -17.585   2.103  1.00  0.00     0.153 C 
BRANCH  15  16
HETATM   16  C   UNL     1      42.949 -18.651   2.539  1.00  0.00     0.011 A 
HETATM   17  C   UNL     1      43.262 -18.996   3.893  1.00  0.00     0.004 A 
HETATM   18  C   UNL     1      42.870 -18.495   5.153  1.00  0.00     0.014 A 
HETATM   19  C   UNL     1      44.181 -20.045   3.854  1.00  0.00     0.043 A 
HETATM   20  C   UNL     1      43.408 -19.054   6.317  1.00  0.00     0.001 A 
HETATM   21  C   UNL     1      44.323 -20.101   6.243  1.00  0.00     0.002 A 
HETATM   22  C   UNL     1      44.727 -20.619   5.009  1.00  0.00     0.030 A 
HETATM   23  N   UNL     1      44.404 -20.338   2.527  1.00  0.00    -0.364 N 
HETATM   24  H   UNL     1      45.033 -21.059   2.197  1.00  0.00     0.165 HD
HETATM   25  C   UNL     1      43.678 -19.498   1.728  1.00  0.00     0.102 A 
ENDBRANCH  15  16
ENDBRANCH   1  14
BRANCH  13  26
HETATM   26  N   UNL     1      41.696 -15.964  -0.974  1.00  0.00    -0.383 N 
HETATM   27  H   UNL     1      41.248 -15.925  -1.890  1.00  0.00     0.157 HD
HETATM   28  H   UNL     1      42.325 -16.751  -0.820  1.00  0.00     0.157 HD
ENDBRANCH  13  26
BRANCH  12  29
HETATM   29  C   UNL     1      40.123 -13.277  -1.075  1.00  0.00     0.262 C 
HETATM   30  N   UNL     1      39.972 -11.932  -0.771  1.00  0.00    -0.323 N 
HETATM   31  H   UNL     1      39.524 -11.764   0.129  1.00  0.00     0.169 HD
HETATM   32  O   UNL     1      40.101 -13.723  -2.219  1.00  0.00    -0.267 OA
BRANCH  30  33
HETATM   33  C   UNL     1      41.057 -11.040  -0.991  1.00  0.00     0.035 A 
HETATM   34  C   UNL     1      42.369 -11.482  -1.197  1.00  0.00     0.031 A 
HETATM   35  C   UNL     1      43.421 -10.561  -1.244  1.00  0.00     0.026 A 
HETATM   36  C   UNL     1      43.160  -9.201  -1.103  1.00  0.00     0.034 A 
HETATM   37 CL   UNL     1      44.459  -8.074  -1.119  1.00  0.00    -0.084 Cl
HETATM   38  C   UNL     1      41.853  -8.749  -0.935  1.00  0.00     0.026 A 
HETATM   39  C   UNL     1      40.802  -9.668  -0.881  1.00  0.00     0.031 A 
ENDBRANCH  30  33
ENDBRANCH  12  29
TORSDOF 5
ENDMDL
MODEL 9
REMARK VINA RESULT:      -9.0      2.612      3.135
REMARK  5 active torsions:
REMARK  status: ('A' for Active; 'I' for Inactive)
REMARK    1  A    between atoms: C_8  and  C_9 
REMARK    2  A    between atoms: N_10  and  N_11 
REMARK    3  A    between atoms: C_22  and  C_23 
REMARK       I    between atoms: C_23  and  N_24 
REMARK    4  A    between atoms: N_24  and  C_25 
REMARK    5  A    between atoms: C_33  and  N_34 
ROOT
HETATM    1  N   UNL     1      41.020 -14.912   3.247  1.00  0.00    -0.197 N 
HETATM    2  C   UNL     1      40.896 -13.772   4.028  1.00  0.00     0.183 A 
HETATM    3  C   UNL     1      39.916 -12.979   3.453  1.00  0.00     0.125 A 
HETATM    4  N   UNL     1      39.605 -11.750   3.950  1.00  0.00    -0.242 NA
HETATM    5  C   UNL     1      40.307 -11.399   5.041  1.00  0.00     0.086 A 
HETATM    6  C   UNL     1      41.306 -12.231   5.615  1.00  0.00     0.088 A 
HETATM    7  N   UNL     1      41.628 -13.436   5.117  1.00  0.00    -0.225 NA
HETATM    8  C   UNL     1      40.047 -10.163   5.620  1.00  0.00     0.034 A 
HETATM    9  C   UNL     1      40.743  -9.723   6.746  1.00  0.00     0.002 A 
HETATM   10  C   UNL     1      41.721 -10.535   7.305  1.00  0.00     0.002 A 
HETATM   11  C   UNL     1      41.991 -11.779   6.736  1.00  0.00     0.034 A 
HETATM   12  C   UNL     1      39.422 -13.634   2.297  1.00  0.00     0.110 C 
HETATM   13  C   UNL     1      40.040 -14.874   2.259  1.00  0.00     0.143 C 
ENDROOT
BRANCH   1  14
HETATM   14  N   UNL     1      41.971 -15.902   3.301  1.00  0.00    -0.176 NA
HETATM   15  C   UNL     1      41.825 -16.677   4.327  1.00  0.00     0.153 C 
BRANCH  15  16
HETATM   16  C   UNL     1      42.796 -17.716   4.589  1.00  0.00     0.011 A 
HETATM   17  C   UNL     1      43.220 -18.736   3.677  1.00  0.00     0.004 A 
HETATM   18  C   UNL     1      42.898 -19.058   2.341  1.00  0.00     0.014 A 
HETATM   19  C   UNL     1      44.123 -19.554   4.356  1.00  0.00     0.043 A 
HETATM   20  C   UNL     1      43.483 -20.177   1.739  1.00  0.00     0.001 A 
HETATM   21  C   UNL     1      44.381 -20.973   2.445  1.00  0.00     0.002 A 
HETATM   22  C   UNL     1      44.721 -20.676   3.769  1.00  0.00     0.030 A 
HETATM   23  N   UNL     1      44.258 -19.040   5.627  1.00  0.00    -0.364 N 
HETATM   24  H   UNL     1      44.850 -19.435   6.345  1.00  0.00     0.165 HD
HETATM   25  C   UNL     1      43.455 -17.943   5.781  1.00  0.00     0.102 A 
ENDBRANCH  15  16
ENDBRANCH   1  14
BRANCH  13  26
HETATM   26  N   UNL     1      39.913 -15.889   1.371  1.00  0.00    -0.383 N 
HETATM   27  H   UNL     1      40.617 -16.625   1.305  1.00  0.00     0.157 HD
HETATM   28  H   UNL     1      39.275 -15.811   0.580  1.00  0.00     0.157 HD
ENDBRANCH  13  26
BRANCH  12  29
HETATM   29  C   UNL     1      38.562 -13.084   1.258  1.00  0.00     0.262 C 
HETATM   30  N   UNL     1      39.251 -12.797   0.088  1.00  0.00    -0.323 N 
HETATM   31  H   UNL     1      40.184 -12.418   0.247  1.00  0.00     0.169 HD
HETATM   32  O   UNL     1      37.341 -13.010   1.363  1.00  0.00    -0.267 OA
BRANCH  30  33
HETATM   33  C   UNL     1      39.242 -13.739  -0.976  1.00  0.00     0.035 A 
HETATM   34  C   UNL     1      40.408 -14.336  -1.467  1.00  0.00     0.031 A 
HETATM   35  C   UNL     1      40.361 -15.128  -2.619  1.00  0.00     0.026 A 
HETATM   36  C   UNL     1      39.147 -15.337  -3.268  1.00  0.00     0.034 A 
HETATM   37 CL   UNL     1      39.096 -16.276  -4.708  1.00  0.00    -0.084 Cl
HETATM   38  C   UNL     1      37.974 -14.776  -2.766  1.00  0.00     0.026 A 
HETATM   39  C   UNL     1      38.022 -13.980  -1.619  1.00  0.00     0.031 A 
ENDBRANCH  30  33
ENDBRANCH  12  29
TORSDOF 5
ENDMDL
MODEL 10
REMARK VINA RESULT:      -9.0      2.534      3.344
REMARK  5 active torsions:
REMARK  status: ('A' for Active; 'I' for Inactive)
REMARK    1  A    between atoms: C_8  and  C_9 
REMARK    2  A    between atoms: N_10  and  N_11 
REMARK    3  A    between atoms: C_22  and  C_23 
REMARK       I    between atoms: C_23  and  N_24 
REMARK    4  A    between atoms: N_24  and  C_25 
REMARK    5  A    between atoms: C_33  and  N_34 
ROOT
HETATM    1  N   UNL     1      40.963 -14.790   0.223  1.00  0.00    -0.197 N 
HETATM    2  C   UNL     1      40.014 -13.809   0.471  1.00  0.00     0.183 A 
HETATM    3  C   UNL     1      39.387 -13.525  -0.732  1.00  0.00     0.125 A 
HETATM    4  N   UNL     1      38.444 -12.548  -0.837  1.00  0.00    -0.242 NA
HETATM    5  C   UNL     1      38.170 -11.916   0.318  1.00  0.00     0.086 A 
HETATM    6  C   UNL     1      38.826 -12.227   1.540  1.00  0.00     0.088 A 
HETATM    7  N   UNL     1      39.768 -13.177   1.643  1.00  0.00    -0.225 NA
HETATM    8  C   UNL     1      37.213 -10.910   0.304  1.00  0.00     0.034 A 
HETATM    9  C   UNL     1      36.884 -10.200   1.459  1.00  0.00     0.002 A 
HETATM   10  C   UNL     1      37.525 -10.501   2.653  1.00  0.00     0.002 A 
HETATM   11  C   UNL     1      38.487 -11.510   2.682  1.00  0.00     0.034 A 
HETATM   12  C   UNL     1      39.952 -14.342  -1.743  1.00  0.00     0.110 C 
HETATM   13  C   UNL     1      40.842 -15.191  -1.104  1.00  0.00     0.143 C 
ENDROOT
BRANCH   1  14
HETATM   14  N   UNL     1      41.952 -15.269   1.049  1.00  0.00    -0.176 NA
HETATM   15  C   UNL     1      41.534 -16.206   1.835  1.00  0.00     0.153 C 
BRANCH  15  16
HETATM   16  C   UNL     1      42.421 -16.759   2.834  1.00  0.00     0.011 A 
HETATM   17  C   UNL     1      43.036 -18.052   2.806  1.00  0.00     0.004 A 
HETATM   18  C   UNL     1      43.018 -19.132   1.897  1.00  0.00     0.014 A 
HETATM   19  C   UNL     1      43.765 -18.194   3.987  1.00  0.00     0.043 A 
HETATM   20  C   UNL     1      43.721 -20.303   2.200  1.00  0.00     0.001 A 
HETATM   21  C   UNL     1      44.439 -20.411   3.387  1.00  0.00     0.002 A 
HETATM   22  C   UNL     1      44.477 -19.356   4.305  1.00  0.00     0.030 A 
HETATM   23  N   UNL     1      43.614 -17.023   4.697  1.00  0.00    -0.364 N 
HETATM   24  H   UNL     1      44.032 -16.843   5.600  1.00  0.00     0.165 HD
HETATM   25  C   UNL     1      42.799 -16.159   4.019  1.00  0.00     0.102 A 
ENDBRANCH  15  16
ENDBRANCH   1  14
BRANCH  13  26
HETATM   26  N   UNL     1      41.633 -16.169  -1.606  1.00  0.00    -0.383 N 
HETATM   27  H   UNL     1      41.361 -17.151  -1.549  1.00  0.00     0.157 HD
HETATM   28  H   UNL     1      42.616 -15.991  -1.807  1.00  0.00     0.157 HD
ENDBRANCH  13  26
BRANCH  12  29
HETATM   29  C   UNL     1      39.775 -14.230  -3.184  1.00  0.00     0.262 C 
HETATM   30  N   UNL     1      39.218 -13.017  -3.563  1.00  0.00    -0.323 N 
HETATM   31  H   UNL     1      38.501 -12.678  -2.922  1.00  0.00     0.169 HD
HETATM   32  O   UNL     1      40.196 -15.063  -3.982  1.00  0.00    -0.267 OA
BRANCH  30  33
HETATM   33  C   UNL     1      40.069 -11.964  -3.999  1.00  0.00     0.035 A 
HETATM   34  C   UNL     1      39.582 -10.797  -4.598  1.00  0.00     0.031 A 
HETATM   35  C   UNL     1      40.469  -9.870  -5.154  1.00  0.00     0.026 A 
HETATM   36  C   UNL     1      41.841 -10.101  -5.097  1.00  0.00     0.034 A 
HETATM   37 CL   UNL     1      42.929  -8.981  -5.818  1.00  0.00    -0.084 Cl
HETATM   38  C   UNL     1      42.337 -11.242  -4.469  1.00  0.00     0.026 A 
HETATM   39  C   UNL     1      41.451 -12.172  -3.919  1.00  0.00     0.031 A 
ENDBRANCH  30  33
ENDBRANCH  12  29
TORSDOF 5
ENDMDL
