MODEL 1
REMARK VINA RESULT:      -8.7      0.000      0.000
REMARK  4 active torsions:
REMARK  status: ('A' for Active; 'I' for Inactive)
REMARK    1  A    between atoms: C_2  and  C_3 
REMARK    2  A    between atoms: C_3  and  N_4 
REMARK    3  A    between atoms: C_3  and  C_18 
REMARK       I    between atoms: N_4  and  C_5 
REMARK    4  A    between atoms: C_5  and  C_6 
ROOT
HETATM    1  N   UNL     1      43.105 -15.948   4.817  1.00  0.00    -0.344 N 
HETATM    2  C   UNL     1      43.402 -14.620   4.987  1.00  0.00     0.273 C 
HETATM    3  O   UNL     1      44.182 -14.187   5.817  1.00  0.00    -0.266 OA
HETATM    4  H   UNL     1      42.392 -16.191   4.130  1.00  0.00     0.163 HD
ENDROOT
BRANCH   1   5
HETATM    5  C   UNL     1      43.646 -17.018   5.626  1.00  0.00     0.158 C 
BRANCH   5   6
HETATM    6  C   UNL     1      42.775 -17.372   6.863  1.00  0.00     0.008 C 
HETATM    7  C   UNL     1      41.337 -16.845   6.774  1.00  0.00     0.012 C 
HETATM    8  C   UNL     1      43.412 -16.898   8.172  1.00  0.00     0.012 C 
ENDBRANCH   5   6
BRANCH   5   9
HETATM    9  C   UNL     1      43.799 -18.209   4.718  1.00  0.00     0.128 A 
HETATM   10  N   UNL     1      43.370 -18.314   3.472  1.00  0.00    -0.231 NA
HETATM   11  C   UNL     1      43.705 -19.584   3.071  1.00  0.00     0.085 A 
HETATM   12  C   UNL     1      44.362 -20.268   4.087  1.00  0.00     0.062 A 
HETATM   13  C   UNL     1      43.473 -20.227   1.847  1.00  0.00     0.034 A 
HETATM   14  N   UNL     1      44.421 -19.366   5.118  1.00  0.00    -0.341 N 
HETATM   15  C   UNL     1      44.813 -21.583   3.957  1.00  0.00     0.032 A 
HETATM   16  H   UNL     1      44.838 -19.532   6.023  1.00  0.00     0.167 HD
HETATM   17  C   UNL     1      44.570 -22.212   2.730  1.00  0.00     0.002 A 
HETATM   18  C   UNL     1      43.912 -21.549   1.691  1.00  0.00     0.002 A 
ENDBRANCH   5   9
ENDBRANCH   1   5
BRANCH   2  19
HETATM   19  C   UNL     1      42.620 -13.700   4.033  1.00  0.00     0.155 A 
HETATM   20  N   UNL     1      43.185 -13.497   2.873  1.00  0.00    -0.166 NA
HETATM   21  N   UNL     1      42.553 -12.695   1.974  1.00  0.00    -0.242 N 
HETATM   22  C   UNL     1      41.342 -12.076   2.156  1.00  0.00     0.272 A 
HETATM   23  H   UNL     1      43.017 -12.555   1.082  1.00  0.00     0.192 HD
HETATM   24  O   UNL     1      40.827 -11.376   1.292  1.00  0.00    -0.266 OA
HETATM   25  C   UNL     1      40.695 -12.293   3.461  1.00  0.00     0.046 A 
HETATM   26  C   UNL     1      41.324 -13.091   4.419  1.00  0.00     0.016 A 
HETATM   27  C   UNL     1      39.460 -11.687   3.728  1.00  0.00     0.018 A 
HETATM   28  C   UNL     1      40.708 -13.262   5.664  1.00  0.00     0.015 A 
HETATM   29  C   UNL     1      39.472 -12.661   5.931  1.00  0.00     0.001 A 
HETATM   30  C   UNL     1      38.847 -11.876   4.964  1.00  0.00     0.001 A 
ENDBRANCH   2  19
TORSDOF 4
ENDMDL
MODEL 2
REMARK VINA RESULT:      -8.5      3.136      7.530
REMARK  4 active torsions:
REMARK  status: ('A' for Active; 'I' for Inactive)
REMARK    1  A    between atoms: C_2  and  C_3 
REMARK    2  A    between atoms: C_3  and  N_4 
REMARK    3  A    between atoms: C_3  and  C_18 
REMARK       I    between atoms: N_4  and  C_5 
REMARK    4  A    between atoms: C_5  and  C_6 
ROOT
HETATM    1  N   UNL     1      41.163 -15.230   3.106  1.00  0.00    -0.344 N 
HETATM    2  C   UNL     1      41.221 -16.595   2.993  1.00  0.00     0.273 C 
HETATM    3  O   UNL     1      40.467 -17.265   2.309  1.00  0.00    -0.266 OA
HETATM    4  H   UNL     1      41.808 -14.779   3.754  1.00  0.00     0.163 HD
ENDROOT
BRANCH   1   5
HETATM    5  C   UNL     1      40.173 -14.397   2.461  1.00  0.00     0.158 C 
BRANCH   5   6
HETATM    6  C   UNL     1      39.958 -13.025   3.156  1.00  0.00     0.008 C 
HETATM    7  C   UNL     1      39.824 -13.123   4.681  1.00  0.00     0.012 C 
HETATM    8  C   UNL     1      38.753 -12.271   2.586  1.00  0.00     0.012 C 
ENDBRANCH   5   6
BRANCH   5   9
HETATM    9  C   UNL     1      40.627 -14.212   1.037  1.00  0.00     0.128 A 
HETATM   10  N   UNL     1      41.507 -13.329   0.596  1.00  0.00    -0.231 NA
HETATM   11  C   UNL     1      41.566 -13.513  -0.764  1.00  0.00     0.085 A 
HETATM   12  C   UNL     1      40.716 -14.537  -1.163  1.00  0.00     0.062 A 
HETATM   13  C   UNL     1      42.325 -12.835  -1.727  1.00  0.00     0.034 A 
HETATM   14  N   UNL     1      40.141 -14.974   0.003  1.00  0.00    -0.341 N 
HETATM   15  C   UNL     1      40.571 -14.937  -2.493  1.00  0.00     0.032 A 
HETATM   16  H   UNL     1      39.464 -15.719   0.084  1.00  0.00     0.167 HD
HETATM   17  C   UNL     1      41.334 -14.247  -3.443  1.00  0.00     0.002 A 
HETATM   18  C   UNL     1      42.197 -13.213  -3.070  1.00  0.00     0.002 A 
ENDBRANCH   5   9
ENDBRANCH   1   5
BRANCH   2  19
HETATM   19  C   UNL     1      42.332 -17.226   3.852  1.00  0.00     0.155 A 
HETATM   20  N   UNL     1      42.587 -16.603   4.972  1.00  0.00    -0.166 NA
HETATM   21  N   UNL     1      43.554 -17.101   5.787  1.00  0.00    -0.242 N 
HETATM   22  C   UNL     1      44.299 -18.231   5.559  1.00  0.00     0.272 A 
HETATM   23  H   UNL     1      43.731 -16.595   6.649  1.00  0.00     0.192 HD
HETATM   24  O   UNL     1      45.147 -18.628   6.349  1.00  0.00    -0.266 OA
HETATM   25  C   UNL     1      44.025 -18.942   4.299  1.00  0.00     0.046 A 
HETATM   26  C   UNL     1      43.054 -18.448   3.425  1.00  0.00     0.016 A 
HETATM   27  C   UNL     1      44.749 -20.101   3.988  1.00  0.00     0.018 A 
HETATM   28  C   UNL     1      42.828 -19.121   2.218  1.00  0.00     0.015 A 
HETATM   29  C   UNL     1      43.548 -20.280   1.908  1.00  0.00     0.001 A 
HETATM   30  C   UNL     1      44.505 -20.773   2.793  1.00  0.00     0.001 A 
ENDBRANCH   2  19
TORSDOF 4
ENDMDL
MODEL 3
REMARK VINA RESULT:      -8.4      1.921      2.355
REMARK  4 active torsions:
REMARK  status: ('A' for Active; 'I' for Inactive)
REMARK    1  A    between atoms: C_2  and  C_3 
REMARK    2  A    between atoms: C_3  and  N_4 
REMARK    3  A    between atoms: C_3  and  C_18 
REMARK       I    between atoms: N_4  and  C_5 
REMARK    4  A    between atoms: C_5  and  C_6 
ROOT
HETATM    1  N   UNL     1      42.611 -16.322   4.173  1.00  0.00    -0.344 N 
HETATM    2  C   UNL     1      42.646 -15.280   3.283  1.00  0.00     0.273 C 
HETATM    3  O   UNL     1      43.652 -14.663   2.981  1.00  0.00    -0.266 OA
HETATM    4  H   UNL     1      41.702 -16.727   4.394  1.00  0.00     0.163 HD
ENDROOT
BRANCH   1   5
HETATM    5  C   UNL     1      43.756 -16.808   4.910  1.00  0.00     0.158 C 
BRANCH   5   6
HETATM    6  C   UNL     1      43.603 -16.698   6.452  1.00  0.00     0.008 C 
HETATM    7  C   UNL     1      42.178 -16.972   6.950  1.00  0.00     0.012 C 
HETATM    8  C   UNL     1      44.078 -15.343   6.985  1.00  0.00     0.012 C 
ENDBRANCH   5   6
BRANCH   5   9
HETATM    9  C   UNL     1      43.962 -18.240   4.492  1.00  0.00     0.128 A 
HETATM   10  N   UNL     1      44.406 -19.228   5.248  1.00  0.00    -0.231 NA
HETATM   11  C   UNL     1      44.460 -20.327   4.426  1.00  0.00     0.085 A 
HETATM   12  C   UNL     1      44.028 -20.010   3.144  1.00  0.00     0.062 A 
HETATM   13  C   UNL     1      44.874 -21.637   4.707  1.00  0.00     0.034 A 
HETATM   14  N   UNL     1      43.704 -18.679   3.216  1.00  0.00    -0.341 N 
HETATM   15  C   UNL     1      43.982 -20.936   2.100  1.00  0.00     0.032 A 
HETATM   16  H   UNL     1      43.351 -18.116   2.456  1.00  0.00     0.167 HD
HETATM   17  C   UNL     1      44.403 -22.238   2.397  1.00  0.00     0.002 A 
HETATM   18  C   UNL     1      44.841 -22.586   3.678  1.00  0.00     0.002 A 
ENDBRANCH   5   9
ENDBRANCH   1   5
BRANCH   2  19
HETATM   19  C   UNL     1      41.262 -14.931   2.706  1.00  0.00     0.155 A 
HETATM   20  N   UNL     1      40.702 -15.878   2.001  1.00  0.00    -0.166 NA
HETATM   21  N   UNL     1      39.475 -15.646   1.460  1.00  0.00    -0.242 N 
HETATM   22  C   UNL     1      38.738 -14.497   1.596  1.00  0.00     0.272 A 
HETATM   23  H   UNL     1      39.066 -16.400   0.917  1.00  0.00     0.192 HD
HETATM   24  O   UNL     1      37.631 -14.365   1.088  1.00  0.00    -0.266 OA
HETATM   25  C   UNL     1      39.359 -13.419   2.384  1.00  0.00     0.046 A 
HETATM   26  C   UNL     1      40.627 -13.612   2.937  1.00  0.00     0.016 A 
HETATM   27  C   UNL     1      38.673 -12.210   2.562  1.00  0.00     0.018 A 
HETATM   28  C   UNL     1      41.214 -12.566   3.659  1.00  0.00     0.015 A 
HETATM   29  C   UNL     1      40.528 -11.359   3.840  1.00  0.00     0.001 A 
HETATM   30  C   UNL     1      39.258 -11.181   3.296  1.00  0.00     0.001 A 
ENDBRANCH   2  19
TORSDOF 4
ENDMDL
MODEL 4
REMARK VINA RESULT:      -8.4      2.159      2.914
REMARK  4 active torsions:
REMARK  status: ('A' for Active; 'I' for Inactive)
REMARK    1  A    between atoms: C_2  and  C_3 
REMARK    2  A    between atoms: C_3  and  N_4 
REMARK    3  A    between atoms: C_3  and  C_18 
REMARK       I    between atoms: N_4  and  C_5 
REMARK    4  A    between atoms: C_5  and  C_6 
ROOT
HETATM    1  N   UNL     1      42.639 -15.741   4.063  1.00  0.00    -0.344 N 
HETATM    2  C   UNL     1      42.780 -14.567   3.369  1.00  0.00     0.273 C 
HETATM    3  O   UNL     1      43.837 -13.982   3.209  1.00  0.00    -0.266 OA
HETATM    4  H   UNL     1      41.696 -16.111   4.184  1.00  0.00     0.163 HD
ENDROOT
BRANCH   1   5
HETATM    5  C   UNL     1      43.717 -16.428   4.738  1.00  0.00     0.158 C 
BRANCH   5   6
HETATM    6  C   UNL     1      43.522 -16.549   6.274  1.00  0.00     0.008 C 
HETATM    7  C   UNL     1      42.061 -16.752   6.694  1.00  0.00     0.012 C 
HETATM    8  C   UNL     1      44.108 -15.351   7.026  1.00  0.00     0.012 C 
ENDBRANCH   5   6
BRANCH   5   9
HETATM    9  C   UNL     1      43.825 -17.789   4.101  1.00  0.00     0.128 A 
HETATM   10  N   UNL     1      43.333 -18.156   2.931  1.00  0.00    -0.231 NA
HETATM   11  C   UNL     1      43.648 -19.486   2.797  1.00  0.00     0.085 A 
HETATM   12  C   UNL     1      44.358 -19.941   3.902  1.00  0.00     0.062 A 
HETATM   13  C   UNL     1      43.355 -20.376   1.755  1.00  0.00     0.034 A 
HETATM   14  N   UNL     1      44.469 -18.838   4.710  1.00  0.00    -0.341 N 
HETATM   15  C   UNL     1      44.804 -21.257   4.036  1.00  0.00     0.032 A 
HETATM   16  H   UNL     1      44.932 -18.809   5.607  1.00  0.00     0.167 HD
HETATM   17  C   UNL     1      44.499 -22.133   2.988  1.00  0.00     0.002 A 
HETATM   18  C   UNL     1      43.787 -21.704   1.865  1.00  0.00     0.002 A 
ENDBRANCH   5   9
ENDBRANCH   1   5
BRANCH   2  19
HETATM   19  C   UNL     1      41.448 -14.024   2.822  1.00  0.00     0.155 A 
HETATM   20  N   UNL     1      40.726 -13.359   3.684  1.00  0.00    -0.166 NA
HETATM   21  N   UNL     1      39.535 -12.845   3.274  1.00  0.00    -0.242 N 
HETATM   22  C   UNL     1      39.007 -12.939   2.011  1.00  0.00     0.272 A 
HETATM   23  H   UNL     1      38.996 -12.334   3.966  1.00  0.00     0.192 HD
HETATM   24  O   UNL     1      37.930 -12.437   1.712  1.00  0.00    -0.266 OA
HETATM   25  C   UNL     1      39.808 -13.690   1.030  1.00  0.00     0.046 A 
HETATM   26  C   UNL     1      41.026 -14.252   1.419  1.00  0.00     0.016 A 
HETATM   27  C   UNL     1      39.333 -13.839  -0.280  1.00  0.00     0.018 A 
HETATM   28  C   UNL     1      41.759 -14.987   0.481  1.00  0.00     0.015 A 
HETATM   29  C   UNL     1      41.288 -15.134  -0.829  1.00  0.00     0.001 A 
HETATM   30  C   UNL     1      40.078 -14.558  -1.211  1.00  0.00     0.001 A 
ENDBRANCH   2  19
TORSDOF 4
ENDMDL
MODEL 5
REMARK VINA RESULT:      -8.1      3.357      5.062
REMARK  4 active torsions:
REMARK  status: ('A' for Active; 'I' for Inactive)
REMARK    1  A    between atoms: C_2  and  C_3 
REMARK    2  A    between atoms: C_3  and  N_4 
REMARK    3  A    between atoms: C_3  and  C_18 
REMARK       I    between atoms: N_4  and  C_5 
REMARK    4  A    between atoms: C_5  and  C_6 
ROOT
HETATM    1  N   UNL     1      42.144 -14.857   1.892  1.00  0.00    -0.344 N 
HETATM    2  C   UNL     1      42.171 -13.731   1.111  1.00  0.00     0.273 C 
HETATM    3  O   UNL     1      42.510 -12.627   1.502  1.00  0.00    -0.266 OA
HETATM    4  H   UNL     1      41.787 -15.716   1.474  1.00  0.00     0.163 HD
ENDROOT
BRANCH   1   5
HETATM    5  C   UNL     1      42.474 -14.886   3.299  1.00  0.00     0.158 C 
BRANCH   5   6
HETATM    6  C   UNL     1      41.272 -14.577   4.233  1.00  0.00     0.008 C 
HETATM    7  C   UNL     1      39.906 -14.795   3.569  1.00  0.00     0.012 C 
HETATM    8  C   UNL     1      41.338 -13.161   4.811  1.00  0.00     0.012 C 
ENDBRANCH   5   6
BRANCH   5   9
HETATM    9  C   UNL     1      43.036 -16.255   3.582  1.00  0.00     0.128 A 
HETATM   10  N   UNL     1      43.398 -16.733   4.760  1.00  0.00    -0.231 NA
HETATM   11  C   UNL     1      43.879 -17.996   4.514  1.00  0.00     0.085 A 
HETATM   12  C   UNL     1      43.798 -18.303   3.161  1.00  0.00     0.062 A 
HETATM   13  C   UNL     1      44.408 -18.941   5.403  1.00  0.00     0.034 A 
HETATM   14  N   UNL     1      43.245 -17.184   2.592  1.00  0.00    -0.341 N 
HETATM   15  C   UNL     1      44.222 -19.521   2.626  1.00  0.00     0.032 A 
HETATM   16  H   UNL     1      43.042 -17.061   1.611  1.00  0.00     0.167 HD
HETATM   17  C   UNL     1      44.751 -20.453   3.527  1.00  0.00     0.002 A 
HETATM   18  C   UNL     1      44.844 -20.171   4.893  1.00  0.00     0.002 A 
ENDBRANCH   5   9
ENDBRANCH   1   5
BRANCH   2  19
HETATM   19  C   UNL     1      41.696 -13.983  -0.331  1.00  0.00     0.155 A 
HETATM   20  N   UNL     1      41.052 -15.105  -0.513  1.00  0.00    -0.166 NA
HETATM   21  N   UNL     1      40.598 -15.397  -1.761  1.00  0.00    -0.242 N 
HETATM   22  C   UNL     1      40.733 -14.608  -2.875  1.00  0.00     0.272 A 
HETATM   23  H   UNL     1      40.103 -16.277  -1.873  1.00  0.00     0.192 HD
HETATM   24  O   UNL     1      40.284 -14.933  -3.968  1.00  0.00    -0.266 OA
HETATM   25  C   UNL     1      41.460 -13.341  -2.685  1.00  0.00     0.046 A 
HETATM   26  C   UNL     1      41.962 -13.016  -1.423  1.00  0.00     0.016 A 
HETATM   27  C   UNL     1      41.647 -12.482  -3.777  1.00  0.00     0.018 A 
HETATM   28  C   UNL     1      42.675 -11.822  -1.268  1.00  0.00     0.015 A 
HETATM   29  C   UNL     1      42.861 -10.961  -2.357  1.00  0.00     0.001 A 
HETATM   30  C   UNL     1      42.345 -11.289  -3.609  1.00  0.00     0.001 A 
ENDBRANCH   2  19
TORSDOF 4
ENDMDL
MODEL 6
REMARK VINA RESULT:      -8.1      3.021      7.579
REMARK  4 active torsions:
REMARK  status: ('A' for Active; 'I' for Inactive)
REMARK    1  A    between atoms: C_2  and  C_3 
REMARK    2  A    between atoms: C_3  and  N_4 
REMARK    3  A    between atoms: C_3  and  C_18 
REMARK       I    between atoms: N_4  and  C_5 
REMARK    4  A    between atoms: C_5  and  C_6 
ROOT
HETATM    1  N   UNL     1      42.258 -15.170   2.543  1.00  0.00    -0.344 N 
HETATM    2  C   UNL     1      41.600 -16.329   2.861  1.00  0.00     0.273 C 
HETATM    3  O   UNL     1      40.412 -16.398   3.129  1.00  0.00    -0.266 OA
HETATM    4  H   UNL     1      43.266 -15.222   2.394  1.00  0.00     0.163 HD
ENDROOT
BRANCH   1   5
HETATM    5  C   UNL     1      41.646 -13.860   2.520  1.00  0.00     0.158 C 
BRANCH   5   6
HETATM    6  C   UNL     1      42.203 -12.888   3.595  1.00  0.00     0.008 C 
HETATM    7  C   UNL     1      43.215 -13.538   4.548  1.00  0.00     0.012 C 
HETATM    8  C   UNL     1      41.087 -12.227   4.410  1.00  0.00     0.012 C 
ENDBRANCH   5   6
BRANCH   5   9
HETATM    9  C   UNL     1      41.861 -13.309   1.135  1.00  0.00     0.128 A 
HETATM   10  N   UNL     1      41.747 -13.969  -0.005  1.00  0.00    -0.231 NA
HETATM   11  C   UNL     1      42.072 -13.067  -0.988  1.00  0.00     0.085 A 
HETATM   12  C   UNL     1      42.379 -11.826  -0.442  1.00  0.00     0.062 A 
HETATM   13  C   UNL     1      42.130 -13.239  -2.378  1.00  0.00     0.034 A 
HETATM   14  N   UNL     1      42.224 -12.004   0.909  1.00  0.00    -0.341 N 
HETATM   15  C   UNL     1      42.750 -10.722  -1.212  1.00  0.00     0.032 A 
HETATM   16  H   UNL     1      42.368 -11.298   1.616  1.00  0.00     0.167 HD
HETATM   17  C   UNL     1      42.808 -10.913  -2.597  1.00  0.00     0.002 A 
HETATM   18  C   UNL     1      42.503 -12.148  -3.174  1.00  0.00     0.002 A 
ENDBRANCH   5   9
ENDBRANCH   1   5
BRANCH   2  19
HETATM   19  C   UNL     1      42.520 -17.562   2.881  1.00  0.00     0.155 A 
HETATM   20  N   UNL     1      42.538 -18.257   1.775  1.00  0.00    -0.166 NA
HETATM   21  N   UNL     1      43.331 -19.361   1.714  1.00  0.00    -0.242 N 
HETATM   22  C   UNL     1      44.149 -19.823   2.713  1.00  0.00     0.272 A 
HETATM   23  H   UNL     1      43.322 -19.882   0.842  1.00  0.00     0.192 HD
HETATM   24  O   UNL     1      44.848 -20.821   2.580  1.00  0.00    -0.266 OA
HETATM   25  C   UNL     1      44.137 -19.051   3.967  1.00  0.00     0.046 A 
HETATM   26  C   UNL     1      43.319 -17.925   4.076  1.00  0.00     0.016 A 
HETATM   27  C   UNL     1      44.941 -19.463   5.039  1.00  0.00     0.018 A 
HETATM   28  C   UNL     1      43.299 -17.221   5.286  1.00  0.00     0.015 A 
HETATM   29  C   UNL     1      44.103 -17.629   6.356  1.00  0.00     0.001 A 
HETATM   30  C   UNL     1      44.925 -18.747   6.233  1.00  0.00     0.001 A 
ENDBRANCH   2  19
TORSDOF 4
ENDMDL
MODEL 7
REMARK VINA RESULT:      -8.1      2.067      3.087
REMARK  4 active torsions:
REMARK  status: ('A' for Active; 'I' for Inactive)
REMARK    1  A    between atoms: C_2  and  C_3 
REMARK    2  A    between atoms: C_3  and  N_4 
REMARK    3  A    between atoms: C_3  and  C_18 
REMARK       I    between atoms: N_4  and  C_5 
REMARK    4  A    between atoms: C_5  and  C_6 
ROOT
HETATM    1  N   UNL     1      42.899 -15.504   3.885  1.00  0.00    -0.344 N 
HETATM    2  C   UNL     1      43.300 -14.299   3.371  1.00  0.00     0.273 C 
HETATM    3  O   UNL     1      44.363 -13.759   3.625  1.00  0.00    -0.266 OA
HETATM    4  H   UNL     1      41.963 -15.833   3.649  1.00  0.00     0.163 HD
ENDROOT
BRANCH   1   5
HETATM    5  C   UNL     1      43.662 -16.286   4.832  1.00  0.00     0.158 C 
BRANCH   5   6
HETATM    6  C   UNL     1      43.044 -16.325   6.257  1.00  0.00     0.008 C 
HETATM    7  C   UNL     1      41.563 -15.926   6.295  1.00  0.00     0.012 C 
HETATM    8  C   UNL     1      43.829 -15.465   7.251  1.00  0.00     0.012 C 
ENDBRANCH   5   6
BRANCH   5   9
HETATM    9  C   UNL     1      43.772 -17.673   4.257  1.00  0.00     0.128 A 
HETATM   10  N   UNL     1      44.443 -18.690   4.769  1.00  0.00    -0.231 NA
HETATM   11  C   UNL     1      44.282 -19.725   3.880  1.00  0.00     0.085 A 
HETATM   12  C   UNL     1      43.487 -19.338   2.808  1.00  0.00     0.062 A 
HETATM   13  C   UNL     1      44.792 -21.030   3.922  1.00  0.00     0.034 A 
HETATM   14  N   UNL     1      43.165 -18.032   3.079  1.00  0.00    -0.341 N 
HETATM   15  C   UNL     1      43.162 -20.189   1.749  1.00  0.00     0.032 A 
HETATM   16  H   UNL     1      42.592 -17.435   2.501  1.00  0.00     0.167 HD
HETATM   17  C   UNL     1      43.683 -21.487   1.805  1.00  0.00     0.002 A 
HETATM   18  C   UNL     1      44.484 -21.904   2.871  1.00  0.00     0.002 A 
ENDBRANCH   5   9
ENDBRANCH   1   5
BRANCH   2  19
HETATM   19  C   UNL     1      42.252 -13.656   2.445  1.00  0.00     0.155 A 
HETATM   20  N   UNL     1      41.831 -12.478   2.820  1.00  0.00    -0.166 NA
HETATM   21  N   UNL     1      40.905 -11.844   2.051  1.00  0.00    -0.242 N 
HETATM   22  C   UNL     1      40.366 -12.318   0.882  1.00  0.00     0.272 A 
HETATM   23  H   UNL     1      40.596 -10.930   2.368  1.00  0.00     0.192 HD
HETATM   24  O   UNL     1      39.542 -11.683   0.234  1.00  0.00    -0.266 OA
HETATM   25  C   UNL     1      40.828 -13.648   0.449  1.00  0.00     0.046 A 
HETATM   26  C   UNL     1      41.761 -14.339   1.225  1.00  0.00     0.016 A 
HETATM   27  C   UNL     1      40.318 -14.206  -0.731  1.00  0.00     0.018 A 
HETATM   28  C   UNL     1      42.167 -15.614   0.813  1.00  0.00     0.015 A 
HETATM   29  C   UNL     1      41.661 -16.172  -0.367  1.00  0.00     0.001 A 
HETATM   30  C   UNL     1      40.740 -15.468  -1.140  1.00  0.00     0.001 A 
ENDBRANCH   2  19
TORSDOF 4
ENDMDL
MODEL 8
REMARK VINA RESULT:      -8.0      3.673      7.429
REMARK  4 active torsions:
REMARK  status: ('A' for Active; 'I' for Inactive)
REMARK    1  A    between atoms: C_2  and  C_3 
REMARK    2  A    between atoms: C_3  and  N_4 
REMARK    3  A    between atoms: C_3  and  C_18 
REMARK       I    between atoms: N_4  and  C_5 
REMARK    4  A    between atoms: C_5  and  C_6 
ROOT
HETATM    1  N   UNL     1      42.070 -15.631   2.251  1.00  0.00    -0.344 N 
HETATM    2  C   UNL     1      41.504 -16.753   2.798  1.00  0.00     0.273 C 
HETATM    3  O   UNL     1      40.330 -16.853   3.109  1.00  0.00    -0.266 OA
HETATM    4  H   UNL     1      43.076 -15.639   2.084  1.00  0.00     0.163 HD
ENDROOT
BRANCH   1   5
HETATM    5  C   UNL     1      41.363 -14.394   2.004  1.00  0.00     0.158 C 
BRANCH   5   6
HETATM    6  C   UNL     1      42.229 -13.122   2.219  1.00  0.00     0.008 C 
HETATM    7  C   UNL     1      42.286 -12.657   3.680  1.00  0.00     0.012 C 
HETATM    8  C   UNL     1      41.777 -11.959   1.331  1.00  0.00     0.012 C 
ENDBRANCH   5   6
BRANCH   5   9
HETATM    9  C   UNL     1      40.854 -14.464   0.588  1.00  0.00     0.128 A 
HETATM   10  N   UNL     1      39.700 -14.000   0.139  1.00  0.00    -0.231 NA
HETATM   11  C   UNL     1      39.664 -14.327  -1.194  1.00  0.00     0.085 A 
HETATM   12  C   UNL     1      40.824 -14.993  -1.573  1.00  0.00     0.062 A 
HETATM   13  C   UNL     1      38.665 -14.089  -2.148  1.00  0.00     0.034 A 
HETATM   14  N   UNL     1      41.570 -15.055  -0.424  1.00  0.00    -0.341 N 
HETATM   15  C   UNL     1      41.055 -15.447  -2.873  1.00  0.00     0.032 A 
HETATM   16  H   UNL     1      42.482 -15.477  -0.336  1.00  0.00     0.167 HD
HETATM   17  C   UNL     1      40.045 -15.205  -3.812  1.00  0.00     0.002 A 
HETATM   18  C   UNL     1      38.870 -14.537  -3.459  1.00  0.00     0.002 A 
ENDBRANCH   5   9
ENDBRANCH   1   5
BRANCH   2  19
HETATM   19  C   UNL     1      42.513 -17.894   3.017  1.00  0.00     0.155 A 
HETATM   20  N   UNL     1      42.566 -18.778   2.057  1.00  0.00    -0.166 NA
HETATM   21  N   UNL     1      43.437 -19.816   2.178  1.00  0.00    -0.242 N 
HETATM   22  C   UNL     1      44.302 -20.027   3.222  1.00  0.00     0.272 A 
HETATM   23  H   UNL     1      43.455 -20.488   1.417  1.00  0.00     0.192 HD
HETATM   24  O   UNL     1      45.070 -20.982   3.255  1.00  0.00    -0.266 OA
HETATM   25  C   UNL     1      44.251 -19.040   4.313  1.00  0.00     0.046 A 
HETATM   26  C   UNL     1      43.353 -17.973   4.236  1.00  0.00     0.016 A 
HETATM   27  C   UNL     1      45.098 -19.189   5.420  1.00  0.00     0.018 A 
HETATM   28  C   UNL     1      43.299 -17.060   5.297  1.00  0.00     0.015 A 
HETATM   29  C   UNL     1      44.146 -17.206   6.401  1.00  0.00     0.001 A 
HETATM   30  C   UNL     1      45.047 -18.268   6.462  1.00  0.00     0.001 A 
ENDBRANCH   2  19
TORSDOF 4
ENDMDL
MODEL 9
REMARK VINA RESULT:      -7.8      2.611      7.250
REMARK  4 active torsions:
REMARK  status: ('A' for Active; 'I' for Inactive)
REMARK    1  A    between atoms: C_2  and  C_3 
REMARK    2  A    between atoms: C_3  and  N_4 
REMARK    3  A    between atoms: C_3  and  C_18 
REMARK       I    between atoms: N_4  and  C_5 
REMARK    4  A    between atoms: C_5  and  C_6 
ROOT
HETATM    1  N   UNL     1      42.193 -15.834   4.998  1.00  0.00    -0.344 N 
HETATM    2  C   UNL     1      41.747 -16.970   5.622  1.00  0.00     0.273 C 
HETATM    3  O   UNL     1      40.718 -17.043   6.271  1.00  0.00    -0.266 OA
HETATM    4  H   UNL     1      43.098 -15.872   4.531  1.00  0.00     0.163 HD
ENDROOT
BRANCH   1   5
HETATM    5  C   UNL     1      41.526 -14.552   5.056  1.00  0.00     0.158 C 
BRANCH   5   6
HETATM    6  C   UNL     1      42.472 -13.366   5.389  1.00  0.00     0.008 C 
HETATM    7  C   UNL     1      43.651 -13.754   6.291  1.00  0.00     0.012 C 
HETATM    8  C   UNL     1      41.721 -12.185   6.010  1.00  0.00     0.012 C 
ENDBRANCH   5   6
BRANCH   5   9
HETATM    9  C   UNL     1      40.862 -14.351   3.720  1.00  0.00     0.128 A 
HETATM   10  N   UNL     1      39.562 -14.309   3.481  1.00  0.00    -0.231 NA
HETATM   11  C   UNL     1      39.441 -14.145   2.123  1.00  0.00     0.085 A 
HETATM   12  C   UNL     1      40.691 -14.072   1.518  1.00  0.00     0.062 A 
HETATM   13  C   UNL     1      38.288 -14.055   1.330  1.00  0.00     0.034 A 
HETATM   14  N   UNL     1      41.577 -14.192   2.558  1.00  0.00    -0.341 N 
HETATM   15  C   UNL     1      40.867 -13.911   0.142  1.00  0.00     0.032 A 
HETATM   16  H   UNL     1      42.583 -14.180   2.479  1.00  0.00     0.167 HD
HETATM   17  C   UNL     1      39.705 -13.826  -0.634  1.00  0.00     0.002 A 
HETATM   18  C   UNL     1      38.436 -13.896  -0.054  1.00  0.00     0.002 A 
ENDBRANCH   5   9
ENDBRANCH   1   5
BRANCH   2  19
HETATM   19  C   UNL     1      42.699 -18.167   5.451  1.00  0.00     0.155 A 
HETATM   20  N   UNL     1      43.155 -18.674   6.565  1.00  0.00    -0.166 NA
HETATM   21  N   UNL     1      44.001 -19.737   6.496  1.00  0.00    -0.242 N 
HETATM   22  C   UNL     1      44.423 -20.360   5.349  1.00  0.00     0.272 A 
HETATM   23  H   UNL     1      44.341 -20.109   7.378  1.00  0.00     0.192 HD
HETATM   24  O   UNL     1      45.178 -21.325   5.366  1.00  0.00    -0.266 OA
HETATM   25  C   UNL     1      43.919 -19.797   4.085  1.00  0.00     0.046 A 
HETATM   26  C   UNL     1      43.067 -18.691   4.114  1.00  0.00     0.016 A 
HETATM   27  C   UNL     1      44.310 -20.372   2.868  1.00  0.00     0.018 A 
HETATM   28  C   UNL     1      42.621 -18.151   2.901  1.00  0.00     0.015 A 
HETATM   29  C   UNL     1      43.008 -18.727   1.685  1.00  0.00     0.001 A 
HETATM   30  C   UNL     1      43.849 -19.838   1.668  1.00  0.00     0.001 A 
ENDBRANCH   2  19
TORSDOF 4
ENDMDL
MODEL 10
REMARK VINA RESULT:      -7.4      2.567      7.324
REMARK  4 active torsions:
REMARK  status: ('A' for Active; 'I' for Inactive)
REMARK    1  A    between atoms: C_2  and  C_3 
REMARK    2  A    between atoms: C_3  and  N_4 
REMARK    3  A    between atoms: C_3  and  C_18 
REMARK       I    between atoms: N_4  and  C_5 
REMARK    4  A    between atoms: C_5  and  C_6 
ROOT
HETATM    1  N   UNL     1      41.831 -14.112   3.648  1.00  0.00    -0.344 N 
HETATM    2  C   UNL     1      41.370 -15.159   4.404  1.00  0.00     0.273 C 
HETATM    3  O   UNL     1      40.196 -15.360   4.663  1.00  0.00    -0.266 OA
HETATM    4  H   UNL     1      42.840 -14.009   3.544  1.00  0.00     0.163 HD
ENDROOT
BRANCH   1   5
HETATM    5  C   UNL     1      40.993 -13.077   3.085  1.00  0.00     0.158 C 
BRANCH   5   6
HETATM    6  C   UNL     1      41.186 -11.685   3.745  1.00  0.00     0.008 C 
HETATM    7  C   UNL     1      41.566 -11.755   5.230  1.00  0.00     0.012 C 
HETATM    8  C   UNL     1      39.955 -10.790   3.575  1.00  0.00     0.012 C 
ENDBRANCH   5   6
BRANCH   5   9
HETATM    9  C   UNL     1      41.306 -13.022   1.613  1.00  0.00     0.128 A 
HETATM   10  N   UNL     1      40.944 -13.901   0.694  1.00  0.00    -0.231 NA
HETATM   11  C   UNL     1      41.488 -13.450  -0.484  1.00  0.00     0.085 A 
HETATM   12  C   UNL     1      42.186 -12.264  -0.286  1.00  0.00     0.062 A 
HETATM   13  C   UNL     1      41.430 -14.007  -1.769  1.00  0.00     0.034 A 
HETATM   14  N   UNL     1      42.043 -12.007   1.054  1.00  0.00    -0.341 N 
HETATM   15  C   UNL     1      42.846 -11.584  -1.311  1.00  0.00     0.032 A 
HETATM   16  H   UNL     1      42.428 -11.214   1.546  1.00  0.00     0.167 HD
HETATM   17  C   UNL     1      42.781 -12.156  -2.588  1.00  0.00     0.002 A 
HETATM   18  C   UNL     1      42.086 -13.347  -2.816  1.00  0.00     0.002 A 
ENDBRANCH   5   9
ENDBRANCH   1   5
BRANCH   2  19
HETATM   19  C   UNL     1      42.497 -16.063   4.935  1.00  0.00     0.155 A 
HETATM   20  N   UNL     1      43.029 -15.677   6.064  1.00  0.00    -0.166 NA
HETATM   21  N   UNL     1      44.030 -16.427   6.600  1.00  0.00    -0.242 N 
HETATM   22  C   UNL     1      44.540 -17.586   6.073  1.00  0.00     0.272 A 
HETATM   23  H   UNL     1      44.425 -16.102   7.477  1.00  0.00     0.192 HD
HETATM   24  O   UNL     1      45.437 -18.217   6.621  1.00  0.00    -0.266 OA
HETATM   25  C   UNL     1      43.952 -18.031   4.798  1.00  0.00     0.046 A 
HETATM   26  C   UNL     1      42.938 -17.275   4.206  1.00  0.00     0.016 A 
HETATM   27  C   UNL     1      44.425 -19.203   4.191  1.00  0.00     0.018 A 
HETATM   28  C   UNL     1      42.411 -17.698   2.980  1.00  0.00     0.015 A 
HETATM   29  C   UNL     1      42.880 -18.869   2.373  1.00  0.00     0.001 A 
HETATM   30  C   UNL     1      43.883 -19.623   2.979  1.00  0.00     0.001 A 
ENDBRANCH   2  19
TORSDOF 4
ENDMDL
