MODEL 1
REMARK VINA RESULT:      -8.6      0.000      0.000
REMARK  4 active torsions:
REMARK  status: ('A' for Active; 'I' for Inactive)
REMARK    1  A    between atoms: C_7  and  C_8 
REMARK    2  A    between atoms: C_10  and  O_11 
REMARK    3  A    between atoms: C_17  and  C_18 
REMARK    4  A    between atoms: C_25  and  C_26 
REMARK       I    between atoms: C_26  and  N_27 
ROOT
HETATM    1  C   UNL     1      39.896 -14.018  -1.550  1.00  0.00     0.070 C 
HETATM    2  C   UNL     1      40.206 -14.719  -0.250  1.00  0.00     0.037 A 
HETATM    3  N   UNL     1      41.143 -15.743  -0.326  1.00  0.00    -0.192 N 
HETATM    4  C   UNL     1      41.518 -16.487   0.731  1.00  0.00     0.726 A 
HETATM    5  N   UNL     1      40.971 -16.232   1.955  1.00  0.00    -0.083 N 
HETATM    6  N   UNL     1      41.385 -17.123   2.876  1.00  0.00    -0.135 NA
HETATM    7  C   UNL     1      42.277 -17.842   2.167  1.00  0.00     0.199 A 
HETATM    8  N   UNL     1      42.355 -17.484   0.830  1.00  0.00    -0.041 NA
HETATM    9  C   UNL     1      39.979 -15.180   2.212  1.00  0.00     0.202 A 
HETATM   10  C   UNL     1      39.621 -14.426   0.938  1.00  0.00     0.062 A 
HETATM   11  H   UNL     1      41.565 -15.931  -1.232  1.00  0.00     0.184 HD
ENDROOT
BRANCH   7  12
HETATM   12  C   UNL     1      43.101 -18.903   2.739  1.00  0.00     0.017 A 
HETATM   13  C   UNL     1      43.466 -18.874   4.097  1.00  0.00     0.052 A 
HETATM   14  C   UNL     1      44.274 -19.877   4.638  1.00  0.00     0.069 A 
HETATM   15  C   UNL     1      44.714 -20.919   3.820  1.00  0.00     0.037 A 
HETATM   16  C   UNL     1      44.360 -20.960   2.471  1.00  0.00     0.004 A 
HETATM   17  C   UNL     1      43.558 -19.955   1.932  1.00  0.00     0.015 A 
BRANCH  14  18
HETATM   18  O   UNL     1      44.697 -19.953   5.938  1.00  0.00    -0.356 OA
HETATM   19  C   UNL     1      43.863 -19.350   6.920  1.00  0.00     0.210 C 
ENDBRANCH  14  18
ENDBRANCH   7  12
BRANCH   9  20
HETATM   20  C   UNL     1      40.462 -14.287   3.352  1.00  0.00    -0.028 A 
HETATM   21  C   UNL     1      41.607 -13.478   3.223  1.00  0.00     0.012 A 
HETATM   22  C   UNL     1      42.037 -12.682   4.287  1.00  0.00     0.043 A 
HETATM   23  C   UNL     1      41.333 -12.697   5.484  1.00  0.00     0.116 A 
HETATM   24  F   UNL     1      41.748 -11.937   6.505  1.00  0.00    -0.206 F 
HETATM   25  C   UNL     1      40.206 -13.495   5.641  1.00  0.00     0.043 A 
HETATM   26  C   UNL     1      39.773 -14.290   4.580  1.00  0.00     0.012 A 
ENDBRANCH   9  20
BRANCH  10  27
HETATM   27  C   UNL     1      38.675 -13.294   1.061  1.00  0.00     0.249 C 
HETATM   28  N   UNL     1      37.358 -13.614   0.980  1.00  0.00    -0.366 N 
HETATM   29  H   UNL     1      36.997 -14.525   0.743  1.00  0.00     0.159 HD
HETATM   30  H   UNL     1      36.701 -12.845   1.039  1.00  0.00     0.159 HD
HETATM   31  O   UNL     1      39.045 -12.140   1.223  1.00  0.00    -0.268 OA
ENDBRANCH  10  27
TORSDOF 4
ENDMDL
MODEL 2
REMARK VINA RESULT:      -8.3      2.754      4.489
REMARK  4 active torsions:
REMARK  status: ('A' for Active; 'I' for Inactive)
REMARK    1  A    between atoms: C_7  and  C_8 
REMARK    2  A    between atoms: C_10  and  O_11 
REMARK    3  A    between atoms: C_17  and  C_18 
REMARK    4  A    between atoms: C_25  and  C_26 
REMARK       I    between atoms: C_26  and  N_27 
ROOT
HETATM    1  C   UNL     1      39.226 -12.698   6.773  1.00  0.00     0.070 C 
HETATM    2  C   UNL     1      40.198 -13.490   5.933  1.00  0.00     0.037 A 
HETATM    3  N   UNL     1      40.505 -14.761   6.405  1.00  0.00    -0.192 N 
HETATM    4  C   UNL     1      41.370 -15.590   5.793  1.00  0.00     0.726 A 
HETATM    5  N   UNL     1      41.981 -15.188   4.641  1.00  0.00    -0.083 N 
HETATM    6  N   UNL     1      42.879 -16.098   4.215  1.00  0.00    -0.135 NA
HETATM    7  C   UNL     1      42.690 -17.093   5.104  1.00  0.00     0.199 A 
HETATM    8  N   UNL     1      41.782 -16.790   6.105  1.00  0.00    -0.041 NA
HETATM    9  C   UNL     1      41.759 -13.886   4.002  1.00  0.00     0.202 A 
HETATM   10  C   UNL     1      40.781 -13.031   4.797  1.00  0.00     0.062 A 
HETATM   11  H   UNL     1      40.044 -15.073   7.256  1.00  0.00     0.184 HD
ENDROOT
BRANCH   7  12
HETATM   12  C   UNL     1      43.369 -18.383   5.031  1.00  0.00     0.017 A 
HETATM   13  C   UNL     1      43.852 -18.872   3.804  1.00  0.00     0.052 A 
HETATM   14  C   UNL     1      44.481 -20.117   3.731  1.00  0.00     0.069 A 
HETATM   15  C   UNL     1      44.634 -20.876   4.893  1.00  0.00     0.037 A 
HETATM   16  C   UNL     1      44.160 -20.405   6.117  1.00  0.00     0.004 A 
HETATM   17  C   UNL     1      43.528 -19.163   6.186  1.00  0.00     0.015 A 
BRANCH  14  18
HETATM   18  O   UNL     1      44.984 -20.698   2.599  1.00  0.00    -0.356 OA
HETATM   19  C   UNL     1      44.159 -21.659   1.950  1.00  0.00     0.210 C 
ENDBRANCH  14  18
ENDBRANCH   7  12
BRANCH   9  20
HETATM   20  C   UNL     1      41.364 -14.091   2.541  1.00  0.00    -0.028 A 
HETATM   21  C   UNL     1      42.090 -13.500   1.489  1.00  0.00     0.012 A 
HETATM   22  C   UNL     1      41.698 -13.690   0.163  1.00  0.00     0.043 A 
HETATM   23  C   UNL     1      40.577 -14.462  -0.119  1.00  0.00     0.116 A 
HETATM   24  F   UNL     1      40.200 -14.640  -1.391  1.00  0.00    -0.206 F 
HETATM   25  C   UNL     1      39.837 -15.046   0.901  1.00  0.00     0.043 A 
HETATM   26  C   UNL     1      40.228 -14.861   2.228  1.00  0.00     0.012 A 
ENDBRANCH   9  20
BRANCH  10  27
HETATM   27  C   UNL     1      40.417 -11.712   4.235  1.00  0.00     0.249 C 
HETATM   28  N   UNL     1      41.352 -10.736   4.366  1.00  0.00    -0.366 N 
HETATM   29  H   UNL     1      42.206 -10.819   4.896  1.00  0.00     0.159 HD
HETATM   30  H   UNL     1      41.106  -9.821   4.005  1.00  0.00     0.159 HD
HETATM   31  O   UNL     1      39.344 -11.501   3.688  1.00  0.00    -0.268 OA
ENDBRANCH  10  27
TORSDOF 4
ENDMDL
MODEL 3
REMARK VINA RESULT:      -8.2      2.546      4.050
REMARK  4 active torsions:
REMARK  status: ('A' for Active; 'I' for Inactive)
REMARK    1  A    between atoms: C_7  and  C_8 
REMARK    2  A    between atoms: C_10  and  O_11 
REMARK    3  A    between atoms: C_17  and  C_18 
REMARK    4  A    between atoms: C_25  and  C_26 
REMARK       I    between atoms: C_26  and  N_27 
ROOT
HETATM    1  C   UNL     1      39.122 -13.075   5.869  1.00  0.00     0.070 C 
HETATM    2  C   UNL     1      40.087 -13.752   4.925  1.00  0.00     0.037 A 
HETATM    3  N   UNL     1      40.336 -15.096   5.180  1.00  0.00    -0.192 N 
HETATM    4  C   UNL     1      41.186 -15.843   4.454  1.00  0.00     0.726 A 
HETATM    5  N   UNL     1      41.841 -15.277   3.398  1.00  0.00    -0.083 N 
HETATM    6  N   UNL     1      42.716 -16.136   2.842  1.00  0.00    -0.135 NA
HETATM    7  C   UNL     1      42.469 -17.259   3.545  1.00  0.00     0.199 A 
HETATM    8  N   UNL     1      41.547 -17.094   4.565  1.00  0.00    -0.041 NA
HETATM    9  C   UNL     1      41.683 -13.877   2.986  1.00  0.00     0.202 A 
HETATM   10  C   UNL     1      40.716 -13.131   3.896  1.00  0.00     0.062 A 
HETATM   11  H   UNL     1      39.843 -15.529   5.957  1.00  0.00     0.184 HD
ENDROOT
BRANCH   7  12
HETATM   12  C   UNL     1      43.103 -18.545   3.267  1.00  0.00     0.017 A 
HETATM   13  C   UNL     1      43.956 -19.143   4.212  1.00  0.00     0.052 A 
HETATM   14  C   UNL     1      44.581 -20.361   3.937  1.00  0.00     0.069 A 
HETATM   15  C   UNL     1      44.346 -20.990   2.713  1.00  0.00     0.037 A 
HETATM   16  C   UNL     1      43.502 -20.410   1.766  1.00  0.00     0.004 A 
HETATM   17  C   UNL     1      42.884 -19.190   2.042  1.00  0.00     0.015 A 
BRANCH  14  18
HETATM   18  O   UNL     1      45.432 -21.034   4.771  1.00  0.00    -0.356 OA
HETATM   19  C   UNL     1      45.050 -22.351   5.151  1.00  0.00     0.210 C 
ENDBRANCH  14  18
ENDBRANCH   7  12
BRANCH   9  20
HETATM   20  C   UNL     1      41.319 -13.817   1.504  1.00  0.00    -0.028 A 
HETATM   21  C   UNL     1      42.108 -13.109   0.577  1.00  0.00     0.012 A 
HETATM   22  C   UNL     1      41.744 -13.056  -0.769  1.00  0.00     0.043 A 
HETATM   23  C   UNL     1      40.588 -13.699  -1.195  1.00  0.00     0.116 A 
HETATM   24  F   UNL     1      40.238 -13.644  -2.486  1.00  0.00    -0.206 F 
HETATM   25  C   UNL     1      39.785 -14.394  -0.298  1.00  0.00     0.043 A 
HETATM   26  C   UNL     1      40.148 -14.452   1.048  1.00  0.00     0.012 A 
ENDBRANCH   9  20
BRANCH  10  27
HETATM   27  C   UNL     1      40.414 -11.722   3.559  1.00  0.00     0.249 C 
HETATM   28  N   UNL     1      41.364 -10.816   3.906  1.00  0.00    -0.366 N 
HETATM   29  H   UNL     1      42.186 -11.019   4.453  1.00  0.00     0.159 HD
HETATM   30  H   UNL     1      41.159  -9.845   3.701  1.00  0.00     0.159 HD
HETATM   31  O   UNL     1      39.377 -11.383   3.007  1.00  0.00    -0.268 OA
ENDBRANCH  10  27
TORSDOF 4
ENDMDL
MODEL 4
REMARK VINA RESULT:      -7.9      1.422      2.125
REMARK  4 active torsions:
REMARK  status: ('A' for Active; 'I' for Inactive)
REMARK    1  A    between atoms: C_7  and  C_8 
REMARK    2  A    between atoms: C_10  and  O_11 
REMARK    3  A    between atoms: C_17  and  C_18 
REMARK    4  A    between atoms: C_25  and  C_26 
REMARK       I    between atoms: C_26  and  N_27 
ROOT
HETATM    1  C   UNL     1      41.078 -15.069  -2.503  1.00  0.00     0.070 C 
HETATM    2  C   UNL     1      41.018 -15.348  -1.021  1.00  0.00     0.037 A 
HETATM    3  N   UNL     1      41.934 -16.279  -0.546  1.00  0.00    -0.192 N 
HETATM    4  C   UNL     1      42.004 -16.662   0.741  1.00  0.00     0.726 A 
HETATM    5  N   UNL     1      41.147 -16.111   1.650  1.00  0.00    -0.083 N 
HETATM    6  N   UNL     1      41.291 -16.671   2.867  1.00  0.00    -0.135 NA
HETATM    7  C   UNL     1      42.337 -17.494   2.658  1.00  0.00     0.199 A 
HETATM    8  N   UNL     1      42.776 -17.526   1.344  1.00  0.00    -0.041 NA
HETATM    9  C   UNL     1      40.130 -15.106   1.319  1.00  0.00     0.202 A 
HETATM   10  C   UNL     1      40.135 -14.773  -0.167  1.00  0.00     0.062 A 
HETATM   11  H   UNL     1      42.585 -16.686  -1.214  1.00  0.00     0.184 HD
ENDROOT
BRANCH   7  12
HETATM   12  C   UNL     1      42.968 -18.285   3.710  1.00  0.00     0.017 A 
HETATM   13  C   UNL     1      43.826 -19.352   3.389  1.00  0.00     0.052 A 
HETATM   14  C   UNL     1      44.412 -20.123   4.395  1.00  0.00     0.069 A 
HETATM   15  C   UNL     1      44.144 -19.823   5.732  1.00  0.00     0.037 A 
HETATM   16  C   UNL     1      43.295 -18.767   6.066  1.00  0.00     0.004 A 
HETATM   17  C   UNL     1      42.708 -18.002   5.059  1.00  0.00     0.015 A 
BRANCH  14  18
HETATM   18  O   UNL     1      45.255 -21.185   4.206  1.00  0.00    -0.356 OA
HETATM   19  C   UNL     1      45.120 -22.278   5.108  1.00  0.00     0.210 C 
ENDBRANCH  14  18
ENDBRANCH   7  12
BRANCH   9  20
HETATM   20  C   UNL     1      40.291 -13.893   2.232  1.00  0.00    -0.028 A 
HETATM   21  C   UNL     1      39.250 -13.458   3.075  1.00  0.00     0.012 A 
HETATM   22  C   UNL     1      39.418 -12.336   3.887  1.00  0.00     0.043 A 
HETATM   23  C   UNL     1      40.619 -11.638   3.856  1.00  0.00     0.116 A 
HETATM   24  F   UNL     1      40.777 -10.559   4.633  1.00  0.00    -0.206 F 
HETATM   25  C   UNL     1      41.657 -12.039   3.025  1.00  0.00     0.043 A 
HETATM   26  C   UNL     1      41.494 -13.162   2.213  1.00  0.00     0.012 A 
ENDBRANCH   9  20
BRANCH  10  27
HETATM   27  C   UNL     1      39.198 -13.726  -0.633  1.00  0.00     0.249 C 
HETATM   28  N   UNL     1      37.929 -14.139  -0.884  1.00  0.00    -0.366 N 
HETATM   29  H   UNL     1      37.620 -15.098  -0.876  1.00  0.00     0.159 HD
HETATM   30  H   UNL     1      37.284 -13.436  -1.226  1.00  0.00     0.159 HD
HETATM   31  O   UNL     1      39.535 -12.561  -0.789  1.00  0.00    -0.268 OA
ENDBRANCH  10  27
TORSDOF 4
ENDMDL
MODEL 5
REMARK VINA RESULT:      -7.9      3.091      7.632
REMARK  4 active torsions:
REMARK  status: ('A' for Active; 'I' for Inactive)
REMARK    1  A    between atoms: C_7  and  C_8 
REMARK    2  A    between atoms: C_10  and  O_11 
REMARK    3  A    between atoms: C_17  and  C_18 
REMARK    4  A    between atoms: C_25  and  C_26 
REMARK       I    between atoms: C_26  and  N_27 
ROOT
HETATM    1  C   UNL     1      44.654 -14.224   7.141  1.00  0.00     0.070 C 
HETATM    2  C   UNL     1      43.745 -14.895   6.140  1.00  0.00     0.037 A 
HETATM    3  N   UNL     1      43.148 -14.053   5.210  1.00  0.00    -0.192 N 
HETATM    4  C   UNL     1      42.293 -14.480   4.263  1.00  0.00     0.726 A 
HETATM    5  N   UNL     1      41.991 -15.809   4.186  1.00  0.00    -0.083 N 
HETATM    6  N   UNL     1      41.055 -16.048   3.247  1.00  0.00    -0.135 NA
HETATM    7  C   UNL     1      40.902 -14.824   2.706  1.00  0.00     0.199 A 
HETATM    8  N   UNL     1      41.637 -13.833   3.337  1.00  0.00    -0.041 NA
HETATM    9  C   UNL     1      42.542 -16.833   5.081  1.00  0.00     0.202 A 
HETATM   10  C   UNL     1      43.476 -16.224   6.120  1.00  0.00     0.062 A 
HETATM   11  H   UNL     1      43.378 -13.063   5.252  1.00  0.00     0.184 HD
ENDROOT
BRANCH   7  12
HETATM   12  C   UNL     1      40.047 -14.547   1.556  1.00  0.00     0.017 A 
HETATM   13  C   UNL     1      40.594 -14.444   0.264  1.00  0.00     0.052 A 
HETATM   14  C   UNL     1      39.779 -14.156  -0.833  1.00  0.00     0.069 A 
HETATM   15  C   UNL     1      38.408 -13.977  -0.640  1.00  0.00     0.037 A 
HETATM   16  C   UNL     1      37.851 -14.077   0.635  1.00  0.00     0.004 A 
HETATM   17  C   UNL     1      38.668 -14.359   1.729  1.00  0.00     0.015 A 
BRANCH  14  18
HETATM   18  O   UNL     1      40.196 -14.025  -2.131  1.00  0.00    -0.356 OA
HETATM   19  C   UNL     1      40.718 -15.192  -2.757  1.00  0.00     0.210 C 
ENDBRANCH  14  18
ENDBRANCH   7  12
BRANCH   9  20
HETATM   20  C   UNL     1      43.173 -17.952   4.255  1.00  0.00    -0.028 A 
HETATM   21  C   UNL     1      43.373 -19.240   4.786  1.00  0.00     0.012 A 
HETATM   22  C   UNL     1      43.966 -20.241   4.014  1.00  0.00     0.043 A 
HETATM   23  C   UNL     1      44.370 -19.959   2.715  1.00  0.00     0.116 A 
HETATM   24  F   UNL     1      44.943 -20.918   1.978  1.00  0.00    -0.206 F 
HETATM   25  C   UNL     1      44.195 -18.692   2.172  1.00  0.00     0.043 A 
HETATM   26  C   UNL     1      43.599 -17.690   2.939  1.00  0.00     0.012 A 
ENDBRANCH   9  20
BRANCH  10  27
HETATM   27  C   UNL     1      44.153 -17.152   7.053  1.00  0.00     0.249 C 
HETATM   28  N   UNL     1      43.414 -17.567   8.113  1.00  0.00    -0.366 N 
HETATM   29  H   UNL     1      42.501 -17.215   8.356  1.00  0.00     0.159 HD
HETATM   30  H   UNL     1      43.874 -18.185   8.771  1.00  0.00     0.159 HD
HETATM   31  O   UNL     1      45.306 -17.525   6.891  1.00  0.00    -0.268 OA
ENDBRANCH  10  27
TORSDOF 4
ENDMDL
MODEL 6
REMARK VINA RESULT:      -7.8      3.513      7.669
REMARK  4 active torsions:
REMARK  status: ('A' for Active; 'I' for Inactive)
REMARK    1  A    between atoms: C_7  and  C_8 
REMARK    2  A    between atoms: C_10  and  O_11 
REMARK    3  A    between atoms: C_17  and  C_18 
REMARK    4  A    between atoms: C_25  and  C_26 
REMARK       I    between atoms: C_26  and  N_27 
ROOT
HETATM    1  C   UNL     1      42.354 -12.808   6.041  1.00  0.00     0.070 C 
HETATM    2  C   UNL     1      42.081 -13.342   4.656  1.00  0.00     0.037 A 
HETATM    3  N   UNL     1      42.364 -12.472   3.609  1.00  0.00    -0.192 N 
HETATM    4  C   UNL     1      42.158 -12.777   2.315  1.00  0.00     0.726 A 
HETATM    5  N   UNL     1      41.656 -14.004   1.989  1.00  0.00    -0.083 N 
HETATM    6  N   UNL     1      41.427 -14.108   0.665  1.00  0.00    -0.135 NA
HETATM    7  C   UNL     1      41.915 -12.934   0.219  1.00  0.00     0.199 A 
HETATM    8  N   UNL     1      42.346 -12.083   1.224  1.00  0.00    -0.041 NA
HETATM    9  C   UNL     1      41.317 -15.043   2.968  1.00  0.00     0.202 A 
HETATM   10  C   UNL     1      41.572 -14.571   4.394  1.00  0.00     0.062 A 
HETATM   11  H   UNL     1      42.750 -11.561   3.842  1.00  0.00     0.184 HD
ENDROOT
BRANCH   7  12
HETATM   12  C   UNL     1      41.994 -12.574  -1.194  1.00  0.00     0.017 A 
HETATM   13  C   UNL     1      42.398 -11.284  -1.584  1.00  0.00     0.052 A 
HETATM   14  C   UNL     1      42.451 -10.933  -2.935  1.00  0.00     0.069 A 
HETATM   15  C   UNL     1      42.106 -11.878  -3.903  1.00  0.00     0.037 A 
HETATM   16  C   UNL     1      41.705 -13.161  -3.531  1.00  0.00     0.004 A 
HETATM   17  C   UNL     1      41.647 -13.507  -2.181  1.00  0.00     0.015 A 
BRANCH  14  18
HETATM   18  O   UNL     1      42.821  -9.713  -3.434  1.00  0.00    -0.356 OA
HETATM   19  C   UNL     1      42.447  -9.430  -4.777  1.00  0.00     0.210 C 
ENDBRANCH  14  18
ENDBRANCH   7  12
BRANCH   9  20
HETATM   20  C   UNL     1      42.027 -16.344   2.604  1.00  0.00    -0.028 A 
HETATM   21  C   UNL     1      43.428 -16.466   2.671  1.00  0.00     0.012 A 
HETATM   22  C   UNL     1      44.054 -17.662   2.317  1.00  0.00     0.043 A 
HETATM   23  C   UNL     1      43.287 -18.738   1.887  1.00  0.00     0.116 A 
HETATM   24  F   UNL     1      43.889 -19.884   1.544  1.00  0.00    -0.206 F 
HETATM   25  C   UNL     1      41.904 -18.641   1.802  1.00  0.00     0.043 A 
HETATM   26  C   UNL     1      41.275 -17.447   2.157  1.00  0.00     0.012 A 
ENDBRANCH   9  20
BRANCH  10  27
HETATM   27  C   UNL     1      41.330 -15.542   5.485  1.00  0.00     0.249 C 
HETATM   28  N   UNL     1      40.038 -15.678   5.878  1.00  0.00    -0.366 N 
HETATM   29  H   UNL     1      39.272 -15.104   5.560  1.00  0.00     0.159 HD
HETATM   30  H   UNL     1      39.862 -16.322   6.640  1.00  0.00     0.159 HD
HETATM   31  O   UNL     1      42.230 -16.184   6.009  1.00  0.00    -0.268 OA
ENDBRANCH  10  27
TORSDOF 4
ENDMDL
MODEL 7
REMARK VINA RESULT:      -7.6      2.848      4.407
REMARK  4 active torsions:
REMARK  status: ('A' for Active; 'I' for Inactive)
REMARK    1  A    between atoms: C_7  and  C_8 
REMARK    2  A    between atoms: C_10  and  O_11 
REMARK    3  A    between atoms: C_17  and  C_18 
REMARK    4  A    between atoms: C_25  and  C_26 
REMARK       I    between atoms: C_26  and  N_27 
ROOT
HETATM    1  C   UNL     1      40.336 -11.621   6.988  1.00  0.00     0.070 C 
HETATM    2  C   UNL     1      40.970 -12.419   5.874  1.00  0.00     0.037 A 
HETATM    3  N   UNL     1      41.298 -13.733   6.187  1.00  0.00    -0.192 N 
HETATM    4  C   UNL     1      41.891 -14.576   5.322  1.00  0.00     0.726 A 
HETATM    5  N   UNL     1      42.183 -14.143   4.061  1.00  0.00    -0.083 N 
HETATM    6  N   UNL     1      42.853 -15.079   3.361  1.00  0.00    -0.135 NA
HETATM    7  C   UNL     1      42.846 -16.112   4.225  1.00  0.00     0.199 A 
HETATM    8  N   UNL     1      42.281 -15.815   5.455  1.00  0.00    -0.041 NA
HETATM    9  C   UNL     1      41.892 -12.793   3.565  1.00  0.00     0.202 A 
HETATM   10  C   UNL     1      41.245 -11.929   4.640  1.00  0.00     0.062 A 
HETATM   11  H   UNL     1      41.072 -14.068   7.121  1.00  0.00     0.184 HD
ENDROOT
BRANCH   7  12
HETATM   12  C   UNL     1      43.376 -17.436   3.910  1.00  0.00     0.017 A 
HETATM   13  C   UNL     1      43.739 -18.326   4.937  1.00  0.00     0.052 A 
HETATM   14  C   UNL     1      44.268 -19.583   4.636  1.00  0.00     0.069 A 
HETATM   15  C   UNL     1      44.429 -19.956   3.300  1.00  0.00     0.037 A 
HETATM   16  C   UNL     1      44.074 -19.084   2.271  1.00  0.00     0.004 A 
HETATM   17  C   UNL     1      43.551 -17.828   2.575  1.00  0.00     0.015 A 
BRANCH  14  18
HETATM   18  O   UNL     1      44.661 -20.528   5.545  1.00  0.00    -0.356 OA
HETATM   19  C   UNL     1      44.882 -21.843   5.047  1.00  0.00     0.210 C 
ENDBRANCH  14  18
ENDBRANCH   7  12
BRANCH   9  20
HETATM   20  C   UNL     1      41.089 -12.883   2.270  1.00  0.00    -0.028 A 
HETATM   21  C   UNL     1      41.578 -12.357   1.058  1.00  0.00     0.012 A 
HETATM   22  C   UNL     1      40.817 -12.439  -0.108  1.00  0.00     0.043 A 
HETATM   23  C   UNL     1      39.563 -13.036  -0.071  1.00  0.00     0.116 A 
HETATM   24  F   UNL     1      38.832 -13.111  -1.191  1.00  0.00    -0.206 F 
HETATM   25  C   UNL     1      39.053 -13.554   1.113  1.00  0.00     0.043 A 
HETATM   26  C   UNL     1      39.812 -13.476   2.281  1.00  0.00     0.012 A 
ENDBRANCH   9  20
BRANCH  10  27
HETATM   27  C   UNL     1      40.841 -10.558   4.259  1.00  0.00     0.249 C 
HETATM   28  N   UNL     1      41.814  -9.614   4.330  1.00  0.00    -0.366 N 
HETATM   29  H   UNL     1      42.735  -9.759   4.713  1.00  0.00     0.159 HD
HETATM   30  H   UNL     1      41.544  -8.666   4.093  1.00  0.00     0.159 HD
HETATM   31  O   UNL     1      39.704 -10.279   3.904  1.00  0.00    -0.268 OA
ENDBRANCH  10  27
TORSDOF 4
ENDMDL
MODEL 8
REMARK VINA RESULT:      -7.6      2.526      6.496
REMARK  4 active torsions:
REMARK  status: ('A' for Active; 'I' for Inactive)
REMARK    1  A    between atoms: C_7  and  C_8 
REMARK    2  A    between atoms: C_10  and  O_11 
REMARK    3  A    between atoms: C_17  and  C_18 
REMARK    4  A    between atoms: C_25  and  C_26 
REMARK       I    between atoms: C_26  and  N_27 
ROOT
HETATM    1  C   UNL     1      43.349 -18.938   5.116  1.00  0.00     0.070 C 
HETATM    2  C   UNL     1      43.066 -17.650   4.382  1.00  0.00     0.037 A 
HETATM    3  N   UNL     1      42.638 -17.788   3.067  1.00  0.00    -0.192 N 
HETATM    4  C   UNL     1      42.364 -16.745   2.262  1.00  0.00     0.726 A 
HETATM    5  N   UNL     1      42.496 -15.475   2.746  1.00  0.00    -0.083 N 
HETATM    6  N   UNL     1      42.272 -14.556   1.786  1.00  0.00    -0.135 NA
HETATM    7  C   UNL     1      41.901 -15.337   0.752  1.00  0.00     0.199 A 
HETATM    8  N   UNL     1      41.977 -16.695   1.016  1.00  0.00    -0.041 NA
HETATM    9  C   UNL     1      42.923 -15.154   4.112  1.00  0.00     0.202 A 
HETATM   10  C   UNL     1      43.224 -16.412   4.915  1.00  0.00     0.062 A 
HETATM   11  H   UNL     1      42.525 -18.731   2.703  1.00  0.00     0.184 HD
ENDROOT
BRANCH   7  12
HETATM   12  C   UNL     1      41.450 -14.817  -0.535  1.00  0.00     0.017 A 
HETATM   13  C   UNL     1      41.027 -15.690  -1.553  1.00  0.00     0.052 A 
HETATM   14  C   UNL     1      40.618 -15.194  -2.793  1.00  0.00     0.069 A 
HETATM   15  C   UNL     1      40.626 -13.816  -3.015  1.00  0.00     0.037 A 
HETATM   16  C   UNL     1      41.042 -12.937  -2.015  1.00  0.00     0.004 A 
HETATM   17  C   UNL     1      41.455 -13.436  -0.780  1.00  0.00     0.015 A 
BRANCH  14  18
HETATM   18  O   UNL     1      40.193 -15.942  -3.858  1.00  0.00    -0.356 OA
HETATM   19  C   UNL     1      38.803 -15.895  -4.159  1.00  0.00     0.210 C 
ENDBRANCH  14  18
ENDBRANCH   7  12
BRANCH   9  20
HETATM   20  C   UNL     1      41.901 -14.226   4.765  1.00  0.00    -0.028 A 
HETATM   21  C   UNL     1      40.554 -14.604   4.924  1.00  0.00     0.012 A 
HETATM   22  C   UNL     1      39.637 -13.730   5.509  1.00  0.00     0.043 A 
HETATM   23  C   UNL     1      40.056 -12.474   5.930  1.00  0.00     0.116 A 
HETATM   24  F   UNL     1      39.173 -11.636   6.488  1.00  0.00    -0.206 F 
HETATM   25  C   UNL     1      41.376 -12.072   5.775  1.00  0.00     0.043 A 
HETATM   26  C   UNL     1      42.297 -12.944   5.192  1.00  0.00     0.012 A 
ENDBRANCH   9  20
BRANCH  10  27
HETATM   27  C   UNL     1      43.609 -16.239   6.334  1.00  0.00     0.249 C 
HETATM   28  N   UNL     1      42.617 -16.426   7.241  1.00  0.00    -0.366 N 
HETATM   29  H   UNL     1      41.644 -16.566   7.016  1.00  0.00     0.159 HD
HETATM   30  H   UNL     1      42.862 -16.287   8.215  1.00  0.00     0.159 HD
HETATM   31  O   UNL     1      44.745 -15.944   6.678  1.00  0.00    -0.268 OA
ENDBRANCH  10  27
TORSDOF 4
ENDMDL
MODEL 9
REMARK VINA RESULT:      -7.4      3.600      5.719
REMARK  4 active torsions:
REMARK  status: ('A' for Active; 'I' for Inactive)
REMARK    1  A    between atoms: C_7  and  C_8 
REMARK    2  A    between atoms: C_10  and  O_11 
REMARK    3  A    between atoms: C_17  and  C_18 
REMARK    4  A    between atoms: C_25  and  C_26 
REMARK       I    between atoms: C_26  and  N_27 
ROOT
HETATM    1  C   UNL     1      42.292  -9.649  -1.110  1.00  0.00     0.070 C 
HETATM    2  C   UNL     1      42.099 -11.137  -0.947  1.00  0.00     0.037 A 
HETATM    3  N   UNL     1      42.205 -11.619   0.352  1.00  0.00    -0.192 N 
HETATM    4  C   UNL     1      42.084 -12.920   0.674  1.00  0.00     0.726 A 
HETATM    5  N   UNL     1      41.833 -13.831  -0.311  1.00  0.00    -0.083 N 
HETATM    6  N   UNL     1      41.834 -15.089   0.170  1.00  0.00    -0.135 NA
HETATM    7  C   UNL     1      41.989 -14.869   1.490  1.00  0.00     0.199 A 
HETATM    8  N   UNL     1      42.174 -13.537   1.821  1.00  0.00    -0.041 NA
HETATM    9  C   UNL     1      41.679 -13.489  -1.730  1.00  0.00     0.202 A 
HETATM   10  C   UNL     1      41.859 -11.996  -1.969  1.00  0.00     0.062 A 
HETATM   11  H   UNL     1      42.380 -10.945   1.094  1.00  0.00     0.184 HD
ENDROOT
BRANCH   7  12
HETATM   12  C   UNL     1      41.963 -15.927   2.496  1.00  0.00     0.017 A 
HETATM   13  C   UNL     1      42.748 -17.083   2.342  1.00  0.00     0.052 A 
HETATM   14  C   UNL     1      42.704 -18.105   3.293  1.00  0.00     0.069 A 
HETATM   15  C   UNL     1      41.877 -17.967   4.410  1.00  0.00     0.037 A 
HETATM   16  C   UNL     1      41.093 -16.826   4.576  1.00  0.00     0.004 A 
HETATM   17  C   UNL     1      41.134 -15.810   3.622  1.00  0.00     0.015 A 
BRANCH  14  18
HETATM   18  O   UNL     1      43.414 -19.275   3.249  1.00  0.00    -0.356 OA
HETATM   19  C   UNL     1      43.396 -19.989   2.019  1.00  0.00     0.210 C 
ENDBRANCH  14  18
ENDBRANCH   7  12
BRANCH   9  20
HETATM   20  C   UNL     1      40.359 -14.051  -2.254  1.00  0.00    -0.028 A 
HETATM   21  C   UNL     1      40.320 -14.997  -3.296  1.00  0.00     0.012 A 
HETATM   22  C   UNL     1      39.099 -15.482  -3.767  1.00  0.00     0.043 A 
HETATM   23  C   UNL     1      37.914 -15.021  -3.208  1.00  0.00     0.116 A 
HETATM   24  F   UNL     1      36.743 -15.484  -3.663  1.00  0.00    -0.206 F 
HETATM   25  C   UNL     1      37.925 -14.079  -2.186  1.00  0.00     0.043 A 
HETATM   26  C   UNL     1      39.143 -13.594  -1.711  1.00  0.00     0.012 A 
ENDBRANCH   9  20
BRANCH  10  27
HETATM   27  C   UNL     1      41.670 -11.500  -3.350  1.00  0.00     0.249 C 
HETATM   28  N   UNL     1      42.623 -11.867  -4.245  1.00  0.00    -0.366 N 
HETATM   29  H   UNL     1      43.478 -12.350  -4.015  1.00  0.00     0.159 HD
HETATM   30  H   UNL     1      42.518 -11.515  -5.189  1.00  0.00     0.159 HD
HETATM   31  O   UNL     1      40.721 -10.801  -3.677  1.00  0.00    -0.268 OA
ENDBRANCH  10  27
TORSDOF 4
ENDMDL
MODEL 10
REMARK VINA RESULT:      -7.0      3.969      6.271
REMARK  4 active torsions:
REMARK  status: ('A' for Active; 'I' for Inactive)
REMARK    1  A    between atoms: C_7  and  C_8 
REMARK    2  A    between atoms: C_10  and  O_11 
REMARK    3  A    between atoms: C_17  and  C_18 
REMARK    4  A    between atoms: C_25  and  C_26 
REMARK       I    between atoms: C_26  and  N_27 
ROOT
HETATM    1  C   UNL     1      42.462  -9.370  -2.209  1.00  0.00     0.070 C 
HETATM    2  C   UNL     1      42.180 -10.816  -1.878  1.00  0.00     0.037 A 
HETATM    3  N   UNL     1      42.316 -11.164  -0.539  1.00  0.00    -0.192 N 
HETATM    4  C   UNL     1      42.126 -12.412  -0.074  1.00  0.00     0.726 A 
HETATM    5  N   UNL     1      41.769 -13.402  -0.943  1.00  0.00    -0.083 N 
HETATM    6  N   UNL     1      41.711 -14.600  -0.329  1.00  0.00    -0.135 NA
HETATM    7  C   UNL     1      41.943 -14.253   0.952  1.00  0.00     0.199 A 
HETATM    8  N   UNL     1      42.230 -12.909   1.129  1.00  0.00    -0.041 NA
HETATM    9  C   UNL     1      41.571 -13.203  -2.383  1.00  0.00     0.202 A 
HETATM   10  C   UNL     1      41.836 -11.759  -2.790  1.00  0.00     0.062 A 
HETATM   11  H   UNL     1      42.570 -10.429   0.117  1.00  0.00     0.184 HD
ENDROOT
BRANCH   7  12
HETATM   12  C   UNL     1      41.895 -15.194   2.068  1.00  0.00     0.017 A 
HETATM   13  C   UNL     1      41.617 -14.747   3.371  1.00  0.00     0.052 A 
HETATM   14  C   UNL     1      41.594 -15.643   4.442  1.00  0.00     0.069 A 
HETATM   15  C   UNL     1      41.844 -16.997   4.208  1.00  0.00     0.037 A 
HETATM   16  C   UNL     1      42.121 -17.455   2.920  1.00  0.00     0.004 A 
HETATM   17  C   UNL     1      42.148 -16.556   1.854  1.00  0.00     0.015 A 
BRANCH  14  18
HETATM   18  O   UNL     1      41.342 -15.327   5.750  1.00  0.00    -0.356 OA
HETATM   19  C   UNL     1      40.271 -14.423   5.996  1.00  0.00     0.210 C 
ENDBRANCH  14  18
ENDBRANCH   7  12
BRANCH   9  20
HETATM   20  C   UNL     1      40.194 -13.723  -2.789  1.00  0.00    -0.028 A 
HETATM   21  C   UNL     1      39.010 -13.098  -2.353  1.00  0.00     0.012 A 
HETATM   22  C   UNL     1      37.763 -13.603  -2.726  1.00  0.00     0.043 A 
HETATM   23  C   UNL     1      37.692 -14.737  -3.526  1.00  0.00     0.116 A 
HETATM   24  F   UNL     1      36.495 -15.223  -3.879  1.00  0.00    -0.206 F 
HETATM   25  C   UNL     1      38.845 -15.379  -3.960  1.00  0.00     0.043 A 
HETATM   26  C   UNL     1      40.093 -14.875  -3.592  1.00  0.00     0.012 A 
ENDBRANCH   9  20
BRANCH  10  27
HETATM   27  C   UNL     1      41.615 -11.400  -4.208  1.00  0.00     0.249 C 
HETATM   28  N   UNL     1      42.696 -11.512  -5.021  1.00  0.00    -0.366 N 
HETATM   29  H   UNL     1      43.635 -11.715  -4.713  1.00  0.00     0.159 HD
HETATM   30  H   UNL     1      42.564 -11.247  -5.991  1.00  0.00     0.159 HD
HETATM   31  O   UNL     1      40.531 -11.022  -4.632  1.00  0.00    -0.268 OA
ENDBRANCH  10  27
TORSDOF 4
ENDMDL
