MODEL 1
REMARK VINA RESULT:      -8.8      0.000      0.000
REMARK  11 active torsions:
REMARK  status: ('A' for Active; 'I' for Inactive)
REMARK    1  A    between atoms: O_2  and  C_3 
REMARK    2  A    between atoms: C_6  and  C_7 
REMARK    3  A    between atoms: C_7  and  S_8 
REMARK    4  A    between atoms: C_7  and  C_22 
REMARK    5  A    between atoms: S_8  and  C_9 
REMARK    6  A    between atoms: C_12  and  C_13 
REMARK    7  A    between atoms: C_22  and  C_23 
REMARK       I    between atoms: C_23  and  N_24 
REMARK    8  A    between atoms: N_24  and  C_25 
REMARK    9  A    between atoms: C_25  and  C_26 
REMARK   10  A    between atoms: C_26  and  C_27 
REMARK   11  A    between atoms: C_27  and  N_28 
ROOT
HETATM    1  C   UNL     1      41.887 -13.646   5.228  1.00  0.00     0.097 C 
ENDROOT
BRANCH   1   2
HETATM    2  C   UNL     1      42.402 -14.865   5.994  1.00  0.00    -0.043 A 
HETATM    3  C   UNL     1      41.524 -15.924   6.282  1.00  0.00     0.011 A 
HETATM    4  C   UNL     1      41.945 -17.035   7.025  1.00  0.00     0.037 A 
HETATM    5  C   UNL     1      43.253 -17.105   7.499  1.00  0.00     0.068 A 
HETATM    6  C   UNL     1      44.132 -16.059   7.223  1.00  0.00     0.037 A 
HETATM    7  C   UNL     1      43.716 -14.951   6.480  1.00  0.00     0.011 A 
BRANCH   5   8
HETATM    8  O   UNL     1      43.791 -18.117   8.242  1.00  0.00    -0.356 OA
HETATM    9  C   UNL     1      43.967 -19.372   7.596  1.00  0.00     0.210 C 
ENDBRANCH   5   8
ENDBRANCH   1   2
BRANCH   1  10
HETATM   10  S   UNL     1      42.801 -13.475   3.631  1.00  0.00    -0.080 SA
BRANCH  10  11
HETATM   11  C   UNL     1      42.547 -15.026   2.944  1.00  0.00     0.190 A 
HETATM   12  N   UNL     1      41.581 -15.403   2.150  1.00  0.00    -0.122 NA
HETATM   13  N   UNL     1      41.735 -16.759   1.951  1.00  0.00    -0.129 NA
HETATM   14  C   UNL     1      42.785 -17.173   2.644  1.00  0.00     0.162 A 
HETATM   15  N   UNL     1      43.342 -16.080   3.259  1.00  0.00    -0.317 N 
HETATM   16  H   UNL     1      44.147 -16.061   3.865  1.00  0.00     0.169 HD
BRANCH  14  17
HETATM   17  C   UNL     1      43.292 -18.540   2.747  1.00  0.00     0.012 A 
HETATM   18  C   UNL     1      44.064 -18.907   3.859  1.00  0.00     0.017 A 
HETATM   19  C   UNL     1      44.560 -20.207   3.991  1.00  0.00     0.025 A 
HETATM   20  C   UNL     1      44.294 -21.151   3.004  1.00  0.00     0.034 A 
HETATM   21 CL   UNL     1      44.904 -22.752   3.160  1.00  0.00    -0.084 Cl
HETATM   22  C   UNL     1      43.539 -20.805   1.886  1.00  0.00     0.025 A 
HETATM   23  C   UNL     1      43.040 -19.504   1.756  1.00  0.00     0.017 A 
ENDBRANCH  14  17
ENDBRANCH  10  11
ENDBRANCH   1  10
BRANCH   1  24
HETATM   24  C   UNL     1      40.357 -13.601   5.089  1.00  0.00     0.123 C 
BRANCH  24  25
HETATM   25  C   UNL     1      39.690 -12.497   5.883  1.00  0.00     0.219 C 
HETATM   26  N   UNL     1      40.427 -12.091   6.978  1.00  0.00    -0.361 N 
HETATM   27  H   UNL     1      41.207 -12.686   7.251  1.00  0.00     0.162 HD
HETATM   28  O   UNL     1      38.630 -11.950   5.583  1.00  0.00    -0.274 OA
BRANCH  26  29
HETATM   29  C   UNL     1      39.884 -11.223   8.002  1.00  0.00     0.124 C 
BRANCH  29  30
HETATM   30  C   UNL     1      40.889 -10.243   8.608  1.00  0.00     0.047 C 
BRANCH  30  31
HETATM   31  C   UNL     1      41.413 -10.542  10.013  1.00  0.00     0.236 C 
BRANCH  31  32
HETATM   32  N   UNL     1      42.550 -11.523  10.047  1.00  0.00    -0.067 N 
HETATM   33  H   UNL     1      42.110 -12.464   9.948  1.00  0.00     0.280 HD
HETATM   34  C   UNL     1      43.609 -11.339   8.977  1.00  0.00     0.261 C 
HETATM   35  C   UNL     1      44.679 -12.428   9.109  1.00  0.00     0.195 C 
HETATM   36  O   UNL     1      45.267 -12.419  10.415  1.00  0.00    -0.388 OA
HETATM   37  C   UNL     1      44.287 -12.670  11.430  1.00  0.00     0.195 C 
HETATM   38  C   UNL     1      43.208 -11.582  11.424  1.00  0.00     0.261 C 
ENDBRANCH  31  32
ENDBRANCH  30  31
ENDBRANCH  29  30
ENDBRANCH  26  29
ENDBRANCH  24  25
ENDBRANCH   1  24
TORSDOF 11
ENDMDL
MODEL 2
REMARK VINA RESULT:      -8.6      4.540      9.135
REMARK  11 active torsions:
REMARK  status: ('A' for Active; 'I' for Inactive)
REMARK    1  A    between atoms: O_2  and  C_3 
REMARK    2  A    between atoms: C_6  and  C_7 
REMARK    3  A    between atoms: C_7  and  S_8 
REMARK    4  A    between atoms: C_7  and  C_22 
REMARK    5  A    between atoms: S_8  and  C_9 
REMARK    6  A    between atoms: C_12  and  C_13 
REMARK    7  A    between atoms: C_22  and  C_23 
REMARK       I    between atoms: C_23  and  N_24 
REMARK    8  A    between atoms: N_24  and  C_25 
REMARK    9  A    between atoms: C_25  and  C_26 
REMARK   10  A    between atoms: C_26  and  C_27 
REMARK   11  A    between atoms: C_27  and  N_28 
ROOT
HETATM    1  C   UNL     1      42.509 -15.954   6.034  1.00  0.00     0.097 C 
ENDROOT
BRANCH   1   2
HETATM    2  C   UNL     1      43.215 -17.187   5.469  1.00  0.00    -0.043 A 
HETATM    3  C   UNL     1      42.742 -17.775   4.284  1.00  0.00     0.011 A 
HETATM    4  C   UNL     1      43.332 -18.935   3.764  1.00  0.00     0.037 A 
HETATM    5  C   UNL     1      44.404 -19.532   4.423  1.00  0.00     0.068 A 
HETATM    6  C   UNL     1      44.880 -18.959   5.601  1.00  0.00     0.037 A 
HETATM    7  C   UNL     1      44.296 -17.801   6.122  1.00  0.00     0.011 A 
BRANCH   5   8
HETATM    8  O   UNL     1      45.062 -20.665   4.036  1.00  0.00    -0.356 OA
HETATM    9  C   UNL     1      45.022 -21.773   4.927  1.00  0.00     0.210 C 
ENDBRANCH   5   8
ENDBRANCH   1   2
BRANCH   1  10
HETATM   10  S   UNL     1      43.202 -14.424   5.262  1.00  0.00    -0.080 SA
BRANCH  10  11
HETATM   11  C   UNL     1      43.961 -13.693   6.616  1.00  0.00     0.190 A 
HETATM   12  N   UNL     1      45.126 -13.977   7.133  1.00  0.00    -0.122 NA
HETATM   13  N   UNL     1      45.257 -13.205   8.268  1.00  0.00    -0.129 NA
HETATM   14  C   UNL     1      44.157 -12.482   8.419  1.00  0.00     0.162 A 
HETATM   15  N   UNL     1      43.328 -12.749   7.359  1.00  0.00    -0.317 N 
HETATM   16  H   UNL     1      42.412 -12.367   7.185  1.00  0.00     0.169 HD
BRANCH  14  17
HETATM   17  C   UNL     1      43.856 -11.550   9.504  1.00  0.00     0.012 A 
HETATM   18  C   UNL     1      42.710 -10.744   9.422  1.00  0.00     0.017 A 
HETATM   19  C   UNL     1      42.390  -9.845  10.443  1.00  0.00     0.025 A 
HETATM   20  C   UNL     1      43.219  -9.740  11.555  1.00  0.00     0.034 A 
HETATM   21 CL   UNL     1      42.831  -8.635  12.814  1.00  0.00    -0.084 Cl
HETATM   22  C   UNL     1      44.368 -10.523  11.652  1.00  0.00     0.025 A 
HETATM   23  C   UNL     1      44.686 -11.425  10.630  1.00  0.00     0.017 A 
ENDBRANCH  14  17
ENDBRANCH  10  11
ENDBRANCH   1  10
BRANCH   1  24
HETATM   24  C   UNL     1      40.975 -16.045   5.992  1.00  0.00     0.123 C 
BRANCH  24  25
HETATM   25  C   UNL     1      40.307 -14.958   5.175  1.00  0.00     0.219 C 
HETATM   26  N   UNL     1      40.114 -15.310   3.854  1.00  0.00    -0.361 N 
HETATM   27  H   UNL     1      40.603 -16.140   3.525  1.00  0.00     0.162 HD
HETATM   28  O   UNL     1      39.908 -13.883   5.619  1.00  0.00    -0.274 OA
BRANCH  26  29
HETATM   29  C   UNL     1      39.712 -14.352   2.846  1.00  0.00     0.124 C 
BRANCH  29  30
HETATM   30  C   UNL     1      39.465 -14.948   1.460  1.00  0.00     0.047 C 
BRANCH  30  31
HETATM   31  C   UNL     1      39.452 -13.991   0.267  1.00  0.00     0.236 C 
BRANCH  31  32
HETATM   32  N   UNL     1      39.534 -14.675  -1.068  1.00  0.00    -0.067 N 
HETATM   33  H   UNL     1      39.169 -15.639  -0.911  1.00  0.00     0.280 HD
HETATM   34  C   UNL     1      38.763 -14.013  -2.194  1.00  0.00     0.261 C 
HETATM   35  C   UNL     1      38.906 -14.837  -3.479  1.00  0.00     0.195 C 
HETATM   36  O   UNL     1      40.283 -15.005  -3.834  1.00  0.00    -0.388 OA
HETATM   37  C   UNL     1      41.005 -15.699  -2.809  1.00  0.00     0.195 C 
HETATM   38  C   UNL     1      40.981 -14.907  -1.497  1.00  0.00     0.261 C 
ENDBRANCH  31  32
ENDBRANCH  30  31
ENDBRANCH  29  30
ENDBRANCH  26  29
ENDBRANCH  24  25
ENDBRANCH   1  24
TORSDOF 11
ENDMDL
MODEL 3
REMARK VINA RESULT:      -8.5      0.570      1.500
REMARK  11 active torsions:
REMARK  status: ('A' for Active; 'I' for Inactive)
REMARK    1  A    between atoms: O_2  and  C_3 
REMARK    2  A    between atoms: C_6  and  C_7 
REMARK    3  A    between atoms: C_7  and  S_8 
REMARK    4  A    between atoms: C_7  and  C_22 
REMARK    5  A    between atoms: S_8  and  C_9 
REMARK    6  A    between atoms: C_12  and  C_13 
REMARK    7  A    between atoms: C_22  and  C_23 
REMARK       I    between atoms: C_23  and  N_24 
REMARK    8  A    between atoms: N_24  and  C_25 
REMARK    9  A    between atoms: C_25  and  C_26 
REMARK   10  A    between atoms: C_26  and  C_27 
REMARK   11  A    between atoms: C_27  and  N_28 
ROOT
HETATM    1  C   UNL     1      41.691 -13.759   5.246  1.00  0.00     0.097 C 
ENDROOT
BRANCH   1   2
HETATM    2  C   UNL     1      42.358 -14.899   6.015  1.00  0.00    -0.043 A 
HETATM    3  C   UNL     1      43.719 -14.804   6.354  1.00  0.00     0.011 A 
HETATM    4  C   UNL     1      44.378 -15.850   7.014  1.00  0.00     0.037 A 
HETATM    5  C   UNL     1      43.689 -17.015   7.342  1.00  0.00     0.068 A 
HETATM    6  C   UNL     1      42.340 -17.123   7.007  1.00  0.00     0.037 A 
HETATM    7  C   UNL     1      41.679 -16.081   6.351  1.00  0.00     0.011 A 
BRANCH   5   8
HETATM    8  O   UNL     1      44.207 -18.112   7.970  1.00  0.00    -0.356 OA
HETATM    9  C   UNL     1      43.717 -19.384   7.562  1.00  0.00     0.210 C 
ENDBRANCH   5   8
ENDBRANCH   1   2
BRANCH   1  10
HETATM   10  S   UNL     1      42.420 -13.631   3.552  1.00  0.00    -0.080 SA
BRANCH  10  11
HETATM   11  C   UNL     1      42.201 -15.234   2.983  1.00  0.00     0.190 A 
HETATM   12  N   UNL     1      41.171 -15.728   2.351  1.00  0.00    -0.122 NA
HETATM   13  N   UNL     1      41.406 -17.078   2.198  1.00  0.00    -0.129 NA
HETATM   14  C   UNL     1      42.571 -17.372   2.756  1.00  0.00     0.162 A 
HETATM   15  N   UNL     1      43.115 -16.206   3.235  1.00  0.00    -0.317 N 
HETATM   16  H   UNL     1      43.991 -16.093   3.720  1.00  0.00     0.169 HD
BRANCH  14  17
HETATM   17  C   UNL     1      43.196 -18.689   2.853  1.00  0.00     0.012 A 
HETATM   18  C   UNL     1      42.984 -19.629   1.832  1.00  0.00     0.017 A 
HETATM   19  C   UNL     1      43.570 -20.897   1.891  1.00  0.00     0.025 A 
HETATM   20  C   UNL     1      44.369 -21.239   2.979  1.00  0.00     0.034 A 
HETATM   21 CL   UNL     1      45.091 -22.798   3.057  1.00  0.00    -0.084 Cl
HETATM   22  C   UNL     1      44.582 -20.325   4.008  1.00  0.00     0.025 A 
HETATM   23  C   UNL     1      43.998 -19.055   3.947  1.00  0.00     0.017 A 
ENDBRANCH  14  17
ENDBRANCH  10  11
ENDBRANCH   1  10
BRANCH   1  24
HETATM   24  C   UNL     1      40.154 -13.810   5.271  1.00  0.00     0.123 C 
BRANCH  24  25
HETATM   25  C   UNL     1      39.500 -12.604   5.913  1.00  0.00     0.219 C 
HETATM   26  N   UNL     1      40.168 -12.155   7.035  1.00  0.00    -0.361 N 
HETATM   27  H   UNL     1      40.879 -12.771   7.423  1.00  0.00     0.162 HD
HETATM   28  O   UNL     1      38.510 -12.020   5.477  1.00  0.00    -0.274 OA
BRANCH  26  29
HETATM   29  C   UNL     1      39.601 -11.172   7.935  1.00  0.00     0.124 C 
BRANCH  29  30
HETATM   30  C   UNL     1      40.627 -10.382   8.747  1.00  0.00     0.047 C 
BRANCH  30  31
HETATM   31  C   UNL     1      42.095 -10.484   8.328  1.00  0.00     0.236 C 
BRANCH  31  32
HETATM   32  N   UNL     1      43.038 -10.759   9.465  1.00  0.00    -0.067 N 
HETATM   33  H   UNL     1      43.548  -9.863   9.627  1.00  0.00     0.280 HD
HETATM   34  C   UNL     1      42.392 -11.221  10.757  1.00  0.00     0.261 C 
HETATM   35  C   UNL     1      43.465 -11.424  11.832  1.00  0.00     0.195 C 
HETATM   36  O   UNL     1      44.462 -12.356  11.399  1.00  0.00    -0.388 OA
HETATM   37  C   UNL     1      45.133 -11.891  10.221  1.00  0.00     0.195 C 
HETATM   38  C   UNL     1      44.145 -11.730   9.060  1.00  0.00     0.261 C 
ENDBRANCH  31  32
ENDBRANCH  30  31
ENDBRANCH  29  30
ENDBRANCH  26  29
ENDBRANCH  24  25
ENDBRANCH   1  24
TORSDOF 11
ENDMDL
MODEL 4
REMARK VINA RESULT:      -8.4      3.736      7.177
REMARK  11 active torsions:
REMARK  status: ('A' for Active; 'I' for Inactive)
REMARK    1  A    between atoms: O_2  and  C_3 
REMARK    2  A    between atoms: C_6  and  C_7 
REMARK    3  A    between atoms: C_7  and  S_8 
REMARK    4  A    between atoms: C_7  and  C_22 
REMARK    5  A    between atoms: S_8  and  C_9 
REMARK    6  A    between atoms: C_12  and  C_13 
REMARK    7  A    between atoms: C_22  and  C_23 
REMARK       I    between atoms: C_23  and  N_24 
REMARK    8  A    between atoms: N_24  and  C_25 
REMARK    9  A    between atoms: C_25  and  C_26 
REMARK   10  A    between atoms: C_26  and  C_27 
REMARK   11  A    between atoms: C_27  and  N_28 
ROOT
HETATM    1  C   UNL     1      41.463 -14.045   4.356  1.00  0.00     0.097 C 
ENDROOT
BRANCH   1   2
HETATM    2  C   UNL     1      42.109 -14.935   5.417  1.00  0.00    -0.043 A 
HETATM    3  C   UNL     1      41.486 -16.141   5.784  1.00  0.00     0.011 A 
HETATM    4  C   UNL     1      42.021 -16.958   6.789  1.00  0.00     0.037 A 
HETATM    5  C   UNL     1      43.188 -16.582   7.451  1.00  0.00     0.068 A 
HETATM    6  C   UNL     1      43.812 -15.387   7.098  1.00  0.00     0.037 A 
HETATM    7  C   UNL     1      43.283 -14.570   6.095  1.00  0.00     0.011 A 
BRANCH   5   8
HETATM    8  O   UNL     1      43.808 -17.273   8.452  1.00  0.00    -0.356 OA
HETATM    9  C   UNL     1      44.092 -18.646   8.213  1.00  0.00     0.210 C 
ENDBRANCH   5   8
ENDBRANCH   1   2
BRANCH   1  10
HETATM   10  S   UNL     1      42.641 -13.778   2.957  1.00  0.00    -0.080 SA
BRANCH  10  11
HETATM   11  C   UNL     1      42.763 -15.369   2.327  1.00  0.00     0.190 A 
HETATM   12  N   UNL     1      42.257 -15.833   1.216  1.00  0.00    -0.122 NA
HETATM   13  N   UNL     1      42.524 -17.186   1.191  1.00  0.00    -0.129 NA
HETATM   14  C   UNL     1      43.174 -17.511   2.298  1.00  0.00     0.162 A 
HETATM   15  N   UNL     1      43.369 -16.363   3.025  1.00  0.00    -0.317 N 
HETATM   16  H   UNL     1      43.824 -16.274   3.920  1.00  0.00     0.169 HD
BRANCH  14  17
HETATM   17  C   UNL     1      43.625 -18.842   2.699  1.00  0.00     0.012 A 
HETATM   18  C   UNL     1      43.499 -19.912   1.799  1.00  0.00     0.017 A 
HETATM   19  C   UNL     1      43.924 -21.197   2.148  1.00  0.00     0.025 A 
HETATM   20  C   UNL     1      44.472 -21.425   3.407  1.00  0.00     0.034 A 
HETATM   21 CL   UNL     1      44.995 -23.004   3.842  1.00  0.00    -0.084 Cl
HETATM   22  C   UNL     1      44.596 -20.380   4.319  1.00  0.00     0.025 A 
HETATM   23  C   UNL     1      44.173 -19.092   3.968  1.00  0.00     0.017 A 
ENDBRANCH  14  17
ENDBRANCH  10  11
ENDBRANCH   1  10
BRANCH   1  24
HETATM   24  C   UNL     1      40.063 -14.511   3.924  1.00  0.00     0.123 C 
BRANCH  24  25
HETATM   25  C   UNL     1      39.497 -13.767   2.732  1.00  0.00     0.219 C 
HETATM   26  N   UNL     1      39.309 -14.572   1.626  1.00  0.00    -0.361 N 
HETATM   27  H   UNL     1      39.742 -15.493   1.651  1.00  0.00     0.162 HD
HETATM   28  O   UNL     1      39.170 -12.581   2.728  1.00  0.00    -0.274 OA
BRANCH  26  29
HETATM   29  C   UNL     1      39.003 -14.034   0.317  1.00  0.00     0.124 C 
BRANCH  29  30
HETATM   30  C   UNL     1      40.155 -13.282  -0.351  1.00  0.00     0.047 C 
BRANCH  30  31
HETATM   31  C   UNL     1      40.397 -13.533  -1.840  1.00  0.00     0.236 C 
BRANCH  31  32
HETATM   32  N   UNL     1      39.377 -14.428  -2.484  1.00  0.00    -0.067 N 
HETATM   33  H   UNL     1      39.033 -15.053  -1.722  1.00  0.00     0.280 HD
HETATM   34  C   UNL     1      38.203 -13.724  -3.137  1.00  0.00     0.261 C 
HETATM   35  C   UNL     1      37.230 -14.758  -3.714  1.00  0.00     0.195 C 
HETATM   36  O   UNL     1      37.889 -15.623  -4.647  1.00  0.00    -0.388 OA
HETATM   37  C   UNL     1      38.951 -16.352  -4.020  1.00  0.00     0.195 C 
HETATM   38  C   UNL     1      40.018 -15.397  -3.476  1.00  0.00     0.261 C 
ENDBRANCH  31  32
ENDBRANCH  30  31
ENDBRANCH  29  30
ENDBRANCH  26  29
ENDBRANCH  24  25
ENDBRANCH   1  24
TORSDOF 11
ENDMDL
MODEL 5
REMARK VINA RESULT:      -8.4      3.993      8.471
REMARK  11 active torsions:
REMARK  status: ('A' for Active; 'I' for Inactive)
REMARK    1  A    between atoms: O_2  and  C_3 
REMARK    2  A    between atoms: C_6  and  C_7 
REMARK    3  A    between atoms: C_7  and  S_8 
REMARK    4  A    between atoms: C_7  and  C_22 
REMARK    5  A    between atoms: S_8  and  C_9 
REMARK    6  A    between atoms: C_12  and  C_13 
REMARK    7  A    between atoms: C_22  and  C_23 
REMARK       I    between atoms: C_23  and  N_24 
REMARK    8  A    between atoms: N_24  and  C_25 
REMARK    9  A    between atoms: C_25  and  C_26 
REMARK   10  A    between atoms: C_26  and  C_27 
REMARK   11  A    between atoms: C_27  and  N_28 
ROOT
HETATM    1  C   UNL     1      42.643 -15.678   6.273  1.00  0.00     0.097 C 
ENDROOT
BRANCH   1   2
HETATM    2  C   UNL     1      43.253 -16.979   5.751  1.00  0.00    -0.043 A 
HETATM    3  C   UNL     1      44.359 -17.540   6.411  1.00  0.00     0.011 A 
HETATM    4  C   UNL     1      44.976 -18.704   5.932  1.00  0.00     0.037 A 
HETATM    5  C   UNL     1      44.502 -19.326   4.781  1.00  0.00     0.068 A 
HETATM    6  C   UNL     1      43.407 -18.776   4.115  1.00  0.00     0.037 A 
HETATM    7  C   UNL     1      42.787 -17.617   4.590  1.00  0.00     0.011 A 
BRANCH   5   8
HETATM    8  O   UNL     1      45.012 -20.451   4.199  1.00  0.00    -0.356 OA
HETATM    9  C   UNL     1      45.044 -21.632   4.991  1.00  0.00     0.210 C 
ENDBRANCH   5   8
ENDBRANCH   1   2
BRANCH   1  10
HETATM   10  S   UNL     1      43.548 -14.230   5.564  1.00  0.00    -0.080 SA
BRANCH  10  11
HETATM   11  C   UNL     1      44.122 -13.475   6.992  1.00  0.00     0.190 A 
HETATM   12  N   UNL     1      45.194 -13.768   7.680  1.00  0.00    -0.122 NA
HETATM   13  N   UNL     1      45.180 -12.965   8.801  1.00  0.00    -0.129 NA
HETATM   14  C   UNL     1      44.089 -12.215   8.772  1.00  0.00     0.162 A 
HETATM   15  N   UNL     1      43.414 -12.496   7.610  1.00  0.00    -0.317 N 
HETATM   16  H   UNL     1      42.542 -12.099   7.296  1.00  0.00     0.169 HD
BRANCH  14  17
HETATM   17  C   UNL     1      43.658 -11.244   9.776  1.00  0.00     0.012 A 
HETATM   18  C   UNL     1      44.353 -11.157  10.992  1.00  0.00     0.017 A 
HETATM   19  C   UNL     1      43.970 -10.237  11.974  1.00  0.00     0.025 A 
HETATM   20  C   UNL     1      42.881  -9.401  11.748  1.00  0.00     0.034 A 
HETATM   21 CL   UNL     1      42.405  -8.268  12.952  1.00  0.00    -0.084 Cl
HETATM   22  C   UNL     1      42.171  -9.478  10.552  1.00  0.00     0.025 A 
HETATM   23  C   UNL     1      42.557 -10.397   9.569  1.00  0.00     0.017 A 
ENDBRANCH  14  17
ENDBRANCH  10  11
ENDBRANCH   1  10
BRANCH   1  24
HETATM   24  C   UNL     1      41.115 -15.605   6.122  1.00  0.00     0.123 C 
BRANCH  24  25
HETATM   25  C   UNL     1      40.596 -14.257   5.665  1.00  0.00     0.219 C 
HETATM   26  N   UNL     1      40.013 -14.293   4.414  1.00  0.00    -0.361 N 
HETATM   27  H   UNL     1      40.167 -15.133   3.860  1.00  0.00     0.162 HD
HETATM   28  O   UNL     1      40.619 -13.226   6.334  1.00  0.00    -0.274 OA
BRANCH  26  29
HETATM   29  C   UNL     1      39.663 -13.092   3.685  1.00  0.00     0.124 C 
BRANCH  29  30
HETATM   30  C   UNL     1      39.363 -13.309   2.201  1.00  0.00     0.047 C 
BRANCH  30  31
HETATM   31  C   UNL     1      38.719 -14.635   1.794  1.00  0.00     0.236 C 
BRANCH  31  32
HETATM   32  N   UNL     1      39.644 -15.567   1.065  1.00  0.00    -0.067 N 
HETATM   33  H   UNL     1      39.034 -16.124   0.428  1.00  0.00     0.280 HD
HETATM   34  C   UNL     1      40.748 -14.902   0.265  1.00  0.00     0.261 C 
HETATM   35  C   UNL     1      41.585 -15.968  -0.452  1.00  0.00     0.195 C 
HETATM   36  O   UNL     1      42.127 -16.912   0.478  1.00  0.00    -0.388 OA
HETATM   37  C   UNL     1      41.089 -17.602   1.185  1.00  0.00     0.195 C 
HETATM   38  C   UNL     1      40.240 -16.619   1.998  1.00  0.00     0.261 C 
ENDBRANCH  31  32
ENDBRANCH  30  31
ENDBRANCH  29  30
ENDBRANCH  26  29
ENDBRANCH  24  25
ENDBRANCH   1  24
TORSDOF 11
ENDMDL
MODEL 6
REMARK VINA RESULT:      -8.4      3.965      9.226
REMARK  11 active torsions:
REMARK  status: ('A' for Active; 'I' for Inactive)
REMARK    1  A    between atoms: O_2  and  C_3 
REMARK    2  A    between atoms: C_6  and  C_7 
REMARK    3  A    between atoms: C_7  and  S_8 
REMARK    4  A    between atoms: C_7  and  C_22 
REMARK    5  A    between atoms: S_8  and  C_9 
REMARK    6  A    between atoms: C_12  and  C_13 
REMARK    7  A    between atoms: C_22  and  C_23 
REMARK       I    between atoms: C_23  and  N_24 
REMARK    8  A    between atoms: N_24  and  C_25 
REMARK    9  A    between atoms: C_25  and  C_26 
REMARK   10  A    between atoms: C_26  and  C_27 
REMARK   11  A    between atoms: C_27  and  N_28 
ROOT
HETATM    1  C   UNL     1      43.938 -14.278   6.861  1.00  0.00     0.097 C 
ENDROOT
BRANCH   1   2
HETATM    2  C   UNL     1      43.925 -15.805   6.808  1.00  0.00    -0.043 A 
HETATM    3  C   UNL     1      42.732 -16.499   7.072  1.00  0.00     0.011 A 
HETATM    4  C   UNL     1      42.693 -17.899   7.083  1.00  0.00     0.037 A 
HETATM    5  C   UNL     1      43.849 -18.634   6.834  1.00  0.00     0.068 A 
HETATM    6  C   UNL     1      45.040 -17.957   6.574  1.00  0.00     0.037 A 
HETATM    7  C   UNL     1      45.082 -16.560   6.560  1.00  0.00     0.011 A 
BRANCH   5   8
HETATM    8  O   UNL     1      43.957 -19.996   6.826  1.00  0.00    -0.356 OA
HETATM    9  C   UNL     1      43.604 -20.681   8.021  1.00  0.00     0.210 C 
ENDBRANCH   5   8
ENDBRANCH   1   2
BRANCH   1  10
HETATM   10  S   UNL     1      45.680 -13.665   6.934  1.00  0.00    -0.080 SA
BRANCH  10  11
HETATM   11  C   UNL     1      45.542 -12.434   8.121  1.00  0.00     0.190 A 
HETATM   12  N   UNL     1      46.329 -11.410   8.310  1.00  0.00    -0.122 NA
HETATM   13  N   UNL     1      45.879 -10.765   9.443  1.00  0.00    -0.129 NA
HETATM   14  C   UNL     1      44.836 -11.426   9.921  1.00  0.00     0.162 A 
HETATM   15  N   UNL     1      44.578 -12.477   9.076  1.00  0.00    -0.317 N 
HETATM   16  H   UNL     1      43.855 -13.173   9.165  1.00  0.00     0.169 HD
BRANCH  14  17
HETATM   17  C   UNL     1      44.068 -11.113  11.125  1.00  0.00     0.012 A 
HETATM   18  C   UNL     1      43.945  -9.776  11.535  1.00  0.00     0.017 A 
HETATM   19  C   UNL     1      43.214  -9.441  12.679  1.00  0.00     0.025 A 
HETATM   20  C   UNL     1      42.607 -10.443  13.428  1.00  0.00     0.034 A 
HETATM   21 CL   UNL     1      41.709 -10.037  14.837  1.00  0.00    -0.084 Cl
HETATM   22  C   UNL     1      42.726 -11.777  13.045  1.00  0.00     0.025 A 
HETATM   23  C   UNL     1      43.455 -12.112  11.898  1.00  0.00     0.017 A 
ENDBRANCH  14  17
ENDBRANCH  10  11
ENDBRANCH   1  10
BRANCH   1  24
HETATM   24  C   UNL     1      43.079 -13.612   5.773  1.00  0.00     0.123 C 
BRANCH  24  25
HETATM   25  C   UNL     1      43.413 -14.045   4.361  1.00  0.00     0.219 C 
HETATM   26  N   UNL     1      42.538 -14.987   3.858  1.00  0.00    -0.361 N 
HETATM   27  H   UNL     1      41.909 -15.431   4.525  1.00  0.00     0.162 HD
HETATM   28  O   UNL     1      44.326 -13.586   3.677  1.00  0.00    -0.274 OA
BRANCH  26  29
HETATM   29  C   UNL     1      42.796 -15.710   2.630  1.00  0.00     0.124 C 
BRANCH  29  30
HETATM   30  C   UNL     1      43.512 -17.048   2.814  1.00  0.00     0.047 C 
BRANCH  30  31
HETATM   31  C   UNL     1      43.112 -18.200   1.891  1.00  0.00     0.236 C 
BRANCH  31  32
HETATM   32  N   UNL     1      43.890 -19.465   2.119  1.00  0.00    -0.067 N 
HETATM   33  H   UNL     1      44.721 -19.399   1.492  1.00  0.00     0.280 HD
HETATM   34  C   UNL     1      44.343 -19.710   3.545  1.00  0.00     0.261 C 
HETATM   35  C   UNL     1      45.154 -21.009   3.620  1.00  0.00     0.195 C 
HETATM   36  O   UNL     1      44.395 -22.120   3.129  1.00  0.00    -0.388 OA
HETATM   37  C   UNL     1      44.027 -21.934   1.756  1.00  0.00     0.195 C 
HETATM   38  C   UNL     1      43.145 -20.691   1.593  1.00  0.00     0.261 C 
ENDBRANCH  31  32
ENDBRANCH  30  31
ENDBRANCH  29  30
ENDBRANCH  26  29
ENDBRANCH  24  25
ENDBRANCH   1  24
TORSDOF 11
ENDMDL
MODEL 7
REMARK VINA RESULT:      -8.3      3.901      7.902
REMARK  11 active torsions:
REMARK  status: ('A' for Active; 'I' for Inactive)
REMARK    1  A    between atoms: O_2  and  C_3 
REMARK    2  A    between atoms: C_6  and  C_7 
REMARK    3  A    between atoms: C_7  and  S_8 
REMARK    4  A    between atoms: C_7  and  C_22 
REMARK    5  A    between atoms: S_8  and  C_9 
REMARK    6  A    between atoms: C_12  and  C_13 
REMARK    7  A    between atoms: C_22  and  C_23 
REMARK       I    between atoms: C_23  and  N_24 
REMARK    8  A    between atoms: N_24  and  C_25 
REMARK    9  A    between atoms: C_25  and  C_26 
REMARK   10  A    between atoms: C_26  and  C_27 
REMARK   11  A    between atoms: C_27  and  N_28 
ROOT
HETATM    1  C   UNL     1      43.006 -16.132   6.109  1.00  0.00     0.097 C 
ENDROOT
BRANCH   1   2
HETATM    2  C   UNL     1      43.556 -17.322   5.323  1.00  0.00    -0.043 A 
HETATM    3  C   UNL     1      43.263 -17.444   3.954  1.00  0.00     0.011 A 
HETATM    4  C   UNL     1      43.706 -18.547   3.212  1.00  0.00     0.037 A 
HETATM    5  C   UNL     1      44.447 -19.553   3.827  1.00  0.00     0.068 A 
HETATM    6  C   UNL     1      44.740 -19.445   5.185  1.00  0.00     0.037 A 
HETATM    7  C   UNL     1      44.302 -18.345   5.928  1.00  0.00     0.011 A 
BRANCH   5   8
HETATM    8  O   UNL     1      44.929 -20.683   3.230  1.00  0.00    -0.356 OA
HETATM    9  C   UNL     1      44.117 -21.283   2.228  1.00  0.00     0.210 C 
ENDBRANCH   5   8
ENDBRANCH   1   2
BRANCH   1  10
HETATM   10  S   UNL     1      43.516 -14.552   5.297  1.00  0.00    -0.080 SA
BRANCH  10  11
HETATM   11  C   UNL     1      44.216 -13.717   6.621  1.00  0.00     0.190 A 
HETATM   12  N   UNL     1      45.416 -13.863   7.118  1.00  0.00    -0.122 NA
HETATM   13  N   UNL     1      45.484 -13.060   8.237  1.00  0.00    -0.129 NA
HETATM   14  C   UNL     1      44.315 -12.458   8.398  1.00  0.00     0.162 A 
HETATM   15  N   UNL     1      43.499 -12.834   7.361  1.00  0.00    -0.317 N 
HETATM   16  H   UNL     1      42.544 -12.556   7.200  1.00  0.00     0.169 HD
BRANCH  14  17
HETATM   17  C   UNL     1      43.934 -11.543   9.474  1.00  0.00     0.012 A 
HETATM   18  C   UNL     1      42.821 -10.707   9.305  1.00  0.00     0.017 A 
HETATM   19  C   UNL     1      42.427  -9.823  10.314  1.00  0.00     0.025 A 
HETATM   20  C   UNL     1      43.151  -9.764  11.501  1.00  0.00     0.034 A 
HETATM   21 CL   UNL     1      42.672  -8.678  12.746  1.00  0.00    -0.084 Cl
HETATM   22  C   UNL     1      44.267 -10.577  11.685  1.00  0.00     0.025 A 
HETATM   23  C   UNL     1      44.658 -11.464  10.675  1.00  0.00     0.017 A 
ENDBRANCH  14  17
ENDBRANCH  10  11
ENDBRANCH   1  10
BRANCH   1  24
HETATM   24  C   UNL     1      41.502 -16.231   6.413  1.00  0.00     0.123 C 
BRANCH  24  25
HETATM   25  C   UNL     1      40.649 -15.214   5.683  1.00  0.00     0.219 C 
HETATM   26  N   UNL     1      40.281 -14.144   6.473  1.00  0.00    -0.361 N 
HETATM   27  H   UNL     1      40.435 -14.239   7.475  1.00  0.00     0.162 HD
HETATM   28  O   UNL     1      40.345 -15.271   4.493  1.00  0.00    -0.274 OA
BRANCH  26  29
HETATM   29  C   UNL     1      39.283 -13.179   6.058  1.00  0.00     0.124 C 
BRANCH  29  30
HETATM   30  C   UNL     1      39.846 -11.923   5.393  1.00  0.00     0.047 C 
BRANCH  30  31
HETATM   31  C   UNL     1      39.539 -11.706   3.911  1.00  0.00     0.236 C 
BRANCH  31  32
HETATM   32  N   UNL     1      40.120 -12.755   3.006  1.00  0.00    -0.067 N 
HETATM   33  H   UNL     1      40.197 -13.616   3.589  1.00  0.00     0.280 HD
HETATM   34  C   UNL     1      39.322 -13.056   1.752  1.00  0.00     0.261 C 
HETATM   35  C   UNL     1      40.010 -14.166   0.949  1.00  0.00     0.195 C 
HETATM   36  O   UNL     1      41.358 -13.807   0.622  1.00  0.00    -0.388 OA
HETATM   37  C   UNL     1      42.142 -13.596   1.802  1.00  0.00     0.195 C 
HETATM   38  C   UNL     1      41.570 -12.445   2.637  1.00  0.00     0.261 C 
ENDBRANCH  31  32
ENDBRANCH  30  31
ENDBRANCH  29  30
ENDBRANCH  26  29
ENDBRANCH  24  25
ENDBRANCH   1  24
TORSDOF 11
ENDMDL
MODEL 8
REMARK VINA RESULT:      -8.2      4.675      7.183
REMARK  11 active torsions:
REMARK  status: ('A' for Active; 'I' for Inactive)
REMARK    1  A    between atoms: O_2  and  C_3 
REMARK    2  A    between atoms: C_6  and  C_7 
REMARK    3  A    between atoms: C_7  and  S_8 
REMARK    4  A    between atoms: C_7  and  C_22 
REMARK    5  A    between atoms: S_8  and  C_9 
REMARK    6  A    between atoms: C_12  and  C_13 
REMARK    7  A    between atoms: C_22  and  C_23 
REMARK       I    between atoms: C_23  and  N_24 
REMARK    8  A    between atoms: N_24  and  C_25 
REMARK    9  A    between atoms: C_25  and  C_26 
REMARK   10  A    between atoms: C_26  and  C_27 
REMARK   11  A    between atoms: C_27  and  N_28 
ROOT
HETATM    1  C   UNL     1      40.148 -13.956  -0.791  1.00  0.00     0.097 C 
ENDROOT
BRANCH   1   2
HETATM    2  C   UNL     1      39.178 -14.120  -1.961  1.00  0.00    -0.043 A 
HETATM    3  C   UNL     1      38.074 -13.257  -2.072  1.00  0.00     0.011 A 
HETATM    4  C   UNL     1      37.136 -13.409  -3.102  1.00  0.00     0.037 A 
HETATM    5  C   UNL     1      37.281 -14.430  -4.038  1.00  0.00     0.068 A 
HETATM    6  C   UNL     1      38.370 -15.294  -3.935  1.00  0.00     0.037 A 
HETATM    7  C   UNL     1      39.309 -15.145  -2.911  1.00  0.00     0.011 A 
BRANCH   5   8
HETATM    8  O   UNL     1      36.440 -14.699  -5.080  1.00  0.00    -0.356 OA
HETATM    9  C   UNL     1      35.352 -13.804  -5.282  1.00  0.00     0.210 C 
ENDBRANCH   5   8
ENDBRANCH   1   2
BRANCH   1  10
HETATM   10  S   UNL     1      41.631 -15.029  -1.048  1.00  0.00    -0.080 SA
BRANCH  10  11
HETATM   11  C   UNL     1      41.536 -16.050   0.327  1.00  0.00     0.190 A 
HETATM   12  N   UNL     1      40.647 -16.026   1.284  1.00  0.00    -0.122 NA
HETATM   13  N   UNL     1      41.044 -16.958   2.219  1.00  0.00    -0.129 NA
HETATM   14  C   UNL     1      42.175 -17.514   1.811  1.00  0.00     0.162 A 
HETATM   15  N   UNL     1      42.492 -16.976   0.589  1.00  0.00    -0.317 N 
HETATM   16  H   UNL     1      43.297 -17.183   0.018  1.00  0.00     0.169 HD
BRANCH  14  17
HETATM   17  C   UNL     1      42.962 -18.528   2.509  1.00  0.00     0.012 A 
HETATM   18  C   UNL     1      43.341 -18.309   3.842  1.00  0.00     0.017 A 
HETATM   19  C   UNL     1      44.091 -19.260   4.541  1.00  0.00     0.025 A 
HETATM   20  C   UNL     1      44.475 -20.438   3.908  1.00  0.00     0.034 A 
HETATM   21 CL   UNL     1      45.399 -21.610   4.762  1.00  0.00    -0.084 Cl
HETATM   22  C   UNL     1      44.119 -20.670   2.581  1.00  0.00     0.025 A 
HETATM   23  C   UNL     1      43.366 -19.719   1.883  1.00  0.00     0.017 A 
ENDBRANCH  14  17
ENDBRANCH  10  11
ENDBRANCH   1  10
BRANCH   1  24
HETATM   24  C   UNL     1      40.477 -12.491  -0.458  1.00  0.00     0.123 C 
BRANCH  24  25
HETATM   25  C   UNL     1      41.491 -12.316   0.653  1.00  0.00     0.219 C 
HETATM   26  N   UNL     1      41.057 -12.804   1.869  1.00  0.00    -0.361 N 
HETATM   27  H   UNL     1      40.069 -13.033   1.945  1.00  0.00     0.162 HD
HETATM   28  O   UNL     1      42.619 -11.847   0.514  1.00  0.00    -0.274 OA
BRANCH  26  29
HETATM   29  C   UNL     1      41.758 -12.537   3.108  1.00  0.00     0.124 C 
BRANCH  29  30
HETATM   30  C   UNL     1      42.479 -13.744   3.708  1.00  0.00     0.047 C 
BRANCH  30  31
HETATM   31  C   UNL     1      42.999 -13.621   5.141  1.00  0.00     0.236 C 
BRANCH  31  32
HETATM   32  N   UNL     1      42.536 -14.718   6.057  1.00  0.00    -0.067 N 
HETATM   33  H   UNL     1      42.225 -14.240   6.931  1.00  0.00     0.280 HD
HETATM   34  C   UNL     1      41.414 -15.589   5.524  1.00  0.00     0.261 C 
HETATM   35  C   UNL     1      41.021 -16.634   6.574  1.00  0.00     0.195 C 
HETATM   36  O   UNL     1      42.148 -17.431   6.957  1.00  0.00    -0.388 OA
HETATM   37  C   UNL     1      43.184 -16.626   7.534  1.00  0.00     0.195 C 
HETATM   38  C   UNL     1      43.697 -15.594   6.524  1.00  0.00     0.261 C 
ENDBRANCH  31  32
ENDBRANCH  30  31
ENDBRANCH  29  30
ENDBRANCH  26  29
ENDBRANCH  24  25
ENDBRANCH   1  24
TORSDOF 11
ENDMDL
MODEL 9
REMARK VINA RESULT:      -8.1      2.093      3.821
REMARK  11 active torsions:
REMARK  status: ('A' for Active; 'I' for Inactive)
REMARK    1  A    between atoms: O_2  and  C_3 
REMARK    2  A    between atoms: C_6  and  C_7 
REMARK    3  A    between atoms: C_7  and  S_8 
REMARK    4  A    between atoms: C_7  and  C_22 
REMARK    5  A    between atoms: S_8  and  C_9 
REMARK    6  A    between atoms: C_12  and  C_13 
REMARK    7  A    between atoms: C_22  and  C_23 
REMARK       I    between atoms: C_23  and  N_24 
REMARK    8  A    between atoms: N_24  and  C_25 
REMARK    9  A    between atoms: C_25  and  C_26 
REMARK   10  A    between atoms: C_26  and  C_27 
REMARK   11  A    between atoms: C_27  and  N_28 
ROOT
HETATM    1  C   UNL     1      40.790 -14.163   5.217  1.00  0.00     0.097 C 
ENDROOT
BRANCH   1   2
HETATM    2  C   UNL     1      40.793 -14.045   3.693  1.00  0.00    -0.043 A 
HETATM    3  C   UNL     1      39.875 -14.795   2.938  1.00  0.00     0.011 A 
HETATM    4  C   UNL     1      39.881 -14.753   1.537  1.00  0.00     0.037 A 
HETATM    5  C   UNL     1      40.809 -13.962   0.864  1.00  0.00     0.068 A 
HETATM    6  C   UNL     1      41.727 -13.216   1.603  1.00  0.00     0.037 A 
HETATM    7  C   UNL     1      41.722 -13.254   3.000  1.00  0.00     0.011 A 
BRANCH   5   8
HETATM    8  O   UNL     1      40.935 -13.837  -0.490  1.00  0.00    -0.356 OA
HETATM    9  C   UNL     1      41.896 -12.903  -0.968  1.00  0.00     0.210 C 
ENDBRANCH   5   8
ENDBRANCH   1   2
BRANCH   1  10
HETATM   10  S   UNL     1      42.465 -13.754   5.883  1.00  0.00    -0.080 SA
BRANCH  10  11
HETATM   11  C   UNL     1      43.181 -15.312   5.938  1.00  0.00     0.190 A 
HETATM   12  N   UNL     1      43.976 -15.798   6.854  1.00  0.00    -0.122 NA
HETATM   13  N   UNL     1      44.379 -17.040   6.413  1.00  0.00    -0.129 NA
HETATM   14  C   UNL     1      43.828 -17.270   5.230  1.00  0.00     0.162 A 
HETATM   15  N   UNL     1      43.032 -16.197   4.920  1.00  0.00    -0.317 N 
HETATM   16  H   UNL     1      42.483 -16.061   4.085  1.00  0.00     0.169 HD
BRANCH  14  17
HETATM   17  C   UNL     1      44.009 -18.450   4.387  1.00  0.00     0.012 A 
HETATM   18  C   UNL     1      44.709 -19.557   4.891  1.00  0.00     0.017 A 
HETATM   19  C   UNL     1      44.897 -20.703   4.113  1.00  0.00     0.025 A 
HETATM   20  C   UNL     1      44.392 -20.748   2.817  1.00  0.00     0.034 A 
HETATM   21 CL   UNL     1      44.621 -22.154   1.854  1.00  0.00    -0.084 Cl
HETATM   22  C   UNL     1      43.704 -19.656   2.293  1.00  0.00     0.025 A 
HETATM   23  C   UNL     1      43.514 -18.510   3.074  1.00  0.00     0.017 A 
ENDBRANCH  14  17
ENDBRANCH  10  11
ENDBRANCH   1  10
BRANCH   1  24
HETATM   24  C   UNL     1      39.637 -13.404   5.896  1.00  0.00     0.123 C 
BRANCH  24  25
HETATM   25  C   UNL     1      39.949 -11.959   6.225  1.00  0.00     0.219 C 
HETATM   26  N   UNL     1      39.896 -11.684   7.577  1.00  0.00    -0.361 N 
HETATM   27  H   UNL     1      39.470 -12.392   8.172  1.00  0.00     0.162 HD
HETATM   28  O   UNL     1      40.278 -11.102   5.407  1.00  0.00    -0.274 OA
BRANCH  26  29
HETATM   29  C   UNL     1      39.927 -10.333   8.097  1.00  0.00     0.124 C 
BRANCH  29  30
HETATM   30  C   UNL     1      41.224  -9.954   8.813  1.00  0.00     0.047 C 
BRANCH  30  31
HETATM   31  C   UNL     1      41.516 -10.626  10.155  1.00  0.00     0.236 C 
BRANCH  31  32
HETATM   32  N   UNL     1      42.672 -11.585  10.121  1.00  0.00    -0.067 N 
HETATM   33  H   UNL     1      42.245 -12.535  10.063  1.00  0.00     0.280 HD
HETATM   34  C   UNL     1      43.651 -11.392   8.979  1.00  0.00     0.261 C 
HETATM   35  C   UNL     1      44.750 -12.459   9.049  1.00  0.00     0.195 C 
HETATM   36  O   UNL     1      45.426 -12.423  10.311  1.00  0.00    -0.388 OA
HETATM   37  C   UNL     1      44.522 -12.681  11.393  1.00  0.00     0.195 C 
HETATM   38  C   UNL     1      43.424 -11.614  11.450  1.00  0.00     0.261 C 
ENDBRANCH  31  32
ENDBRANCH  30  31
ENDBRANCH  29  30
ENDBRANCH  26  29
ENDBRANCH  24  25
ENDBRANCH   1  24
TORSDOF 11
ENDMDL
MODEL 10
REMARK VINA RESULT:      -8.1      4.128      5.941
REMARK  11 active torsions:
REMARK  status: ('A' for Active; 'I' for Inactive)
REMARK    1  A    between atoms: O_2  and  C_3 
REMARK    2  A    between atoms: C_6  and  C_7 
REMARK    3  A    between atoms: C_7  and  S_8 
REMARK    4  A    between atoms: C_7  and  C_22 
REMARK    5  A    between atoms: S_8  and  C_9 
REMARK    6  A    between atoms: C_12  and  C_13 
REMARK    7  A    between atoms: C_22  and  C_23 
REMARK       I    between atoms: C_23  and  N_24 
REMARK    8  A    between atoms: N_24  and  C_25 
REMARK    9  A    between atoms: C_25  and  C_26 
REMARK   10  A    between atoms: C_26  and  C_27 
REMARK   11  A    between atoms: C_27  and  N_28 
ROOT
HETATM    1  C   UNL     1      43.058 -15.976   4.208  1.00  0.00     0.097 C 
ENDROOT
BRANCH   1   2
HETATM    2  C   UNL     1      43.539 -17.422   4.086  1.00  0.00    -0.043 A 
HETATM    3  C   UNL     1      43.604 -18.027   2.819  1.00  0.00     0.011 A 
HETATM    4  C   UNL     1      43.992 -19.365   2.673  1.00  0.00     0.037 A 
HETATM    5  C   UNL     1      44.318 -20.127   3.792  1.00  0.00     0.068 A 
HETATM    6  C   UNL     1      44.254 -19.538   5.054  1.00  0.00     0.037 A 
HETATM    7  C   UNL     1      43.870 -18.203   5.204  1.00  0.00     0.011 A 
BRANCH   5   8
HETATM    8  O   UNL     1      44.698 -21.438   3.796  1.00  0.00    -0.356 OA
HETATM    9  C   UNL     1      45.007 -22.020   5.057  1.00  0.00     0.210 C 
ENDBRANCH   5   8
ENDBRANCH   1   2
BRANCH   1  10
HETATM   10  S   UNL     1      41.509 -15.744   3.227  1.00  0.00    -0.080 SA
BRANCH  10  11
HETATM   11  C   UNL     1      41.882 -14.309   2.365  1.00  0.00     0.190 A 
HETATM   12  N   UNL     1      42.058 -13.107   2.846  1.00  0.00    -0.122 NA
HETATM   13  N   UNL     1      42.228 -12.267   1.766  1.00  0.00    -0.129 NA
HETATM   14  C   UNL     1      42.135 -12.981   0.654  1.00  0.00     0.162 A 
HETATM   15  N   UNL     1      41.949 -14.294   1.009  1.00  0.00    -0.317 N 
HETATM   16  H   UNL     1      41.833 -15.085   0.396  1.00  0.00     0.169 HD
BRANCH  14  17
HETATM   17  C   UNL     1      42.222 -12.490  -0.720  1.00  0.00     0.012 A 
HETATM   18  C   UNL     1      41.905 -13.352  -1.781  1.00  0.00     0.017 A 
HETATM   19  C   UNL     1      41.973 -12.914  -3.107  1.00  0.00     0.025 A 
HETATM   20  C   UNL     1      42.368 -11.609  -3.383  1.00  0.00     0.034 A 
HETATM   21 CL   UNL     1      42.455 -11.065  -5.012  1.00  0.00    -0.084 Cl
HETATM   22  C   UNL     1      42.698 -10.740  -2.345  1.00  0.00     0.025 A 
HETATM   23  C   UNL     1      42.626 -11.178  -1.018  1.00  0.00     0.017 A 
ENDBRANCH  14  17
ENDBRANCH  10  11
ENDBRANCH   1  10
BRANCH   1  24
HETATM   24  C   UNL     1      42.970 -15.472   5.658  1.00  0.00     0.123 C 
BRANCH  24  25
HETATM   25  C   UNL     1      43.975 -14.392   6.005  1.00  0.00     0.219 C 
HETATM   26  N   UNL     1      44.304 -14.366   7.346  1.00  0.00    -0.361 N 
HETATM   27  H   UNL     1      43.714 -14.909   7.974  1.00  0.00     0.162 HD
HETATM   28  O   UNL     1      44.510 -13.637   5.197  1.00  0.00    -0.274 OA
BRANCH  26  29
HETATM   29  C   UNL     1      45.057 -13.281   7.940  1.00  0.00     0.124 C 
BRANCH  29  30
HETATM   30  C   UNL     1      44.208 -12.230   8.654  1.00  0.00     0.047 C 
BRANCH  30  31
HETATM   31  C   UNL     1      44.263 -12.192  10.183  1.00  0.00     0.236 C 
BRANCH  31  32
HETATM   32  N   UNL     1      42.951 -11.857  10.834  1.00  0.00    -0.067 N 
HETATM   33  H   UNL     1      42.351 -12.701  10.703  1.00  0.00     0.280 HD
HETATM   34  C   UNL     1      43.021 -11.502  12.307  1.00  0.00     0.261 C 
HETATM   35  C   UNL     1      41.612 -11.225  12.844  1.00  0.00     0.195 C 
HETATM   36  O   UNL     1      40.971 -10.183  12.098  1.00  0.00    -0.388 OA
HETATM   37  C   UNL     1      40.830 -10.542  10.718  1.00  0.00     0.195 C 
HETATM   38  C   UNL     1      42.201 -10.766  10.072  1.00  0.00     0.261 C 
ENDBRANCH  31  32
ENDBRANCH  30  31
ENDBRANCH  29  30
ENDBRANCH  26  29
ENDBRANCH  24  25
ENDBRANCH   1  24
TORSDOF 11
ENDMDL
