MODEL 1
REMARK VINA RESULT:      -7.8      0.000      0.000
REMARK  2 active torsions:
REMARK  status: ('A' for Active; 'I' for Inactive)
REMARK    1  A    between atoms: C_8  and  S_9 
REMARK    2  A    between atoms: S_9  and  C_10 
ROOT
HETATM    1  C   UNL     1      44.705 -22.647   3.344  1.00  0.00     0.002 A 
HETATM    2  C   UNL     1      44.440 -21.456   2.666  1.00  0.00     0.034 A 
HETATM    3  C   UNL     1      44.307 -20.251   3.346  1.00  0.00     0.087 A 
HETATM    4  C   UNL     1      44.433 -20.244   4.761  1.00  0.00     0.087 A 
HETATM    5  N   UNL     1      44.294 -19.111   5.470  1.00  0.00    -0.232 NA
HETATM    6  C   UNL     1      44.023 -17.984   4.776  1.00  0.00     0.164 A 
HETATM    7 CL   UNL     1      43.795 -16.608   5.774  1.00  0.00    -0.059 Cl
HETATM    8  C   UNL     1      43.916 -17.984   3.394  1.00  0.00     0.165 A 
HETATM    9  N   UNL     1      44.061 -19.115   2.653  1.00  0.00    -0.234 NA
HETATM   10  C   UNL     1      44.703 -21.434   5.422  1.00  0.00     0.034 A 
HETATM   11  C   UNL     1      44.841 -22.635   4.726  1.00  0.00     0.002 A 
ENDROOT
BRANCH   8  12
HETATM   12  S   UNL     1      43.539 -16.532   2.412  1.00  0.00     0.078 S 
HETATM   13  O   UNL     1      43.546 -16.988   0.982  1.00  0.00    -0.251 OA
BRANCH  12  14
HETATM   14  C   UNL     1      41.779 -16.245   2.832  1.00  0.00     0.112 C 
HETATM   15  C   UNL     1      40.875 -16.944   1.812  1.00  0.00     0.250 C 
HETATM   16  N   UNL     1      39.434 -16.596   2.069  1.00  0.00    -0.074 N 
HETATM   17  H   UNL     1      39.134 -16.986   2.975  1.00  0.00     0.277 HD
HETATM   18  H   UNL     1      38.853 -17.068   1.361  1.00  0.00     0.277 HD
HETATM   19  C   UNL     1      39.154 -15.130   2.021  1.00  0.00     0.232 C 
HETATM   20  C   UNL     1      40.027 -14.425   3.047  1.00  0.00     0.029 C 
HETATM   21  C   UNL     1      41.510 -14.731   2.833  1.00  0.00     0.021 C 
ENDBRANCH  12  14
ENDBRANCH   8  12
TORSDOF 2
ENDMDL
MODEL 2
REMARK VINA RESULT:      -7.5      1.499      1.753
REMARK  2 active torsions:
REMARK  status: ('A' for Active; 'I' for Inactive)
REMARK    1  A    between atoms: C_8  and  S_9 
REMARK    2  A    between atoms: S_9  and  C_10 
ROOT
HETATM    1  C   UNL     1      43.728 -21.442   1.821  1.00  0.00     0.002 A 
HETATM    2  C   UNL     1      43.253 -20.130   1.854  1.00  0.00     0.034 A 
HETATM    3  C   UNL     1      43.531 -19.287   2.924  1.00  0.00     0.087 A 
HETATM    4  C   UNL     1      44.304 -19.785   4.006  1.00  0.00     0.087 A 
HETATM    5  N   UNL     1      44.586 -19.020   5.075  1.00  0.00    -0.232 NA
HETATM    6  C   UNL     1      44.094 -17.762   5.074  1.00  0.00     0.164 A 
HETATM    7 CL   UNL     1      44.448 -16.891   6.507  1.00  0.00    -0.059 Cl
HETATM    8  C   UNL     1      43.353 -17.267   4.012  1.00  0.00     0.165 A 
HETATM    9  N   UNL     1      43.062 -18.018   2.915  1.00  0.00    -0.234 NA
HETATM   10  C   UNL     1      44.776 -21.090   3.958  1.00  0.00     0.034 A 
HETATM   11  C   UNL     1      44.495 -21.921   2.875  1.00  0.00     0.002 A 
ENDROOT
BRANCH   8  12
HETATM   12  S   UNL     1      42.653 -15.617   3.952  1.00  0.00     0.078 S 
HETATM   13  O   UNL     1      43.744 -14.724   3.437  1.00  0.00    -0.251 OA
BRANCH  12  14
HETATM   14  C   UNL     1      41.451 -15.772   2.578  1.00  0.00     0.112 C 
HETATM   15  C   UNL     1      41.979 -15.051   1.334  1.00  0.00     0.250 C 
HETATM   16  N   UNL     1      40.937 -15.053   0.250  1.00  0.00    -0.074 N 
HETATM   17  H   UNL     1      40.770 -16.017  -0.075  1.00  0.00     0.277 HD
HETATM   18  H   UNL     1      41.314 -14.549  -0.566  1.00  0.00     0.277 HD
HETATM   19  C   UNL     1      39.649 -14.415   0.654  1.00  0.00     0.232 C 
HETATM   20  C   UNL     1      39.099 -15.138   1.874  1.00  0.00     0.029 C 
HETATM   21  C   UNL     1      40.112 -15.161   3.020  1.00  0.00     0.021 C 
ENDBRANCH  12  14
ENDBRANCH   8  12
TORSDOF 2
ENDMDL
MODEL 3
REMARK VINA RESULT:      -7.2      2.571      3.029
REMARK  2 active torsions:
REMARK  status: ('A' for Active; 'I' for Inactive)
REMARK    1  A    between atoms: C_8  and  S_9 
REMARK    2  A    between atoms: S_9  and  C_10 
ROOT
HETATM    1  C   UNL     1      43.827 -20.342   1.767  1.00  0.00     0.002 A 
HETATM    2  C   UNL     1      43.512 -19.120   2.363  1.00  0.00     0.034 A 
HETATM    3  C   UNL     1      43.753 -18.891   3.713  1.00  0.00     0.087 A 
HETATM    4  C   UNL     1      44.320 -19.933   4.495  1.00  0.00     0.087 A 
HETATM    5  N   UNL     1      44.555 -19.774   5.809  1.00  0.00    -0.232 NA
HETATM    6  C   UNL     1      44.221 -18.582   6.350  1.00  0.00     0.164 A 
HETATM    7 CL   UNL     1      44.495 -18.500   8.040  1.00  0.00    -0.059 Cl
HETATM    8  C   UNL     1      43.684 -17.557   5.587  1.00  0.00     0.165 A 
HETATM    9  N   UNL     1      43.444 -17.691   4.254  1.00  0.00    -0.234 NA
HETATM   10  C   UNL     1      44.634 -21.141   3.888  1.00  0.00     0.034 A 
HETATM   11  C   UNL     1      44.394 -21.354   2.530  1.00  0.00     0.002 A 
ENDROOT
BRANCH   8  12
HETATM   12  S   UNL     1      43.199 -15.959   6.241  1.00  0.00     0.078 S 
HETATM   13  O   UNL     1      44.472 -15.277   6.648  1.00  0.00    -0.251 OA
BRANCH  12  14
HETATM   14  C   UNL     1      42.634 -15.093   4.730  1.00  0.00     0.112 C 
HETATM   15  C   UNL     1      43.368 -13.757   4.584  1.00  0.00     0.250 C 
HETATM   16  N   UNL     1      42.808 -12.978   3.425  1.00  0.00    -0.074 N 
HETATM   17  H   UNL     1      43.010 -13.469   2.542  1.00  0.00     0.277 HD
HETATM   18  H   UNL     1      43.310 -12.081   3.362  1.00  0.00     0.277 HD
HETATM   19  C   UNL     1      41.345 -12.703   3.539  1.00  0.00     0.232 C 
HETATM   20  C   UNL     1      40.600 -14.023   3.659  1.00  0.00     0.029 C 
HETATM   21  C   UNL     1      41.118 -14.860   4.830  1.00  0.00     0.021 C 
ENDBRANCH  12  14
ENDBRANCH   8  12
TORSDOF 2
ENDMDL
MODEL 4
REMARK VINA RESULT:      -7.1      2.988      4.156
REMARK  2 active torsions:
REMARK  status: ('A' for Active; 'I' for Inactive)
REMARK    1  A    between atoms: C_8  and  S_9 
REMARK    2  A    between atoms: S_9  and  C_10 
ROOT
HETATM    1  C   UNL     1      44.849 -21.314   3.853  1.00  0.00     0.002 A 
HETATM    2  C   UNL     1      44.467 -20.054   4.319  1.00  0.00     0.034 A 
HETATM    3  C   UNL     1      43.655 -19.219   3.560  1.00  0.00     0.087 A 
HETATM    4  C   UNL     1      43.220 -19.661   2.282  1.00  0.00     0.087 A 
HETATM    5  N   UNL     1      42.450 -18.887   1.498  1.00  0.00    -0.232 NA
HETATM    6  C   UNL     1      42.116 -17.669   1.980  1.00  0.00     0.164 A 
HETATM    7 CL   UNL     1      41.193 -16.732   0.881  1.00  0.00    -0.059 Cl
HETATM    8  C   UNL     1      42.524 -17.242   3.234  1.00  0.00     0.165 A 
HETATM    9  N   UNL     1      43.296 -18.010   4.049  1.00  0.00    -0.234 NA
HETATM   10  C   UNL     1      43.602 -20.918   1.834  1.00  0.00     0.034 A 
HETATM   11  C   UNL     1      44.411 -21.748   2.609  1.00  0.00     0.002 A 
ENDROOT
BRANCH   8  12
HETATM   12  S   UNL     1      42.136 -15.634   3.927  1.00  0.00     0.078 S 
HETATM   13  O   UNL     1      40.829 -15.799   4.646  1.00  0.00    -0.251 OA
BRANCH  12  14
HETATM   14  C   UNL     1      43.406 -15.477   5.237  1.00  0.00     0.112 C 
HETATM   15  C   UNL     1      42.773 -15.711   6.613  1.00  0.00     0.250 C 
HETATM   16  N   UNL     1      43.777 -15.444   7.700  1.00  0.00    -0.074 N 
HETATM   17  H   UNL     1      44.536 -16.140   7.656  1.00  0.00     0.277 HD
HETATM   18  H   UNL     1      43.320 -15.595   8.611  1.00  0.00     0.277 HD
HETATM   19  C   UNL     1      44.343 -14.063   7.669  1.00  0.00     0.232 C 
HETATM   20  C   UNL     1      44.997 -13.825   6.317  1.00  0.00     0.029 C 
HETATM   21  C   UNL     1      44.021 -14.070   5.166  1.00  0.00     0.021 C 
ENDBRANCH  12  14
ENDBRANCH   8  12
TORSDOF 2
ENDMDL
MODEL 5
REMARK VINA RESULT:      -6.7      2.279      2.909
REMARK  2 active torsions:
REMARK  status: ('A' for Active; 'I' for Inactive)
REMARK    1  A    between atoms: C_8  and  S_9 
REMARK    2  A    between atoms: S_9  and  C_10 
ROOT
HETATM    1  C   UNL     1      43.930 -19.781   2.557  1.00  0.00     0.002 A 
HETATM    2  C   UNL     1      43.364 -18.565   2.173  1.00  0.00     0.034 A 
HETATM    3  C   UNL     1      43.269 -17.499   3.061  1.00  0.00     0.087 A 
HETATM    4  C   UNL     1      43.750 -17.667   4.387  1.00  0.00     0.087 A 
HETATM    5  N   UNL     1      43.666 -16.677   5.292  1.00  0.00    -0.232 NA
HETATM    6  C   UNL     1      43.097 -15.521   4.884  1.00  0.00     0.164 A 
HETATM    7 CL   UNL     1      42.972 -14.347   6.127  1.00  0.00    -0.059 Cl
HETATM    8  C   UNL     1      42.642 -15.348   3.586  1.00  0.00     0.165 A 
HETATM    9  N   UNL     1      42.724 -16.332   2.650  1.00  0.00    -0.234 NA
HETATM   10  C   UNL     1      44.317 -18.879   4.754  1.00  0.00     0.034 A 
HETATM   11  C   UNL     1      44.412 -19.937   3.850  1.00  0.00     0.002 A 
ENDROOT
BRANCH   8  12
HETATM   12  S   UNL     1      41.859 -13.852   2.982  1.00  0.00     0.078 S 
HETATM   13  O   UNL     1      42.883 -13.169   2.123  1.00  0.00    -0.251 OA
BRANCH  12  14
HETATM   14  C   UNL     1      40.611 -14.527   1.824  1.00  0.00     0.112 C 
HETATM   15  C   UNL     1      40.974 -14.152   0.383  1.00  0.00     0.250 C 
HETATM   16  N   UNL     1      39.881 -14.579  -0.558  1.00  0.00    -0.074 N 
HETATM   17  H   UNL     1      39.818 -15.608  -0.578  1.00  0.00     0.277 HD
HETATM   18  H   UNL     1      40.147 -14.301  -1.514  1.00  0.00     0.277 HD
HETATM   19  C   UNL     1      38.548 -13.988  -0.238  1.00  0.00     0.232 C 
HETATM   20  C   UNL     1      38.163 -14.373   1.182  1.00  0.00     0.029 C 
HETATM   21  C   UNL     1      39.232 -13.954   2.191  1.00  0.00     0.021 C 
ENDBRANCH  12  14
ENDBRANCH   8  12
TORSDOF 2
ENDMDL
MODEL 6
REMARK VINA RESULT:      -6.6      2.966      3.934
REMARK  2 active torsions:
REMARK  status: ('A' for Active; 'I' for Inactive)
REMARK    1  A    between atoms: C_8  and  S_9 
REMARK    2  A    between atoms: S_9  and  C_10 
ROOT
HETATM    1  C   UNL     1      44.727 -18.997   5.736  1.00  0.00     0.002 A 
HETATM    2  C   UNL     1      43.982 -17.832   5.549  1.00  0.00     0.034 A 
HETATM    3  C   UNL     1      43.313 -17.585   4.356  1.00  0.00     0.087 A 
HETATM    4  C   UNL     1      43.406 -18.538   3.308  1.00  0.00     0.087 A 
HETATM    5  N   UNL     1      42.796 -18.341   2.126  1.00  0.00    -0.232 NA
HETATM    6  C   UNL     1      42.098 -17.193   1.982  1.00  0.00     0.164 A 
HETATM    7 CL   UNL     1      41.416 -17.002   0.421  1.00  0.00    -0.059 Cl
HETATM    8  C   UNL     1      41.992 -16.268   3.009  1.00  0.00     0.165 A 
HETATM    9  N   UNL     1      42.593 -16.449   4.216  1.00  0.00    -0.234 NA
HETATM   10  C   UNL     1      44.144 -19.697   3.509  1.00  0.00     0.034 A 
HETATM   11  C   UNL     1      44.804 -19.934   4.714  1.00  0.00     0.002 A 
ENDROOT
BRANCH   8  12
HETATM   12  S   UNL     1      41.102 -14.716   2.880  1.00  0.00     0.078 S 
HETATM   13  O   UNL     1      39.665 -15.083   2.647  1.00  0.00    -0.251 OA
BRANCH  12  14
HETATM   14  C   UNL     1      41.182 -14.097   4.602  1.00  0.00     0.112 C 
HETATM   15  C   UNL     1      39.815 -14.246   5.278  1.00  0.00     0.250 C 
HETATM   16  N   UNL     1      39.837 -13.612   6.641  1.00  0.00    -0.074 N 
HETATM   17  H   UNL     1      40.477 -14.130   7.261  1.00  0.00     0.277 HD
HETATM   18  H   UNL     1      38.902 -13.714   7.064  1.00  0.00     0.277 HD
HETATM   19  C   UNL     1      40.199 -12.163   6.623  1.00  0.00     0.232 C 
HETATM   20  C   UNL     1      41.566 -12.002   5.977  1.00  0.00     0.029 C 
HETATM   21  C   UNL     1      41.606 -12.620   4.579  1.00  0.00     0.021 C 
ENDBRANCH  12  14
ENDBRANCH   8  12
TORSDOF 2
ENDMDL
MODEL 7
REMARK VINA RESULT:      -6.5      2.018      2.411
REMARK  2 active torsions:
REMARK  status: ('A' for Active; 'I' for Inactive)
REMARK    1  A    between atoms: C_8  and  S_9 
REMARK    2  A    between atoms: S_9  and  C_10 
ROOT
HETATM    1  C   UNL     1      44.194 -22.208   1.968  1.00  0.00     0.002 A 
HETATM    2  C   UNL     1      43.864 -20.860   1.820  1.00  0.00     0.034 A 
HETATM    3  C   UNL     1      44.069 -19.948   2.850  1.00  0.00     0.087 A 
HETATM    4  C   UNL     1      44.615 -20.411   4.076  1.00  0.00     0.087 A 
HETATM    5  N   UNL     1      44.816 -19.577   5.112  1.00  0.00    -0.232 NA
HETATM    6  C   UNL     1      44.468 -18.284   4.932  1.00  0.00     0.164 A 
HETATM    7 CL   UNL     1      44.698 -17.316   6.328  1.00  0.00    -0.059 Cl
HETATM    8  C   UNL     1      43.951 -17.826   3.730  1.00  0.00     0.165 A 
HETATM    9  N   UNL     1      43.746 -18.648   2.666  1.00  0.00    -0.234 NA
HETATM   10  C   UNL     1      44.945 -21.753   4.208  1.00  0.00     0.034 A 
HETATM   11  C   UNL     1      44.740 -22.654   3.165  1.00  0.00     0.002 A 
ENDROOT
BRANCH   8  12
HETATM   12  S   UNL     1      43.449 -16.130   3.428  1.00  0.00     0.078 S 
HETATM   13  O   UNL     1      43.115 -16.053   1.967  1.00  0.00    -0.251 OA
BRANCH  12  14
HETATM   14  C   UNL     1      41.845 -16.054   4.309  1.00  0.00     0.112 C 
HETATM   15  C   UNL     1      41.966 -15.156   5.544  1.00  0.00     0.250 C 
HETATM   16  N   UNL     1      40.695 -15.203   6.347  1.00  0.00    -0.074 N 
HETATM   17  H   UNL     1      39.924 -14.782   5.810  1.00  0.00     0.277 HD
HETATM   18  H   UNL     1      40.812 -14.602   7.177  1.00  0.00     0.277 HD
HETATM   19  C   UNL     1      40.320 -16.576   6.798  1.00  0.00     0.232 C 
HETATM   20  C   UNL     1      40.172 -17.474   5.579  1.00  0.00     0.029 C 
HETATM   21  C   UNL     1      41.439 -17.478   4.723  1.00  0.00     0.021 C 
ENDBRANCH  12  14
ENDBRANCH   8  12
TORSDOF 2
ENDMDL
MODEL 8
REMARK VINA RESULT:      -6.4      2.683      3.200
REMARK  2 active torsions:
REMARK  status: ('A' for Active; 'I' for Inactive)
REMARK    1  A    between atoms: C_8  and  S_9 
REMARK    2  A    between atoms: S_9  and  C_10 
ROOT
HETATM    1  C   UNL     1      44.388 -20.742   2.646  1.00  0.00     0.002 A 
HETATM    2  C   UNL     1      43.501 -19.879   2.000  1.00  0.00     0.034 A 
HETATM    3  C   UNL     1      43.063 -18.707   2.606  1.00  0.00     0.087 A 
HETATM    4  C   UNL     1      43.524 -18.397   3.913  1.00  0.00     0.087 A 
HETATM    5  N   UNL     1      43.117 -17.287   4.554  1.00  0.00    -0.232 NA
HETATM    6  C   UNL     1      42.247 -16.488   3.900  1.00  0.00     0.164 A 
HETATM    7 CL   UNL     1      41.735 -15.138   4.824  1.00  0.00    -0.059 Cl
HETATM    8  C   UNL     1      41.808 -16.778   2.617  1.00  0.00     0.165 A 
HETATM    9  N   UNL     1      42.212 -17.890   1.945  1.00  0.00    -0.234 NA
HETATM   10  C   UNL     1      44.411 -19.261   4.542  1.00  0.00     0.034 A 
HETATM   11  C   UNL     1      44.847 -20.429   3.919  1.00  0.00     0.002 A 
ENDROOT
BRANCH   8  12
HETATM   12  S   UNL     1      40.639 -15.775   1.699  1.00  0.00     0.078 S 
HETATM   13  O   UNL     1      39.666 -15.245   2.711  1.00  0.00    -0.251 OA
BRANCH  12  14
HETATM   14  C   UNL     1      41.677 -14.346   1.213  1.00  0.00     0.112 C 
HETATM   15  C   UNL     1      41.369 -13.144   2.112  1.00  0.00     0.250 C 
HETATM   16  N   UNL     1      42.112 -11.929   1.628  1.00  0.00    -0.074 N 
HETATM   17  H   UNL     1      43.127 -12.069   1.742  1.00  0.00     0.277 HD
HETATM   18  H   UNL     1      41.874 -11.136   2.242  1.00  0.00     0.277 HD
HETATM   19  C   UNL     1      41.799 -11.555   0.217  1.00  0.00     0.232 C 
HETATM   20  C   UNL     1      42.123 -12.732  -0.691  1.00  0.00     0.029 C 
HETATM   21  C   UNL     1      41.387 -14.000  -0.257  1.00  0.00     0.021 C 
ENDBRANCH  12  14
ENDBRANCH   8  12
TORSDOF 2
ENDMDL
MODEL 9
REMARK VINA RESULT:      -6.4      2.500      3.223
REMARK  2 active torsions:
REMARK  status: ('A' for Active; 'I' for Inactive)
REMARK    1  A    between atoms: C_8  and  S_9 
REMARK    2  A    between atoms: S_9  and  C_10 
ROOT
HETATM    1  C   UNL     1      43.896 -19.433   1.972  1.00  0.00     0.002 A 
HETATM    2  C   UNL     1      43.688 -18.054   2.036  1.00  0.00     0.034 A 
HETATM    3  C   UNL     1      43.695 -17.378   3.251  1.00  0.00     0.087 A 
HETATM    4  C   UNL     1      43.907 -18.117   4.445  1.00  0.00     0.087 A 
HETATM    5  N   UNL     1      43.904 -17.517   5.649  1.00  0.00    -0.232 NA
HETATM    6  C   UNL     1      43.684 -16.184   5.667  1.00  0.00     0.164 A 
HETATM    7 CL   UNL     1      43.630 -15.525   7.249  1.00  0.00    -0.059 Cl
HETATM    8  C   UNL     1      43.494 -15.457   4.503  1.00  0.00     0.165 A 
HETATM    9  N   UNL     1      43.501 -16.039   3.273  1.00  0.00    -0.234 NA
HETATM   10  C   UNL     1      44.119 -19.486   4.366  1.00  0.00     0.034 A 
HETATM   11  C   UNL     1      44.116 -20.150   3.140  1.00  0.00     0.002 A 
ENDROOT
BRANCH   8  12
HETATM   12  S   UNL     1      43.177 -13.693   4.454  1.00  0.00     0.078 S 
HETATM   13  O   UNL     1      43.552 -13.244   3.072  1.00  0.00    -0.251 OA
BRANCH  12  14
HETATM   14  C   UNL     1      41.347 -13.642   4.513  1.00  0.00     0.112 C 
HETATM   15  C   UNL     1      40.802 -12.910   3.282  1.00  0.00     0.250 C 
HETATM   16  N   UNL     1      39.312 -12.740   3.394  1.00  0.00    -0.074 N 
HETATM   17  H   UNL     1      38.850 -13.661   3.359  1.00  0.00     0.277 HD
HETATM   18  H   UNL     1      38.978 -12.233   2.561  1.00  0.00     0.277 HD
HETATM   19  C   UNL     1      38.883 -11.995   4.614  1.00  0.00     0.232 C 
HETATM   20  C   UNL     1      39.396 -12.724   5.847  1.00  0.00     0.029 C 
HETATM   21  C   UNL     1      40.912 -12.919   5.798  1.00  0.00     0.021 C 
ENDBRANCH  12  14
ENDBRANCH   8  12
TORSDOF 2
ENDMDL
MODEL 10
REMARK VINA RESULT:      -6.4      2.881      6.473
REMARK  2 active torsions:
REMARK  status: ('A' for Active; 'I' for Inactive)
REMARK    1  A    between atoms: C_8  and  S_9 
REMARK    2  A    between atoms: S_9  and  C_10 
ROOT
HETATM    1  C   UNL     1      40.147 -15.968   2.204  1.00  0.00     0.002 A 
HETATM    2  C   UNL     1      40.901 -16.718   3.108  1.00  0.00     0.034 A 
HETATM    3  C   UNL     1      41.715 -16.104   4.054  1.00  0.00     0.087 A 
HETATM    4  C   UNL     1      41.782 -14.686   4.083  1.00  0.00     0.087 A 
HETATM    5  N   UNL     1      42.567 -14.040   4.963  1.00  0.00    -0.232 NA
HETATM    6  C   UNL     1      43.292 -14.803   5.810  1.00  0.00     0.164 A 
HETATM    7 CL   UNL     1      44.312 -13.893   6.844  1.00  0.00    -0.059 Cl
HETATM    8  C   UNL     1      43.216 -16.187   5.796  1.00  0.00     0.165 A 
HETATM    9  N   UNL     1      42.422 -16.863   4.921  1.00  0.00    -0.234 NA
HETATM   10  C   UNL     1      41.022 -13.952   3.182  1.00  0.00     0.034 A 
HETATM   11  C   UNL     1      40.204 -14.581   2.244  1.00  0.00     0.002 A 
ENDROOT
BRANCH   8  12
HETATM   12  S   UNL     1      44.163 -17.262   6.875  1.00  0.00     0.078 S 
HETATM   13  O   UNL     1      43.470 -17.224   8.206  1.00  0.00    -0.251 OA
BRANCH  12  14
HETATM   14  C   UNL     1      43.798 -18.912   6.171  1.00  0.00     0.112 C 
HETATM   15  C   UNL     1      43.770 -19.964   7.285  1.00  0.00     0.250 C 
HETATM   16  N   UNL     1      43.611 -21.340   6.699  1.00  0.00    -0.074 N 
HETATM   17  H   UNL     1      42.686 -21.427   6.253  1.00  0.00     0.277 HD
HETATM   18  H   UNL     1      43.611 -22.024   7.469  1.00  0.00     0.277 HD
HETATM   19  C   UNL     1      44.687 -21.707   5.731  1.00  0.00     0.232 C 
HETATM   20  C   UNL     1      44.710 -20.685   4.605  1.00  0.00     0.029 C 
HETATM   21  C   UNL     1      44.880 -19.261   5.137  1.00  0.00     0.021 C 
ENDBRANCH  12  14
ENDBRANCH   8  12
TORSDOF 2
ENDMDL
