MODEL 1
REMARK VINA RESULT:      -9.4      0.000      0.000
REMARK  7 active torsions:
REMARK  status: ('A' for Active; 'I' for Inactive)
REMARK    1  A    between atoms: C_2  and  C_3 
REMARK    2  A    between atoms: C_6  and  C_7 
REMARK       I    between atoms: C_7  and  N_8 
REMARK    3  A    between atoms: N_8  and  C_9 
REMARK    4  A    between atoms: C_9  and  C_10 
REMARK    5  A    between atoms: N_19  and  C_20 
REMARK    6  A    between atoms: C_20  and  C_21 
REMARK    7  A    between atoms: C_21  and  C_22 
ROOT
HETATM    1  C   UNL     1      42.684 -15.445   5.927  1.00  0.00     0.249 C 
HETATM    2  C   UNL     1      41.923 -16.746   6.255  1.00  0.00     0.266 C 
HETATM    3  O   UNL     1      41.418 -17.071   7.316  1.00  0.00    -0.270 OA
HETATM    4  N   UNL     1      41.933 -17.535   5.105  1.00  0.00    -0.310 N 
HETATM    5  C   UNL     1      42.462 -16.863   4.056  1.00  0.00     0.129 C 
HETATM    6  C   UNL     1      42.846 -15.651   4.454  1.00  0.00     0.101 C 
HETATM    7  N   UNL     1      42.631 -17.315   2.776  1.00  0.00    -0.284 N 
HETATM    8  C   UNL     1      43.116 -16.456   1.787  1.00  0.00     0.331 C 
HETATM    9  O   UNL     1      43.287 -16.780   0.614  1.00  0.00    -0.246 OA
HETATM   10  N   UNL     1      43.442 -15.185   2.207  1.00  0.00    -0.275 N 
HETATM   11  C   UNL     1      43.431 -14.731   3.498  1.00  0.00     0.262 C 
HETATM   12  O   UNL     1      43.879 -13.647   3.844  1.00  0.00    -0.267 OA
HETATM   13  H   UNL     1      41.479 -18.436   5.072  1.00  0.00     0.170 HD
HETATM   14  H   UNL     1      43.841 -14.577   1.509  1.00  0.00     0.173 HD
ENDROOT
BRANCH   1  15
HETATM   15  N   UNL     1      41.992 -14.191   6.267  1.00  0.00    -0.327 N 
HETATM   16  C   UNL     1      40.716 -13.894   5.849  1.00  0.00     0.253 C 
HETATM   17  O   UNL     1      40.017 -14.694   5.239  1.00  0.00    -0.268 OA
HETATM   18  H   UNL     1      42.607 -13.396   6.413  1.00  0.00     0.164 HD
BRANCH  16  19
HETATM   19  C   UNL     1      40.249 -12.503   6.127  1.00  0.00     0.032 A 
HETATM   20  C   UNL     1      39.796 -12.111   7.390  1.00  0.00     0.017 A 
HETATM   21  C   UNL     1      39.410 -10.785   7.622  1.00  0.00     0.009 A 
HETATM   22  C   UNL     1      39.456  -9.813   6.605  1.00  0.00    -0.051 A 
HETATM   23  C   UNL     1      39.874 -10.236   5.332  1.00  0.00     0.009 A 
HETATM   24  C   UNL     1      40.263 -11.564   5.094  1.00  0.00     0.017 A 
BRANCH  22  25
HETATM   25  C   UNL     1      39.040  -8.361   6.908  1.00  0.00    -0.024 C 
HETATM   26  C   UNL     1      40.198  -7.393   6.573  1.00  0.00     0.019 C 
HETATM   27  C   UNL     1      38.695  -8.232   8.406  1.00  0.00     0.019 C 
HETATM   28  C   UNL     1      37.811  -7.884   6.103  1.00  0.00     0.019 C 
ENDBRANCH  22  25
ENDBRANCH  16  19
ENDBRANCH   1  15
BRANCH   1  29
HETATM   29  C   UNL     1      44.027 -15.601   6.660  1.00  0.00     0.426 C 
HETATM   30  F   UNL     1      43.835 -15.708   7.999  1.00  0.00    -0.167 F 
HETATM   31  F   UNL     1      44.687 -16.721   6.286  1.00  0.00    -0.167 F 
HETATM   32  F   UNL     1      44.860 -14.552   6.466  1.00  0.00    -0.167 F 
ENDBRANCH   1  29
BRANCH   7  33
HETATM   33  C   UNL     1      42.426 -18.720   2.433  1.00  0.00     0.140 C 
BRANCH  33  34
HETATM   34  C   UNL     1      43.691 -19.419   1.932  1.00  0.00     0.059 C 
BRANCH  34  35
HETATM   35  C   UNL     1      44.161 -20.436   2.946  1.00  0.00    -0.057 A 
HETATM   36  C   UNL     1      44.281 -21.789   2.596  1.00  0.00     0.007 A 
HETATM   37  C   UNL     1      44.646 -22.737   3.554  1.00  0.00     0.001 A 
HETATM   38  C   UNL     1      44.896 -22.343   4.866  1.00  0.00     0.000 A 
HETATM   39  C   UNL     1      44.785 -21.001   5.223  1.00  0.00     0.001 A 
HETATM   40  C   UNL     1      44.417 -20.051   4.269  1.00  0.00     0.007 A 
ENDBRANCH  34  35
ENDBRANCH  33  34
ENDBRANCH   7  33
TORSDOF 7
ENDMDL
MODEL 2
REMARK VINA RESULT:      -8.9      3.979      5.714
REMARK  7 active torsions:
REMARK  status: ('A' for Active; 'I' for Inactive)
REMARK    1  A    between atoms: C_2  and  C_3 
REMARK    2  A    between atoms: C_6  and  C_7 
REMARK       I    between atoms: C_7  and  N_8 
REMARK    3  A    between atoms: N_8  and  C_9 
REMARK    4  A    between atoms: C_9  and  C_10 
REMARK    5  A    between atoms: N_19  and  C_20 
REMARK    6  A    between atoms: C_20  and  C_21 
REMARK    7  A    between atoms: C_21  and  C_22 
ROOT
HETATM    1  C   UNL     1      42.008 -15.827   2.450  1.00  0.00     0.249 C 
HETATM    2  C   UNL     1      43.096 -16.799   1.952  1.00  0.00     0.266 C 
HETATM    3  O   UNL     1      43.338 -17.128   0.803  1.00  0.00    -0.270 OA
HETATM    4  N   UNL     1      43.766 -17.285   3.074  1.00  0.00    -0.310 N 
HETATM    5  C   UNL     1      43.357 -16.651   4.199  1.00  0.00     0.129 C 
HETATM    6  C   UNL     1      42.406 -15.772   3.891  1.00  0.00     0.101 C 
HETATM    7  N   UNL     1      43.792 -16.862   5.478  1.00  0.00    -0.284 N 
HETATM    8  C   UNL     1      43.326 -16.055   6.520  1.00  0.00     0.331 C 
HETATM    9  O   UNL     1      43.673 -16.172   7.692  1.00  0.00    -0.246 OA
HETATM   10  N   UNL     1      42.394 -15.105   6.166  1.00  0.00    -0.275 N 
HETATM   11  C   UNL     1      41.819 -14.953   4.933  1.00  0.00     0.262 C 
HETATM   12  O   UNL     1      40.881 -14.201   4.705  1.00  0.00    -0.267 OA
HETATM   13  H   UNL     1      44.537 -17.932   2.998  1.00  0.00     0.170 HD
HETATM   14  H   UNL     1      42.015 -14.554   6.922  1.00  0.00     0.173 HD
ENDROOT
BRANCH   1  15
HETATM   15  N   UNL     1      41.980 -14.506   1.802  1.00  0.00    -0.327 N 
HETATM   16  C   UNL     1      41.743 -14.326   0.460  1.00  0.00     0.253 C 
HETATM   17  O   UNL     1      41.440 -15.247  -0.288  1.00  0.00    -0.268 OA
HETATM   18  H   UNL     1      42.567 -13.806   2.246  1.00  0.00     0.164 HD
BRANCH  16  19
HETATM   19  C   UNL     1      41.942 -12.937  -0.055  1.00  0.00     0.032 A 
HETATM   20  C   UNL     1      41.709 -11.811   0.741  1.00  0.00     0.017 A 
HETATM   21  C   UNL     1      41.952 -10.528   0.237  1.00  0.00     0.009 A 
HETATM   22  C   UNL     1      42.426 -10.326  -1.073  1.00  0.00    -0.051 A 
HETATM   23  C   UNL     1      42.614 -11.467  -1.870  1.00  0.00     0.009 A 
HETATM   24  C   UNL     1      42.373 -12.757  -1.370  1.00  0.00     0.017 A 
BRANCH  22  25
HETATM   25  C   UNL     1      42.698  -8.897  -1.582  1.00  0.00    -0.024 C 
HETATM   26  C   UNL     1      42.523  -8.835  -3.116  1.00  0.00     0.019 C 
HETATM   27  C   UNL     1      44.143  -8.495  -1.223  1.00  0.00     0.019 C 
HETATM   28  C   UNL     1      41.755  -7.831  -0.981  1.00  0.00     0.019 C 
ENDBRANCH  22  25
ENDBRANCH  16  19
ENDBRANCH   1  15
BRANCH   1  29
HETATM   29  C   UNL     1      40.695 -16.607   2.267  1.00  0.00     0.426 C 
HETATM   30  F   UNL     1      40.455 -17.404   3.339  1.00  0.00    -0.167 F 
HETATM   31  F   UNL     1      39.623 -15.787   2.163  1.00  0.00    -0.167 F 
HETATM   32  F   UNL     1      40.703 -17.408   1.176  1.00  0.00    -0.167 F 
ENDBRANCH   1  29
BRANCH   7  33
HETATM   33  C   UNL     1      44.653 -17.994   5.813  1.00  0.00     0.140 C 
BRANCH  33  34
HETATM   34  C   UNL     1      43.881 -19.266   6.168  1.00  0.00     0.059 C 
BRANCH  34  35
HETATM   35  C   UNL     1      44.241 -20.379   5.211  1.00  0.00    -0.057 A 
HETATM   36  C   UNL     1      44.269 -20.148   3.828  1.00  0.00     0.007 A 
HETATM   37  C   UNL     1      44.530 -21.195   2.942  1.00  0.00     0.001 A 
HETATM   38  C   UNL     1      44.769 -22.478   3.429  1.00  0.00     0.000 A 
HETATM   39  C   UNL     1      44.750 -22.717   4.801  1.00  0.00     0.001 A 
HETATM   40  C   UNL     1      44.484 -21.673   5.690  1.00  0.00     0.007 A 
ENDBRANCH  34  35
ENDBRANCH  33  34
ENDBRANCH   7  33
TORSDOF 7
ENDMDL
MODEL 3
REMARK VINA RESULT:      -8.8      3.133      4.632
REMARK  7 active torsions:
REMARK  status: ('A' for Active; 'I' for Inactive)
REMARK    1  A    between atoms: C_2  and  C_3 
REMARK    2  A    between atoms: C_6  and  C_7 
REMARK       I    between atoms: C_7  and  N_8 
REMARK    3  A    between atoms: N_8  and  C_9 
REMARK    4  A    between atoms: C_9  and  C_10 
REMARK    5  A    between atoms: N_19  and  C_20 
REMARK    6  A    between atoms: C_20  and  C_21 
REMARK    7  A    between atoms: C_21  and  C_22 
ROOT
HETATM    1  C   UNL     1      41.631 -15.866   2.668  1.00  0.00     0.249 C 
HETATM    2  C   UNL     1      42.908 -16.501   2.083  1.00  0.00     0.266 C 
HETATM    3  O   UNL     1      43.231 -16.589   0.910  1.00  0.00    -0.270 OA
HETATM    4  N   UNL     1      43.649 -17.006   3.150  1.00  0.00    -0.310 N 
HETATM    5  C   UNL     1      43.099 -16.655   4.337  1.00  0.00     0.129 C 
HETATM    6  C   UNL     1      41.987 -15.955   4.119  1.00  0.00     0.101 C 
HETATM    7  N   UNL     1      43.549 -16.967   5.589  1.00  0.00    -0.284 N 
HETATM    8  C   UNL     1      42.908 -16.447   6.716  1.00  0.00     0.331 C 
HETATM    9  O   UNL     1      43.254 -16.671   7.873  1.00  0.00    -0.246 OA
HETATM   10  N   UNL     1      41.800 -15.668   6.465  1.00  0.00    -0.275 N 
HETATM   11  C   UNL     1      41.224 -15.448   5.243  1.00  0.00     0.262 C 
HETATM   12  O   UNL     1      40.152 -14.881   5.086  1.00  0.00    -0.267 OA
HETATM   13  H   UNL     1      44.541 -17.459   3.014  1.00  0.00     0.170 HD
HETATM   14  H   UNL     1      41.303 -15.333   7.275  1.00  0.00     0.173 HD
ENDROOT
BRANCH   1  15
HETATM   15  N   UNL     1      41.333 -14.494   2.225  1.00  0.00    -0.327 N 
HETATM   16  C   UNL     1      42.219 -13.450   2.349  1.00  0.00     0.253 C 
HETATM   17  O   UNL     1      43.366 -13.599   2.752  1.00  0.00    -0.268 OA
HETATM   18  H   UNL     1      40.349 -14.246   2.254  1.00  0.00     0.164 HD
BRANCH  16  19
HETATM   19  C   UNL     1      41.677 -12.096   2.023  1.00  0.00     0.032 A 
HETATM   20  C   UNL     1      40.936 -11.352   2.946  1.00  0.00     0.017 A 
HETATM   21  C   UNL     1      40.486 -10.067   2.619  1.00  0.00     0.009 A 
HETATM   22  C   UNL     1      40.751  -9.489   1.364  1.00  0.00    -0.051 A 
HETATM   23  C   UNL     1      41.460 -10.269   0.435  1.00  0.00     0.009 A 
HETATM   24  C   UNL     1      41.916 -11.557   0.758  1.00  0.00     0.017 A 
BRANCH  22  25
HETATM   25  C   UNL     1      40.252  -8.065   1.051  1.00  0.00    -0.024 C 
HETATM   26  C   UNL     1      41.275  -7.325   0.158  1.00  0.00     0.019 C 
HETATM   27  C   UNL     1      40.079  -7.285   2.370  1.00  0.00     0.019 C 
HETATM   28  C   UNL     1      38.899  -8.028   0.306  1.00  0.00     0.019 C 
ENDBRANCH  22  25
ENDBRANCH  16  19
ENDBRANCH   1  15
BRANCH   1  29
HETATM   29  C   UNL     1      40.516 -16.862   2.309  1.00  0.00     0.426 C 
HETATM   30  F   UNL     1      40.326 -17.754   3.314  1.00  0.00    -0.167 F 
HETATM   31  F   UNL     1      39.324 -16.251   2.122  1.00  0.00    -0.167 F 
HETATM   32  F   UNL     1      40.787 -17.579   1.194  1.00  0.00    -0.167 F 
ENDBRANCH   1  29
BRANCH   7  33
HETATM   33  C   UNL     1      44.626 -17.934   5.791  1.00  0.00     0.140 C 
BRANCH  33  34
HETATM   34  C   UNL     1      44.141 -19.296   6.292  1.00  0.00     0.059 C 
BRANCH  34  35
HETATM   35  C   UNL     1      44.383 -20.354   5.241  1.00  0.00    -0.057 A 
HETATM   36  C   UNL     1      44.395 -20.018   3.880  1.00  0.00     0.007 A 
HETATM   37  C   UNL     1      44.547 -21.009   2.908  1.00  0.00     0.001 A 
HETATM   38  C   UNL     1      44.691 -22.342   3.287  1.00  0.00     0.000 A 
HETATM   39  C   UNL     1      44.686 -22.686   4.636  1.00  0.00     0.001 A 
HETATM   40  C   UNL     1      44.530 -21.698   5.611  1.00  0.00     0.007 A 
ENDBRANCH  34  35
ENDBRANCH  33  34
ENDBRANCH   7  33
TORSDOF 7
ENDMDL
MODEL 4
REMARK VINA RESULT:      -8.6      4.441      9.309
REMARK  7 active torsions:
REMARK  status: ('A' for Active; 'I' for Inactive)
REMARK    1  A    between atoms: C_2  and  C_3 
REMARK    2  A    between atoms: C_6  and  C_7 
REMARK       I    between atoms: C_7  and  N_8 
REMARK    3  A    between atoms: N_8  and  C_9 
REMARK    4  A    between atoms: C_9  and  C_10 
REMARK    5  A    between atoms: N_19  and  C_20 
REMARK    6  A    between atoms: C_20  and  C_21 
REMARK    7  A    between atoms: C_21  and  C_22 
ROOT
HETATM    1  C   UNL     1      41.481 -14.395   3.513  1.00  0.00     0.249 C 
HETATM    2  C   UNL     1      42.422 -13.174   3.536  1.00  0.00     0.266 C 
HETATM    3  O   UNL     1      43.172 -12.823   4.432  1.00  0.00    -0.270 OA
HETATM    4  N   UNL     1      42.250 -12.492   2.332  1.00  0.00    -0.310 N 
HETATM    5  C   UNL     1      41.445 -13.183   1.490  1.00  0.00     0.129 C 
HETATM    6  C   UNL     1      41.032 -14.299   2.088  1.00  0.00     0.101 C 
HETATM    7  N   UNL     1      41.056 -12.826   0.229  1.00  0.00    -0.284 N 
HETATM    8  C   UNL     1      40.288 -13.701  -0.543  1.00  0.00     0.331 C 
HETATM    9  O   UNL     1      39.906 -13.462  -1.686  1.00  0.00    -0.246 OA
HETATM   10  N   UNL     1      39.931 -14.881   0.071  1.00  0.00    -0.275 N 
HETATM   11  C   UNL     1      40.168 -15.220   1.376  1.00  0.00     0.262 C 
HETATM   12  O   UNL     1      39.695 -16.207   1.922  1.00  0.00    -0.267 OA
HETATM   13  H   UNL     1      42.776 -11.660   2.109  1.00  0.00     0.170 HD
HETATM   14  H   UNL     1      39.333 -15.494  -0.462  1.00  0.00     0.173 HD
ENDROOT
BRANCH   1  15
HETATM   15  N   UNL     1      42.098 -15.690   3.842  1.00  0.00    -0.327 N 
HETATM   16  C   UNL     1      43.232 -16.166   3.227  1.00  0.00     0.253 C 
HETATM   17  O   UNL     1      43.875 -15.505   2.421  1.00  0.00    -0.268 OA
HETATM   18  H   UNL     1      41.448 -16.394   4.179  1.00  0.00     0.164 HD
BRANCH  16  19
HETATM   19  C   UNL     1      43.604 -17.576   3.552  1.00  0.00     0.032 A 
HETATM   20  C   UNL     1      43.850 -18.526   2.556  1.00  0.00     0.017 A 
HETATM   21  C   UNL     1      44.242 -19.826   2.900  1.00  0.00     0.009 A 
HETATM   22  C   UNL     1      44.393 -20.221   4.243  1.00  0.00    -0.051 A 
HETATM   23  C   UNL     1      44.101 -19.264   5.229  1.00  0.00     0.009 A 
HETATM   24  C   UNL     1      43.709 -17.959   4.890  1.00  0.00     0.017 A 
BRANCH  22  25
HETATM   25  C   UNL     1      44.844 -21.655   4.577  1.00  0.00    -0.024 C 
HETATM   26  C   UNL     1      44.423 -22.624   3.449  1.00  0.00     0.019 C 
HETATM   27  C   UNL     1      44.183 -22.102   5.897  1.00  0.00     0.019 C 
HETATM   28  C   UNL     1      46.372 -21.805   4.748  1.00  0.00     0.019 C 
ENDBRANCH  22  25
ENDBRANCH  16  19
ENDBRANCH   1  15
BRANCH   1  29
HETATM   29  C   UNL     1      40.347 -14.014   4.478  1.00  0.00     0.426 C 
HETATM   30  F   UNL     1      39.687 -15.119   4.906  1.00  0.00    -0.167 F 
HETATM   31  F   UNL     1      40.808 -13.399   5.592  1.00  0.00    -0.167 F 
HETATM   32  F   UNL     1      39.424 -13.200   3.914  1.00  0.00    -0.167 F 
ENDBRANCH   1  29
BRANCH   7  33
HETATM   33  C   UNL     1      41.326 -11.492  -0.301  1.00  0.00     0.140 C 
BRANCH  33  34
HETATM   34  C   UNL     1      42.693 -11.366  -0.976  1.00  0.00     0.059 C 
BRANCH  34  35
HETATM   35  C   UNL     1      42.535 -10.821  -2.377  1.00  0.00    -0.057 A 
HETATM   36  C   UNL     1      42.453 -11.690  -3.474  1.00  0.00     0.007 A 
HETATM   37  C   UNL     1      42.379 -11.184  -4.773  1.00  0.00     0.001 A 
HETATM   38  C   UNL     1      42.384  -9.807  -4.987  1.00  0.00     0.000 A 
HETATM   39  C   UNL     1      42.460  -8.935  -3.904  1.00  0.00     0.001 A 
HETATM   40  C   UNL     1      42.538  -9.438  -2.603  1.00  0.00     0.007 A 
ENDBRANCH  34  35
ENDBRANCH  33  34
ENDBRANCH   7  33
TORSDOF 7
ENDMDL
MODEL 5
REMARK VINA RESULT:      -8.5      4.521      5.318
REMARK  7 active torsions:
REMARK  status: ('A' for Active; 'I' for Inactive)
REMARK    1  A    between atoms: C_2  and  C_3 
REMARK    2  A    between atoms: C_6  and  C_7 
REMARK       I    between atoms: C_7  and  N_8 
REMARK    3  A    between atoms: N_8  and  C_9 
REMARK    4  A    between atoms: C_9  and  C_10 
REMARK    5  A    between atoms: N_19  and  C_20 
REMARK    6  A    between atoms: C_20  and  C_21 
REMARK    7  A    between atoms: C_21  and  C_22 
ROOT
HETATM    1  C   UNL     1      40.772 -13.852   2.912  1.00  0.00     0.249 C 
HETATM    2  C   UNL     1      40.273 -14.648   4.136  1.00  0.00     0.266 C 
HETATM    3  O   UNL     1      39.540 -14.263   5.031  1.00  0.00    -0.270 OA
HETATM    4  N   UNL     1      40.843 -15.918   4.068  1.00  0.00    -0.310 N 
HETATM    5  C   UNL     1      41.513 -16.091   2.904  1.00  0.00     0.129 C 
HETATM    6  C   UNL     1      41.450 -14.971   2.186  1.00  0.00     0.101 C 
HETATM    7  N   UNL     1      42.192 -17.203   2.491  1.00  0.00    -0.284 N 
HETATM    8  C   UNL     1      42.758 -17.247   1.214  1.00  0.00     0.331 C 
HETATM    9  O   UNL     1      43.375 -18.209   0.764  1.00  0.00    -0.246 OA
HETATM   10  N   UNL     1      42.621 -16.101   0.462  1.00  0.00    -0.275 N 
HETATM   11  C   UNL     1      42.082 -14.915   0.882  1.00  0.00     0.262 C 
HETATM   12  O   UNL     1      42.125 -13.878   0.235  1.00  0.00    -0.267 OA
HETATM   13  H   UNL     1      40.650 -16.628   4.759  1.00  0.00     0.170 HD
HETATM   14  H   UNL     1      43.072 -16.108  -0.440  1.00  0.00     0.173 HD
ENDROOT
BRANCH   1  15
HETATM   15  N   UNL     1      39.732 -13.184   2.112  1.00  0.00    -0.327 N 
HETATM   16  C   UNL     1      38.708 -13.858   1.489  1.00  0.00     0.253 C 
HETATM   17  O   UNL     1      38.524 -15.060   1.630  1.00  0.00    -0.268 OA
HETATM   18  H   UNL     1      40.032 -12.323   1.666  1.00  0.00     0.164 HD
BRANCH  16  19
HETATM   19  C   UNL     1      37.861 -13.043   0.567  1.00  0.00     0.032 A 
HETATM   20  C   UNL     1      36.864 -12.184   1.040  1.00  0.00     0.017 A 
HETATM   21  C   UNL     1      36.123 -11.402   0.146  1.00  0.00     0.009 A 
HETATM   22  C   UNL     1      36.345 -11.455  -1.243  1.00  0.00    -0.051 A 
HETATM   23  C   UNL     1      37.322 -12.354  -1.702  1.00  0.00     0.009 A 
HETATM   24  C   UNL     1      38.070 -13.140  -0.810  1.00  0.00     0.017 A 
BRANCH  22  25
HETATM   25  C   UNL     1      35.520 -10.563  -2.190  1.00  0.00    -0.024 C 
HETATM   26  C   UNL     1      36.122  -9.140  -2.243  1.00  0.00     0.019 C 
HETATM   27  C   UNL     1      34.069 -10.478  -1.673  1.00  0.00     0.019 C 
HETATM   28  C   UNL     1      35.467 -11.081  -3.645  1.00  0.00     0.019 C 
ENDBRANCH  22  25
ENDBRANCH  16  19
ENDBRANCH   1  15
BRANCH   1  29
HETATM   29  C   UNL     1      41.798 -12.867   3.496  1.00  0.00     0.426 C 
HETATM   30  F   UNL     1      42.354 -12.114   2.515  1.00  0.00    -0.167 F 
HETATM   31  F   UNL     1      41.233 -11.995   4.363  1.00  0.00    -0.167 F 
HETATM   32  F   UNL     1      42.815 -13.484   4.142  1.00  0.00    -0.167 F 
ENDBRANCH   1  29
BRANCH   7  33
HETATM   33  C   UNL     1      42.447 -18.320   3.398  1.00  0.00     0.140 C 
BRANCH  33  34
HETATM   34  C   UNL     1      43.924 -18.496   3.754  1.00  0.00     0.059 C 
BRANCH  34  35
HETATM   35  C   UNL     1      44.267 -19.964   3.851  1.00  0.00    -0.057 A 
HETATM   36  C   UNL     1      44.208 -20.786   2.716  1.00  0.00     0.007 A 
HETATM   37  C   UNL     1      44.455 -22.156   2.822  1.00  0.00     0.001 A 
HETATM   38  C   UNL     1      44.765 -22.716   4.060  1.00  0.00     0.000 A 
HETATM   39  C   UNL     1      44.831 -21.908   5.192  1.00  0.00     0.001 A 
HETATM   40  C   UNL     1      44.581 -20.538   5.090  1.00  0.00     0.007 A 
ENDBRANCH  34  35
ENDBRANCH  33  34
ENDBRANCH   7  33
TORSDOF 7
ENDMDL
MODEL 6
REMARK VINA RESULT:      -8.5      4.748      6.930
REMARK  7 active torsions:
REMARK  status: ('A' for Active; 'I' for Inactive)
REMARK    1  A    between atoms: C_2  and  C_3 
REMARK    2  A    between atoms: C_6  and  C_7 
REMARK       I    between atoms: C_7  and  N_8 
REMARK    3  A    between atoms: N_8  and  C_9 
REMARK    4  A    between atoms: C_9  and  C_10 
REMARK    5  A    between atoms: N_19  and  C_20 
REMARK    6  A    between atoms: C_20  and  C_21 
REMARK    7  A    between atoms: C_21  and  C_22 
ROOT
HETATM    1  C   UNL     1      41.819 -15.663   1.445  1.00  0.00     0.249 C 
HETATM    2  C   UNL     1      43.207 -15.967   2.043  1.00  0.00     0.266 C 
HETATM    3  O   UNL     1      44.203 -16.365   1.462  1.00  0.00    -0.270 OA
HETATM    4  N   UNL     1      43.131 -15.732   3.415  1.00  0.00    -0.310 N 
HETATM    5  C   UNL     1      41.938 -15.185   3.751  1.00  0.00     0.129 C 
HETATM    6  C   UNL     1      41.182 -15.068   2.661  1.00  0.00     0.101 C 
HETATM    7  N   UNL     1      41.510 -14.821   4.997  1.00  0.00    -0.284 N 
HETATM    8  C   UNL     1      40.276 -14.185   5.158  1.00  0.00     0.331 C 
HETATM    9  O   UNL     1      39.823 -13.819   6.240  1.00  0.00    -0.246 OA
HETATM   10  N   UNL     1      39.541 -14.011   4.007  1.00  0.00    -0.275 N 
HETATM   11  C   UNL     1      39.857 -14.488   2.763  1.00  0.00     0.262 C 
HETATM   12  O   UNL     1      39.100 -14.448   1.803  1.00  0.00    -0.267 OA
HETATM   13  H   UNL     1      43.928 -15.849   4.023  1.00  0.00     0.170 HD
HETATM   14  H   UNL     1      38.627 -13.600   4.123  1.00  0.00     0.173 HD
ENDROOT
BRANCH   1  15
HETATM   15  N   UNL     1      41.803 -14.764   0.280  1.00  0.00    -0.327 N 
HETATM   16  C   UNL     1      42.160 -13.438   0.343  1.00  0.00     0.253 C 
HETATM   17  O   UNL     1      42.612 -12.922   1.357  1.00  0.00    -0.268 OA
HETATM   18  H   UNL     1      41.118 -15.005  -0.430  1.00  0.00     0.164 HD
BRANCH  16  19
HETATM   19  C   UNL     1      41.900 -12.636  -0.891  1.00  0.00     0.032 A 
HETATM   20  C   UNL     1      40.734 -12.795  -1.646  1.00  0.00     0.017 A 
HETATM   21  C   UNL     1      40.506 -11.991  -2.770  1.00  0.00     0.009 A 
HETATM   22  C   UNL     1      41.431 -11.013  -3.179  1.00  0.00    -0.051 A 
HETATM   23  C   UNL     1      42.615 -10.897  -2.432  1.00  0.00     0.009 A 
HETATM   24  C   UNL     1      42.849 -11.699  -1.303  1.00  0.00     0.017 A 
BRANCH  22  25
HETATM   25  C   UNL     1      41.133 -10.137  -4.411  1.00  0.00    -0.024 C 
HETATM   26  C   UNL     1      39.748 -10.496  -4.998  1.00  0.00     0.019 C 
HETATM   27  C   UNL     1      42.213 -10.382  -5.484  1.00  0.00     0.019 C 
HETATM   28  C   UNL     1      41.110  -8.622  -4.108  1.00  0.00     0.019 C 
ENDBRANCH  22  25
ENDBRANCH  16  19
ENDBRANCH   1  15
BRANCH   1  29
HETATM   29  C   UNL     1      41.232 -17.050   1.134  1.00  0.00     0.426 C 
HETATM   30  F   UNL     1      42.127 -18.027   1.424  1.00  0.00    -0.167 F 
HETATM   31  F   UNL     1      40.133 -17.318   1.876  1.00  0.00    -0.167 F 
HETATM   32  F   UNL     1      40.894 -17.202  -0.167  1.00  0.00    -0.167 F 
ENDBRANCH   1  29
BRANCH   7  33
HETATM   33  C   UNL     1      42.261 -15.185   6.197  1.00  0.00     0.140 C 
BRANCH  33  34
HETATM   34  C   UNL     1      41.951 -16.592   6.710  1.00  0.00     0.059 C 
BRANCH  34  35
HETATM   35  C   UNL     1      43.032 -17.555   6.278  1.00  0.00    -0.057 A 
HETATM   36  C   UNL     1      44.340 -17.424   6.765  1.00  0.00     0.007 A 
HETATM   37  C   UNL     1      45.353 -18.270   6.309  1.00  0.00     0.001 A 
HETATM   38  C   UNL     1      45.067 -19.256   5.366  1.00  0.00     0.000 A 
HETATM   39  C   UNL     1      43.769 -19.399   4.881  1.00  0.00     0.001 A 
HETATM   40  C   UNL     1      42.755 -18.551   5.331  1.00  0.00     0.007 A 
ENDBRANCH  34  35
ENDBRANCH  33  34
ENDBRANCH   7  33
TORSDOF 7
ENDMDL
MODEL 7
REMARK VINA RESULT:      -8.3      4.013      6.001
REMARK  7 active torsions:
REMARK  status: ('A' for Active; 'I' for Inactive)
REMARK    1  A    between atoms: C_2  and  C_3 
REMARK    2  A    between atoms: C_6  and  C_7 
REMARK       I    between atoms: C_7  and  N_8 
REMARK    3  A    between atoms: N_8  and  C_9 
REMARK    4  A    between atoms: C_9  and  C_10 
REMARK    5  A    between atoms: N_19  and  C_20 
REMARK    6  A    between atoms: C_20  and  C_21 
REMARK    7  A    between atoms: C_21  and  C_22 
ROOT
HETATM    1  C   UNL     1      40.359 -10.475   5.855  1.00  0.00     0.249 C 
HETATM    2  C   UNL     1      41.416 -10.185   4.771  1.00  0.00     0.266 C 
HETATM    3  O   UNL     1      41.907  -9.110   4.472  1.00  0.00    -0.270 OA
HETATM    4  N   UNL     1      41.708 -11.394   4.140  1.00  0.00    -0.310 N 
HETATM    5  C   UNL     1      41.098 -12.430   4.764  1.00  0.00     0.129 C 
HETATM    6  C   UNL     1      40.372 -11.970   5.780  1.00  0.00     0.101 C 
HETATM    7  N   UNL     1      41.157 -13.755   4.429  1.00  0.00    -0.284 N 
HETATM    8  C   UNL     1      40.535 -14.710   5.236  1.00  0.00     0.331 C 
HETATM    9  O   UNL     1      40.548 -15.918   5.012  1.00  0.00    -0.246 OA
HETATM   10  N   UNL     1      39.847 -14.217   6.322  1.00  0.00    -0.275 N 
HETATM   11  C   UNL     1      39.635 -12.897   6.616  1.00  0.00     0.262 C 
HETATM   12  O   UNL     1      38.885 -12.506   7.500  1.00  0.00    -0.267 OA
HETATM   13  H   UNL     1      42.390 -11.459   3.398  1.00  0.00     0.170 HD
HETATM   14  H   UNL     1      39.353 -14.897   6.879  1.00  0.00     0.173 HD
ENDROOT
BRANCH   1  15
HETATM   15  N   UNL     1      40.658  -9.957   7.200  1.00  0.00    -0.327 N 
HETATM   16  C   UNL     1      41.746 -10.358   7.940  1.00  0.00     0.253 C 
HETATM   17  O   UNL     1      42.607 -11.108   7.498  1.00  0.00    -0.268 OA
HETATM   18  H   UNL     1      39.843  -9.668   7.732  1.00  0.00     0.164 HD
BRANCH  16  19
HETATM   19  C   UNL     1      41.785  -9.873   9.353  1.00  0.00     0.032 A 
HETATM   20  C   UNL     1      40.758  -9.096   9.898  1.00  0.00     0.017 A 
HETATM   21  C   UNL     1      40.809  -8.700  11.240  1.00  0.00     0.009 A 
HETATM   22  C   UNL     1      41.884  -9.058  12.076  1.00  0.00    -0.051 A 
HETATM   23  C   UNL     1      42.925  -9.803  11.498  1.00  0.00     0.009 A 
HETATM   24  C   UNL     1      42.879 -10.203  10.153  1.00  0.00     0.017 A 
BRANCH  22  25
HETATM   25  C   UNL     1      41.892  -8.616  13.552  1.00  0.00    -0.024 C 
HETATM   26  C   UNL     1      42.587  -9.686  14.425  1.00  0.00     0.019 C 
HETATM   27  C   UNL     1      40.439  -8.437  14.038  1.00  0.00     0.019 C 
HETATM   28  C   UNL     1      42.634  -7.284  13.801  1.00  0.00     0.019 C 
ENDBRANCH  22  25
ENDBRANCH  16  19
ENDBRANCH   1  15
BRANCH   1  29
HETATM   29  C   UNL     1      39.056  -9.902   5.274  1.00  0.00     0.426 C 
HETATM   30  F   UNL     1      38.372  -9.207   6.217  1.00  0.00    -0.167 F 
HETATM   31  F   UNL     1      39.286  -9.033   4.263  1.00  0.00    -0.167 F 
HETATM   32  F   UNL     1      38.219 -10.858   4.807  1.00  0.00    -0.167 F 
ENDBRANCH   1  29
BRANCH   7  33
HETATM   33  C   UNL     1      41.760 -14.196   3.174  1.00  0.00     0.140 C 
BRANCH  33  34
HETATM   34  C   UNL     1      43.232 -14.589   3.307  1.00  0.00     0.059 C 
BRANCH  34  35
HETATM   35  C   UNL     1      43.424 -16.037   2.918  1.00  0.00    -0.057 A 
HETATM   36  C   UNL     1      43.409 -16.420   1.569  1.00  0.00     0.007 A 
HETATM   37  C   UNL     1      43.514 -17.767   1.217  1.00  0.00     0.001 A 
HETATM   38  C   UNL     1      43.637 -18.741   2.205  1.00  0.00     0.000 A 
HETATM   39  C   UNL     1      43.659 -18.370   3.548  1.00  0.00     0.001 A 
HETATM   40  C   UNL     1      43.550 -17.024   3.905  1.00  0.00     0.007 A 
ENDBRANCH  34  35
ENDBRANCH  33  34
ENDBRANCH   7  33
TORSDOF 7
ENDMDL
MODEL 8
REMARK VINA RESULT:      -8.1      5.330      9.262
REMARK  7 active torsions:
REMARK  status: ('A' for Active; 'I' for Inactive)
REMARK    1  A    between atoms: C_2  and  C_3 
REMARK    2  A    between atoms: C_6  and  C_7 
REMARK       I    between atoms: C_7  and  N_8 
REMARK    3  A    between atoms: N_8  and  C_9 
REMARK    4  A    between atoms: C_9  and  C_10 
REMARK    5  A    between atoms: N_19  and  C_20 
REMARK    6  A    between atoms: C_20  and  C_21 
REMARK    7  A    between atoms: C_21  and  C_22 
ROOT
HETATM    1  C   UNL     1      40.139 -13.574   1.154  1.00  0.00     0.249 C 
HETATM    2  C   UNL     1      40.022 -12.100   1.594  1.00  0.00     0.266 C 
HETATM    3  O   UNL     1      39.600 -11.666   2.652  1.00  0.00    -0.270 OA
HETATM    4  N   UNL     1      40.465 -11.312   0.533  1.00  0.00    -0.310 N 
HETATM    5  C   UNL     1      40.982 -12.075  -0.460  1.00  0.00     0.129 C 
HETATM    6  C   UNL     1      40.877 -13.361  -0.130  1.00  0.00     0.101 C 
HETATM    7  N   UNL     1      41.510 -11.651  -1.648  1.00  0.00    -0.284 N 
HETATM    8  C   UNL     1      42.084 -12.571  -2.529  1.00  0.00     0.331 C 
HETATM    9  O   UNL     1      42.588 -12.272  -3.608  1.00  0.00    -0.246 OA
HETATM   10  N   UNL     1      42.027 -13.889  -2.135  1.00  0.00    -0.275 N 
HETATM   11  C   UNL     1      41.381 -14.378  -1.031  1.00  0.00     0.262 C 
HETATM   12  O   UNL     1      41.221 -15.570  -0.806  1.00  0.00    -0.267 OA
HETATM   13  H   UNL     1      40.496 -10.305   0.591  1.00  0.00     0.170 HD
HETATM   14  H   UNL     1      42.393 -14.563  -2.790  1.00  0.00     0.173 HD
ENDROOT
BRANCH   1  15
HETATM   15  N   UNL     1      40.840 -14.470   2.087  1.00  0.00    -0.327 N 
HETATM   16  C   UNL     1      42.119 -14.244   2.537  1.00  0.00     0.253 C 
HETATM   17  O   UNL     1      42.743 -13.224   2.270  1.00  0.00    -0.268 OA
HETATM   18  H   UNL     1      40.556 -15.444   2.031  1.00  0.00     0.164 HD
BRANCH  16  19
HETATM   19  C   UNL     1      42.737 -15.353   3.324  1.00  0.00     0.032 A 
HETATM   20  C   UNL     1      42.969 -15.247   4.699  1.00  0.00     0.017 A 
HETATM   21  C   UNL     1      43.507 -16.326   5.410  1.00  0.00     0.009 A 
HETATM   22  C   UNL     1      43.837 -17.538   4.775  1.00  0.00    -0.051 A 
HETATM   23  C   UNL     1      43.637 -17.610   3.386  1.00  0.00     0.009 A 
HETATM   24  C   UNL     1      43.096 -16.532   2.669  1.00  0.00     0.017 A 
BRANCH  22  25
HETATM   25  C   UNL     1      44.411 -18.708   5.598  1.00  0.00    -0.024 C 
HETATM   26  C   UNL     1      43.299 -19.348   6.461  1.00  0.00     0.019 C 
HETATM   27  C   UNL     1      45.525 -18.180   6.524  1.00  0.00     0.019 C 
HETATM   28  C   UNL     1      45.016 -19.838   4.737  1.00  0.00     0.019 C 
ENDBRANCH  22  25
ENDBRANCH  16  19
ENDBRANCH   1  15
BRANCH   1  29
HETATM   29  C   UNL     1      38.686 -14.005   0.893  1.00  0.00     0.426 C 
HETATM   30  F   UNL     1      38.388 -15.135   1.581  1.00  0.00    -0.167 F 
HETATM   31  F   UNL     1      37.794 -13.072   1.301  1.00  0.00    -0.167 F 
HETATM   32  F   UNL     1      38.437 -14.263  -0.412  1.00  0.00    -0.167 F 
ENDBRANCH   1  29
BRANCH   7  33
HETATM   33  C   UNL     1      41.389 -10.261  -2.081  1.00  0.00     0.140 C 
BRANCH  33  34
HETATM   34  C   UNL     1      40.309 -10.043  -3.143  1.00  0.00     0.059 C 
BRANCH  34  35
HETATM   35  C   UNL     1      38.957 -10.451  -2.604  1.00  0.00    -0.057 A 
HETATM   36  C   UNL     1      38.322  -9.683  -1.618  1.00  0.00     0.007 A 
HETATM   37  C   UNL     1      37.107 -10.101  -1.070  1.00  0.00     0.001 A 
HETATM   38  C   UNL     1      36.516 -11.285  -1.504  1.00  0.00     0.000 A 
HETATM   39  C   UNL     1      37.136 -12.052  -2.487  1.00  0.00     0.001 A 
HETATM   40  C   UNL     1      38.353 -11.640  -3.034  1.00  0.00     0.007 A 
ENDBRANCH  34  35
ENDBRANCH  33  34
ENDBRANCH   7  33
TORSDOF 7
ENDMDL
MODEL 9
REMARK VINA RESULT:      -8.1      4.424      9.378
REMARK  7 active torsions:
REMARK  status: ('A' for Active; 'I' for Inactive)
REMARK    1  A    between atoms: C_2  and  C_3 
REMARK    2  A    between atoms: C_6  and  C_7 
REMARK       I    between atoms: C_7  and  N_8 
REMARK    3  A    between atoms: N_8  and  C_9 
REMARK    4  A    between atoms: C_9  and  C_10 
REMARK    5  A    between atoms: N_19  and  C_20 
REMARK    6  A    between atoms: C_20  and  C_21 
REMARK    7  A    between atoms: C_21  and  C_22 
ROOT
HETATM    1  C   UNL     1      40.747 -14.512   1.723  1.00  0.00     0.249 C 
HETATM    2  C   UNL     1      41.005 -13.197   2.485  1.00  0.00     0.266 C 
HETATM    3  O   UNL     1      40.822 -12.970   3.670  1.00  0.00    -0.270 OA
HETATM    4  N   UNL     1      41.470 -12.263   1.561  1.00  0.00    -0.310 N 
HETATM    5  C   UNL     1      41.682 -12.836   0.352  1.00  0.00     0.129 C 
HETATM    6  C   UNL     1      41.347 -14.124   0.408  1.00  0.00     0.101 C 
HETATM    7  N   UNL     1      42.136 -12.233  -0.788  1.00  0.00    -0.284 N 
HETATM    8  C   UNL     1      42.384 -12.993  -1.933  1.00  0.00     0.331 C 
HETATM    9  O   UNL     1      42.801 -12.531  -2.992  1.00  0.00    -0.246 OA
HETATM   10  N   UNL     1      42.096 -14.336  -1.832  1.00  0.00    -0.275 N 
HETATM   11  C   UNL     1      41.503 -14.960  -0.766  1.00  0.00     0.262 C 
HETATM   12  O   UNL     1      41.121 -16.122  -0.782  1.00  0.00    -0.267 OA
HETATM   13  H   UNL     1      41.723 -11.324   1.831  1.00  0.00     0.170 HD
HETATM   14  H   UNL     1      42.224 -14.881  -2.671  1.00  0.00     0.173 HD
ENDROOT
BRANCH   1  15
HETATM   15  N   UNL     1      41.351 -15.723   2.303  1.00  0.00    -0.327 N 
HETATM   16  C   UNL     1      42.664 -15.795   2.705  1.00  0.00     0.253 C 
HETATM   17  O   UNL     1      43.411 -14.825   2.700  1.00  0.00    -0.268 OA
HETATM   18  H   UNL     1      40.935 -16.594   1.988  1.00  0.00     0.164 HD
BRANCH  16  19
HETATM   19  C   UNL     1      43.151 -17.153   3.091  1.00  0.00     0.032 A 
HETATM   20  C   UNL     1      43.568 -18.089   2.139  1.00  0.00     0.017 A 
HETATM   21  C   UNL     1      44.062 -19.335   2.543  1.00  0.00     0.009 A 
HETATM   22  C   UNL     1      44.150 -19.690   3.902  1.00  0.00    -0.051 A 
HETATM   23  C   UNL     1      43.687 -18.752   4.841  1.00  0.00     0.009 A 
HETATM   24  C   UNL     1      43.192 -17.501   4.442  1.00  0.00     0.017 A 
BRANCH  22  25
HETATM   25  C   UNL     1      44.718 -21.064   4.305  1.00  0.00    -0.024 C 
HETATM   26  C   UNL     1      44.166 -21.486   5.686  1.00  0.00     0.019 C 
HETATM   27  C   UNL     1      46.256 -20.977   4.383  1.00  0.00     0.019 C 
HETATM   28  C   UNL     1      44.365 -22.198   3.316  1.00  0.00     0.019 C 
ENDBRANCH  22  25
ENDBRANCH  16  19
ENDBRANCH   1  15
BRANCH   1  29
HETATM   29  C   UNL     1      39.214 -14.598   1.629  1.00  0.00     0.426 C 
HETATM   30  F   UNL     1      38.776 -15.821   2.020  1.00  0.00    -0.167 F 
HETATM   31  F   UNL     1      38.601 -13.705   2.439  1.00  0.00    -0.167 F 
HETATM   32  F   UNL     1      38.749 -14.397   0.374  1.00  0.00    -0.167 F 
ENDBRANCH   1  29
BRANCH   7  33
HETATM   33  C   UNL     1      42.262 -10.780  -0.881  1.00  0.00     0.140 C 
BRANCH  33  34
HETATM   34  C   UNL     1      41.171 -10.124  -1.730  1.00  0.00     0.059 C 
BRANCH  34  35
HETATM   35  C   UNL     1      39.805 -10.536  -1.233  1.00  0.00    -0.057 A 
HETATM   36  C   UNL     1      39.333 -10.088   0.008  1.00  0.00     0.007 A 
HETATM   37  C   UNL     1      38.101 -10.528   0.497  1.00  0.00     0.001 A 
HETATM   38  C   UNL     1      37.330 -11.415  -0.250  1.00  0.00     0.000 A 
HETATM   39  C   UNL     1      37.787 -11.862  -1.488  1.00  0.00     0.001 A 
HETATM   40  C   UNL     1      39.020 -11.428  -1.978  1.00  0.00     0.007 A 
ENDBRANCH  34  35
ENDBRANCH  33  34
ENDBRANCH   7  33
TORSDOF 7
ENDMDL
MODEL 10
REMARK VINA RESULT:      -8.0      4.416      5.466
REMARK  7 active torsions:
REMARK  status: ('A' for Active; 'I' for Inactive)
REMARK    1  A    between atoms: C_2  and  C_3 
REMARK    2  A    between atoms: C_6  and  C_7 
REMARK       I    between atoms: C_7  and  N_8 
REMARK    3  A    between atoms: N_8  and  C_9 
REMARK    4  A    between atoms: C_9  and  C_10 
REMARK    5  A    between atoms: N_19  and  C_20 
REMARK    6  A    between atoms: C_20  and  C_21 
REMARK    7  A    between atoms: C_21  and  C_22 
ROOT
HETATM    1  C   UNL     1      40.865 -13.898   3.143  1.00  0.00     0.249 C 
HETATM    2  C   UNL     1      40.347 -14.753   4.317  1.00  0.00     0.266 C 
HETATM    3  O   UNL     1      39.600 -14.413   5.219  1.00  0.00    -0.270 OA
HETATM    4  N   UNL     1      40.918 -16.019   4.195  1.00  0.00    -0.310 N 
HETATM    5  C   UNL     1      41.607 -16.134   3.034  1.00  0.00     0.129 C 
HETATM    6  C   UNL     1      41.555 -14.980   2.372  1.00  0.00     0.101 C 
HETATM    7  N   UNL     1      42.293 -17.225   2.577  1.00  0.00    -0.284 N 
HETATM    8  C   UNL     1      42.879 -17.205   1.309  1.00  0.00     0.331 C 
HETATM    9  O   UNL     1      43.502 -18.145   0.821  1.00  0.00    -0.246 OA
HETATM   10  N   UNL     1      42.753 -16.024   0.613  1.00  0.00    -0.275 N 
HETATM   11  C   UNL     1      42.208 -14.859   1.084  1.00  0.00     0.262 C 
HETATM   12  O   UNL     1      42.261 -13.792   0.489  1.00  0.00    -0.267 OA
HETATM   13  H   UNL     1      40.714 -16.763   4.846  1.00  0.00     0.170 HD
HETATM   14  H   UNL     1      43.219 -15.985  -0.281  1.00  0.00     0.173 HD
ENDROOT
BRANCH   1  15
HETATM   15  N   UNL     1      39.839 -13.190   2.360  1.00  0.00    -0.327 N 
HETATM   16  C   UNL     1      38.825 -13.831   1.688  1.00  0.00     0.253 C 
HETATM   17  O   UNL     1      38.638 -15.039   1.767  1.00  0.00    -0.268 OA
HETATM   18  H   UNL     1      40.146 -12.308   1.963  1.00  0.00     0.164 HD
BRANCH  16  19
HETATM   19  C   UNL     1      37.992 -12.970   0.795  1.00  0.00     0.032 A 
HETATM   20  C   UNL     1      37.994 -13.124  -0.595  1.00  0.00     0.017 A 
HETATM   21  C   UNL     1      37.165 -12.329  -1.395  1.00  0.00     0.009 A 
HETATM   22  C   UNL     1      36.317 -11.353  -0.839  1.00  0.00    -0.051 A 
HETATM   23  C   UNL     1      36.361 -11.184   0.555  1.00  0.00     0.009 A 
HETATM   24  C   UNL     1      37.189 -11.980   1.363  1.00  0.00     0.017 A 
BRANCH  22  25
HETATM   25  C   UNL     1      35.407 -10.512  -1.754  1.00  0.00    -0.024 C 
HETATM   26  C   UNL     1      35.849  -9.031  -1.730  1.00  0.00     0.019 C 
HETATM   27  C   UNL     1      33.951 -10.611  -1.255  1.00  0.00     0.019 C 
HETATM   28  C   UNL     1      35.424 -10.960  -3.233  1.00  0.00     0.019 C 
ENDBRANCH  22  25
ENDBRANCH  16  19
ENDBRANCH   1  15
BRANCH   1  29
HETATM   29  C   UNL     1      41.882 -12.945   3.792  1.00  0.00     0.426 C 
HETATM   30  F   UNL     1      41.907 -13.111   5.138  1.00  0.00    -0.167 F 
HETATM   31  F   UNL     1      43.144 -13.174   3.363  1.00  0.00    -0.167 F 
HETATM   32  F   UNL     1      41.603 -11.640   3.563  1.00  0.00    -0.167 F 
ENDBRANCH   1  29
BRANCH   7  33
HETATM   33  C   UNL     1      42.532 -18.386   3.431  1.00  0.00     0.140 C 
BRANCH  33  34
HETATM   34  C   UNL     1      43.930 -18.411   4.053  1.00  0.00     0.059 C 
BRANCH  34  35
HETATM   35  C   UNL     1      43.856 -18.055   5.519  1.00  0.00    -0.057 A 
HETATM   36  C   UNL     1      43.795 -19.061   6.494  1.00  0.00     0.007 A 
HETATM   37  C   UNL     1      43.653 -18.730   7.843  1.00  0.00     0.001 A 
HETATM   38  C   UNL     1      43.575 -17.394   8.230  1.00  0.00     0.000 A 
HETATM   39  C   UNL     1      43.640 -16.387   7.270  1.00  0.00     0.001 A 
HETATM   40  C   UNL     1      43.777 -16.714   5.919  1.00  0.00     0.007 A 
ENDBRANCH  34  35
ENDBRANCH  33  34
ENDBRANCH   7  33
TORSDOF 7
ENDMDL
