MODEL 1
REMARK VINA RESULT:      -7.6      0.000      0.000
REMARK  5 active torsions:
REMARK  status: ('A' for Active; 'I' for Inactive)
REMARK    1  A    between atoms: C_2  and  C_3 
REMARK    2  A    between atoms: C_3  and  N_4 
REMARK    3  A    between atoms: C_7  and  C_8 
REMARK    4  A    between atoms: C_8  and  O_9 
REMARK    5  A    between atoms: N_13  and  C_15 
ROOT
HETATM    1  N   UNL     1      42.527 -15.985   3.502  1.00  0.00    -0.067 N 
HETATM    2  H   UNL     1      42.652 -16.465   2.599  1.00  0.00     0.280 HD
HETATM    3  C   UNL     1      41.031 -15.919   3.669  1.00  0.00     0.242 C 
HETATM    4  C   UNL     1      40.548 -14.856   4.692  1.00  0.00     0.044 C 
HETATM    5  C   UNL     1      41.215 -13.448   4.474  1.00  0.00    -0.029 C 
HETATM    6  C   UNL     1      40.696 -12.776   3.161  1.00  0.00     0.037 C 
HETATM    7  C   UNL     1      39.264 -12.233   3.245  1.00  0.00     0.236 C 
HETATM    8  N   UNL     1      39.117 -11.252   4.390  1.00  0.00    -0.067 N 
HETATM    9  H   UNL     1      38.105 -11.070   4.467  1.00  0.00     0.280 HD
HETATM   10  C   UNL     1      39.486 -11.950   5.685  1.00  0.00     0.236 C 
HETATM   11  C   UNL     1      40.933 -12.440   5.631  1.00  0.00     0.037 C 
HETATM   12  C   UNL     1      42.754 -13.663   4.389  1.00  0.00     0.037 C 
HETATM   13  C   UNL     1      43.192 -14.656   3.316  1.00  0.00     0.236 C 
ENDROOT
BRANCH   4  14
HETATM   14  C   UNL     1      40.628 -15.374   6.144  1.00  0.00     0.171 C 
BRANCH  14  15
HETATM   15  O   UNL     1      39.965 -16.620   6.228  1.00  0.00    -0.400 OA
HETATM   16  H   UNL     1      40.148 -17.127   5.412  1.00  0.00     0.209 HD
ENDBRANCH  14  15
ENDBRANCH   4  14
BRANCH   1  17
HETATM   17  C   UNL     1      43.260 -16.930   4.446  1.00  0.00     0.273 C 
BRANCH  17  18
HETATM   18  C   UNL     1      43.621 -18.246   3.804  1.00  0.00    -0.033 A 
HETATM   19  C   UNL     1      43.147 -18.575   2.523  1.00  0.00     0.010 A 
HETATM   20  C   UNL     1      43.455 -19.812   1.947  1.00  0.00     0.024 A 
HETATM   21  C   UNL     1      44.247 -20.723   2.642  1.00  0.00     0.034 A 
HETATM   22  C   UNL     1      44.740 -20.405   3.903  1.00  0.00     0.024 A 
HETATM   23 CL   UNL     1      44.614 -22.246   1.938  1.00  0.00    -0.084 Cl
HETATM   24  C   UNL     1      44.431 -19.171   4.481  1.00  0.00     0.010 A 
ENDBRANCH  17  18
ENDBRANCH   1  17
BRANCH   8  25
HETATM   25  C   UNL     1      39.762  -9.852   4.160  1.00  0.00     0.192 C 
HETATM   26  C   UNL     1      39.252  -9.202   2.864  1.00  0.00     0.059 C 
HETATM   27  C   UNL     1      37.805  -8.746   2.991  1.00  0.00     0.169 C 
HETATM   28  O   UNL     1      37.657  -7.883   4.109  1.00  0.00    -0.391 OA
HETATM   29  C   UNL     1      38.023  -8.458   5.355  1.00  0.00     0.169 C 
HETATM   30  C   UNL     1      39.481  -8.889   5.323  1.00  0.00     0.059 C 
ENDBRANCH   8  25
TORSDOF 5
ENDMDL
MODEL 2
REMARK VINA RESULT:      -7.5      4.222      9.146
REMARK  5 active torsions:
REMARK  status: ('A' for Active; 'I' for Inactive)
REMARK    1  A    between atoms: C_2  and  C_3 
REMARK    2  A    between atoms: C_3  and  N_4 
REMARK    3  A    between atoms: C_7  and  C_8 
REMARK    4  A    between atoms: C_8  and  O_9 
REMARK    5  A    between atoms: N_13  and  C_15 
ROOT
HETATM    1  N   UNL     1      41.126 -13.673   2.987  1.00  0.00    -0.067 N 
HETATM    2  H   UNL     1      40.631 -13.044   3.636  1.00  0.00     0.280 HD
HETATM    3  C   UNL     1      40.332 -14.952   3.050  1.00  0.00     0.242 C 
HETATM    4  C   UNL     1      41.097 -16.204   2.542  1.00  0.00     0.044 C 
HETATM    5  C   UNL     1      42.539 -16.333   3.158  1.00  0.00    -0.029 C 
HETATM    6  C   UNL     1      42.473 -16.687   4.680  1.00  0.00     0.037 C 
HETATM    7  C   UNL     1      42.071 -18.137   4.981  1.00  0.00     0.236 C 
HETATM    8  N   UNL     1      42.996 -19.116   4.288  1.00  0.00    -0.067 N 
HETATM    9  H   UNL     1      42.558 -20.041   4.413  1.00  0.00     0.280 HD
HETATM   10  C   UNL     1      42.950 -18.862   2.793  1.00  0.00     0.236 C 
HETATM   11  C   UNL     1      43.409 -17.438   2.482  1.00  0.00     0.037 C 
HETATM   12  C   UNL     1      43.260 -14.967   2.961  1.00  0.00     0.037 C 
HETATM   13  C   UNL     1      42.513 -13.772   3.545  1.00  0.00     0.236 C 
ENDROOT
BRANCH   4  14
HETATM   14  C   UNL     1      41.055 -16.323   1.004  1.00  0.00     0.171 C 
BRANCH  14  15
HETATM   15  O   UNL     1      40.508 -17.578   0.652  1.00  0.00    -0.400 OA
HETATM   16  H   UNL     1      41.240 -18.220   0.548  1.00  0.00     0.209 HD
ENDBRANCH  14  15
ENDBRANCH   4  14
BRANCH   1  17
HETATM   17  C   UNL     1      41.026 -12.892   1.683  1.00  0.00     0.273 C 
BRANCH  17  18
HETATM   18  C   UNL     1      39.616 -12.478   1.346  1.00  0.00    -0.033 A 
HETATM   19  C   UNL     1      38.918 -11.574   2.165  1.00  0.00     0.010 A 
HETATM   20  C   UNL     1      37.597 -11.220   1.869  1.00  0.00     0.024 A 
HETATM   21  C   UNL     1      36.969 -11.759   0.749  1.00  0.00     0.034 A 
HETATM   22  C   UNL     1      37.652 -12.641  -0.082  1.00  0.00     0.024 A 
HETATM   23 CL   UNL     1      35.343 -11.334   0.394  1.00  0.00    -0.084 Cl
HETATM   24  C   UNL     1      38.971 -12.997   0.213  1.00  0.00     0.010 A 
ENDBRANCH  17  18
ENDBRANCH   1  17
BRANCH   8  25
HETATM   25  C   UNL     1      44.416 -19.254   4.914  1.00  0.00     0.192 C 
HETATM   26  C   UNL     1      44.342 -19.608   6.408  1.00  0.00     0.059 C 
HETATM   27  C   UNL     1      43.877 -21.041   6.628  1.00  0.00     0.169 C 
HETATM   28  O   UNL     1      44.707 -21.943   5.913  1.00  0.00    -0.391 OA
HETATM   29  C   UNL     1      44.745 -21.729   4.509  1.00  0.00     0.169 C 
HETATM   30  C   UNL     1      45.257 -20.328   4.208  1.00  0.00     0.059 C 
ENDBRANCH   8  25
TORSDOF 5
ENDMDL
MODEL 3
REMARK VINA RESULT:      -7.5      2.301      2.826
REMARK  5 active torsions:
REMARK  status: ('A' for Active; 'I' for Inactive)
REMARK    1  A    between atoms: C_2  and  C_3 
REMARK    2  A    between atoms: C_3  and  N_4 
REMARK    3  A    between atoms: C_7  and  C_8 
REMARK    4  A    between atoms: C_8  and  O_9 
REMARK    5  A    between atoms: N_13  and  C_15 
ROOT
HETATM    1  N   UNL     1      42.060 -16.755   1.992  1.00  0.00    -0.067 N 
HETATM    2  H   UNL     1      42.072 -17.630   1.449  1.00  0.00     0.280 HD
HETATM    3  C   UNL     1      40.677 -16.722   2.589  1.00  0.00     0.242 C 
HETATM    4  C   UNL     1      40.220 -15.317   3.067  1.00  0.00     0.044 C 
HETATM    5  C   UNL     1      40.464 -14.194   1.991  1.00  0.00    -0.029 C 
HETATM    6  C   UNL     1      39.499 -14.363   0.772  1.00  0.00     0.037 C 
HETATM    7  C   UNL     1      38.043 -13.966   1.050  1.00  0.00     0.236 C 
HETATM    8  N   UNL     1      37.952 -12.541   1.556  1.00  0.00    -0.067 N 
HETATM    9  H   UNL     1      36.975 -12.423   1.864  1.00  0.00     0.280 HD
HETATM   10  C   UNL     1      38.777 -12.415   2.823  1.00  0.00     0.236 C 
HETATM   11  C   UNL     1      40.241 -12.750   2.538  1.00  0.00     0.037 C 
HETATM   12  C   UNL     1      41.943 -14.307   1.519  1.00  0.00     0.037 C 
HETATM   13  C   UNL     1      42.328 -15.681   0.982  1.00  0.00     0.236 C 
ENDROOT
BRANCH   4  14
HETATM   14  C   UNL     1      40.768 -14.977   4.469  1.00  0.00     0.171 C 
BRANCH  14  15
HETATM   15  O   UNL     1      39.713 -15.040   5.406  1.00  0.00    -0.400 OA
HETATM   16  H   UNL     1      39.520 -14.133   5.722  1.00  0.00     0.209 HD
ENDBRANCH  14  15
ENDBRANCH   4  14
BRANCH   1  17
HETATM   17  C   UNL     1      43.201 -16.996   2.972  1.00  0.00     0.273 C 
BRANCH  17  18
HETATM   18  C   UNL     1      43.630 -18.440   3.038  1.00  0.00    -0.033 A 
HETATM   19  C   UNL     1      43.430 -19.299   1.944  1.00  0.00     0.010 A 
HETATM   20  C   UNL     1      43.797 -20.647   2.022  1.00  0.00     0.024 A 
HETATM   21  C   UNL     1      44.375 -21.143   3.188  1.00  0.00     0.034 A 
HETATM   22  C   UNL     1      44.597 -20.301   4.274  1.00  0.00     0.024 A 
HETATM   23 CL   UNL     1      44.813 -22.800   3.287  1.00  0.00    -0.084 Cl
HETATM   24  C   UNL     1      44.229 -18.955   4.198  1.00  0.00     0.010 A 
ENDBRANCH  17  18
ENDBRANCH   1  17
BRANCH   8  25
HETATM   25  C   UNL     1      38.174 -11.434   0.482  1.00  0.00     0.192 C 
HETATM   26  C   UNL     1      37.138 -11.529  -0.649  1.00  0.00     0.059 C 
HETATM   27  C   UNL     1      35.754 -11.096  -0.187  1.00  0.00     0.169 C 
HETATM   28  O   UNL     1      35.807  -9.792   0.372  1.00  0.00    -0.391 OA
HETATM   29  C   UNL     1      36.678  -9.659   1.486  1.00  0.00     0.169 C 
HETATM   30  C   UNL     1      38.099 -10.023   1.084  1.00  0.00     0.059 C 
ENDBRANCH   8  25
TORSDOF 5
ENDMDL
MODEL 4
REMARK VINA RESULT:      -7.4      3.905      9.485
REMARK  5 active torsions:
REMARK  status: ('A' for Active; 'I' for Inactive)
REMARK    1  A    between atoms: C_2  and  C_3 
REMARK    2  A    between atoms: C_3  and  N_4 
REMARK    3  A    between atoms: C_7  and  C_8 
REMARK    4  A    between atoms: C_8  and  O_9 
REMARK    5  A    between atoms: N_13  and  C_15 
ROOT
HETATM    1  N   UNL     1      42.015 -13.505   4.183  1.00  0.00    -0.067 N 
HETATM    2  H   UNL     1      42.005 -12.990   5.075  1.00  0.00     0.280 HD
HETATM    3  C   UNL     1      41.093 -14.671   4.431  1.00  0.00     0.242 C 
HETATM    4  C   UNL     1      41.274 -15.851   3.438  1.00  0.00     0.044 C 
HETATM    5  C   UNL     1      42.779 -16.272   3.255  1.00  0.00    -0.029 C 
HETATM    6  C   UNL     1      43.335 -16.953   4.548  1.00  0.00     0.037 C 
HETATM    7  C   UNL     1      42.827 -18.381   4.787  1.00  0.00     0.236 C 
HETATM    8  N   UNL     1      43.119 -19.272   3.598  1.00  0.00    -0.067 N 
HETATM    9  H   UNL     1      42.606 -20.148   3.780  1.00  0.00     0.280 HD
HETATM   10  C   UNL     1      42.457 -18.683   2.367  1.00  0.00     0.236 C 
HETATM   11  C   UNL     1      43.005 -17.283   2.088  1.00  0.00     0.037 C 
HETATM   12  C   UNL     1      43.594 -14.984   2.939  1.00  0.00     0.037 C 
HETATM   13  C   UNL     1      43.451 -13.879   3.981  1.00  0.00     0.236 C 
ENDROOT
BRANCH   4  14
HETATM   14  C   UNL     1      40.520 -15.613   2.113  1.00  0.00     0.171 C 
BRANCH  14  15
HETATM   15  O   UNL     1      39.462 -16.544   2.009  1.00  0.00    -0.400 OA
HETATM   16  H   UNL     1      38.613 -16.062   2.076  1.00  0.00     0.209 HD
ENDBRANCH  14  15
ENDBRANCH   4  14
BRANCH   1  17
HETATM   17  C   UNL     1      41.499 -12.443   3.221  1.00  0.00     0.273 C 
BRANCH  17  18
HETATM   18  C   UNL     1      40.669 -11.383   3.898  1.00  0.00    -0.033 A 
HETATM   19  C   UNL     1      41.234 -10.540   4.871  1.00  0.00     0.010 A 
HETATM   20  C   UNL     1      40.450  -9.582   5.523  1.00  0.00     0.024 A 
HETATM   21  C   UNL     1      39.102  -9.452   5.201  1.00  0.00     0.034 A 
HETATM   22  C   UNL     1      38.531 -10.265   4.227  1.00  0.00     0.024 A 
HETATM   23 CL   UNL     1      38.139  -8.283   6.012  1.00  0.00    -0.084 Cl
HETATM   24  C   UNL     1      39.312 -11.224   3.577  1.00  0.00     0.010 A 
ENDBRANCH  17  18
ENDBRANCH   1  17
BRANCH   8  25
HETATM   25  C   UNL     1      44.608 -19.702   3.433  1.00  0.00     0.192 C 
HETATM   26  C   UNL     1      45.183 -20.256   4.746  1.00  0.00     0.059 C 
HETATM   27  C   UNL     1      44.607 -21.624   5.085  1.00  0.00     0.169 C 
HETATM   28  O   UNL     1      44.803 -22.522   4.002  1.00  0.00    -0.391 OA
HETATM   29  C   UNL     1      44.211 -22.113   2.778  1.00  0.00     0.169 C 
HETATM   30  C   UNL     1      44.782 -20.771   2.344  1.00  0.00     0.059 C 
ENDBRANCH   8  25
TORSDOF 5
ENDMDL
MODEL 5
REMARK VINA RESULT:      -7.3      2.705      3.732
REMARK  5 active torsions:
REMARK  status: ('A' for Active; 'I' for Inactive)
REMARK    1  A    between atoms: C_2  and  C_3 
REMARK    2  A    between atoms: C_3  and  N_4 
REMARK    3  A    between atoms: C_7  and  C_8 
REMARK    4  A    between atoms: C_8  and  O_9 
REMARK    5  A    between atoms: N_13  and  C_15 
ROOT
HETATM    1  N   UNL     1      42.334 -16.896   2.417  1.00  0.00    -0.067 N 
HETATM    2  H   UNL     1      43.049 -16.982   3.153  1.00  0.00     0.280 HD
HETATM    3  C   UNL     1      42.773 -15.689   1.629  1.00  0.00     0.242 C 
HETATM    4  C   UNL     1      41.655 -15.053   0.759  1.00  0.00     0.044 C 
HETATM    5  C   UNL     1      40.314 -14.829   1.551  1.00  0.00    -0.029 C 
HETATM    6  C   UNL     1      40.471 -13.694   2.615  1.00  0.00     0.037 C 
HETATM    7  C   UNL     1      40.520 -12.275   2.032  1.00  0.00     0.236 C 
HETATM    8  N   UNL     1      39.296 -11.990   1.185  1.00  0.00    -0.067 N 
HETATM    9  H   UNL     1      39.493 -11.094   0.714  1.00  0.00     0.280 HD
HETATM   10  C   UNL     1      39.225 -13.010   0.065  1.00  0.00     0.236 C 
HETATM   11  C   UNL     1      39.114 -14.422   0.640  1.00  0.00     0.037 C 
HETATM   12  C   UNL     1      39.952 -16.170   2.253  1.00  0.00     0.037 C 
HETATM   13  C   UNL     1      41.047 -16.719   3.163  1.00  0.00     0.236 C 
ENDROOT
BRANCH   4  14
HETATM   14  C   UNL     1      41.478 -15.792  -0.585  1.00  0.00     0.171 C 
BRANCH  14  15
HETATM   15  O   UNL     1      41.799 -14.911  -1.643  1.00  0.00    -0.400 OA
HETATM   16  H   UNL     1      41.774 -15.410  -2.484  1.00  0.00     0.209 HD
ENDBRANCH  14  15
ENDBRANCH   4  14
BRANCH   1  17
HETATM   17  C   UNL     1      42.473 -18.238   1.709  1.00  0.00     0.273 C 
BRANCH  17  18
HETATM   18  C   UNL     1      43.256 -19.250   2.506  1.00  0.00    -0.033 A 
HETATM   19  C   UNL     1      43.597 -20.495   1.949  1.00  0.00     0.010 A 
HETATM   20  C   UNL     1      44.292 -21.444   2.705  1.00  0.00     0.024 A 
HETATM   21  C   UNL     1      44.661 -21.154   4.016  1.00  0.00     0.034 A 
HETATM   22  C   UNL     1      44.348 -19.919   4.576  1.00  0.00     0.024 A 
HETATM   23 CL   UNL     1      45.504 -22.326   4.946  1.00  0.00    -0.084 Cl
HETATM   24  C   UNL     1      43.652 -18.970   3.823  1.00  0.00     0.010 A 
ENDBRANCH  17  18
ENDBRANCH   1  17
BRANCH   8  25
HETATM   25  C   UNL     1      37.976 -11.748   1.976  1.00  0.00     0.192 C 
HETATM   26  C   UNL     1      38.147 -10.652   3.040  1.00  0.00     0.059 C 
HETATM   27  C   UNL     1      38.271  -9.270   2.414  1.00  0.00     0.169 C 
HETATM   28  O   UNL     1      37.162  -9.013   1.565  1.00  0.00    -0.391 OA
HETATM   29  C   UNL     1      37.002  -9.939   0.500  1.00  0.00     0.169 C 
HETATM   30  C   UNL     1      36.816 -11.344   1.053  1.00  0.00     0.059 C 
ENDBRANCH   8  25
TORSDOF 5
ENDMDL
MODEL 6
REMARK VINA RESULT:      -7.3      2.600      3.332
REMARK  5 active torsions:
REMARK  status: ('A' for Active; 'I' for Inactive)
REMARK    1  A    between atoms: C_2  and  C_3 
REMARK    2  A    between atoms: C_3  and  N_4 
REMARK    3  A    between atoms: C_7  and  C_8 
REMARK    4  A    between atoms: C_8  and  O_9 
REMARK    5  A    between atoms: N_13  and  C_15 
ROOT
HETATM    1  N   UNL     1      42.188 -17.428   1.928  1.00  0.00    -0.067 N 
HETATM    2  H   UNL     1      41.731 -18.313   2.191  1.00  0.00     0.280 HD
HETATM    3  C   UNL     1      41.923 -16.523   3.104  1.00  0.00     0.242 C 
HETATM    4  C   UNL     1      42.087 -15.010   2.796  1.00  0.00     0.044 C 
HETATM    5  C   UNL     1      41.337 -14.567   1.486  1.00  0.00    -0.029 C 
HETATM    6  C   UNL     1      39.786 -14.610   1.682  1.00  0.00     0.037 C 
HETATM    7  C   UNL     1      39.220 -13.477   2.548  1.00  0.00     0.236 C 
HETATM    8  N   UNL     1      39.608 -12.121   1.996  1.00  0.00    -0.067 N 
HETATM    9  H   UNL     1      39.328 -11.441   2.720  1.00  0.00     0.280 HD
HETATM   10  C   UNL     1      41.121 -12.028   1.941  1.00  0.00     0.236 C 
HETATM   11  C   UNL     1      41.687 -13.117   1.029  1.00  0.00     0.037 C 
HETATM   12  C   UNL     1      41.757 -15.543   0.349  1.00  0.00     0.037 C 
HETATM   13  C   UNL     1      41.506 -17.016   0.660  1.00  0.00     0.236 C 
ENDROOT
BRANCH   4  14
HETATM   14  C   UNL     1      43.563 -14.564   2.861  1.00  0.00     0.171 C 
BRANCH  14  15
HETATM   15  O   UNL     1      43.703 -13.573   3.859  1.00  0.00    -0.400 OA
HETATM   16  H   UNL     1      44.462 -13.000   3.627  1.00  0.00     0.209 HD
ENDBRANCH  14  15
ENDBRANCH   4  14
BRANCH   1  17
HETATM   17  C   UNL     1      43.632 -17.879   1.749  1.00  0.00     0.273 C 
BRANCH  17  18
HETATM   18  C   UNL     1      43.991 -19.068   2.603  1.00  0.00    -0.033 A 
HETATM   19  C   UNL     1      44.355 -18.901   3.950  1.00  0.00     0.010 A 
HETATM   20  C   UNL     1      44.723 -20.004   4.729  1.00  0.00     0.024 A 
HETATM   21  C   UNL     1      44.720 -21.280   4.171  1.00  0.00     0.034 A 
HETATM   22  C   UNL     1      44.344 -21.465   2.844  1.00  0.00     0.024 A 
HETATM   23 CL   UNL     1      45.184 -22.631   5.125  1.00  0.00    -0.084 Cl
HETATM   24  C   UNL     1      43.979 -20.364   2.064  1.00  0.00     0.010 A 
ENDBRANCH  17  18
ENDBRANCH   1  17
BRANCH   8  25
HETATM   25  C   UNL     1      38.848 -11.679   0.710  1.00  0.00     0.192 C 
HETATM   26  C   UNL     1      37.330 -11.622   0.944  1.00  0.00     0.059 C 
HETATM   27  C   UNL     1      36.936 -10.450   1.832  1.00  0.00     0.169 C 
HETATM   28  O   UNL     1      37.433  -9.235   1.291  1.00  0.00    -0.391 OA
HETATM   29  C   UNL     1      38.845  -9.186   1.138  1.00  0.00     0.169 C 
HETATM   30  C   UNL     1      39.309 -10.300   0.213  1.00  0.00     0.059 C 
ENDBRANCH   8  25
TORSDOF 5
ENDMDL
MODEL 7
REMARK VINA RESULT:      -7.2      3.914      4.979
REMARK  5 active torsions:
REMARK  status: ('A' for Active; 'I' for Inactive)
REMARK    1  A    between atoms: C_2  and  C_3 
REMARK    2  A    between atoms: C_3  and  N_4 
REMARK    3  A    between atoms: C_7  and  C_8 
REMARK    4  A    between atoms: C_8  and  O_9 
REMARK    5  A    between atoms: N_13  and  C_15 
ROOT
HETATM    1  N   UNL     1      42.004 -16.923   3.544  1.00  0.00    -0.067 N 
HETATM    2  H   UNL     1      41.488 -17.596   4.129  1.00  0.00     0.280 HD
HETATM    3  C   UNL     1      41.249 -15.632   3.729  1.00  0.00     0.242 C 
HETATM    4  C   UNL     1      41.514 -14.573   2.624  1.00  0.00     0.044 C 
HETATM    5  C   UNL     1      41.397 -15.162   1.170  1.00  0.00    -0.029 C 
HETATM    6  C   UNL     1      39.914 -15.514   0.821  1.00  0.00     0.037 C 
HETATM    7  C   UNL     1      39.018 -14.299   0.545  1.00  0.00     0.236 C 
HETATM    8  N   UNL     1      39.592 -13.437  -0.561  1.00  0.00    -0.067 N 
HETATM    9  H   UNL     1      39.020 -12.579  -0.563  1.00  0.00     0.280 HD
HETATM   10  C   UNL     1      40.980 -12.979  -0.157  1.00  0.00     0.236 C 
HETATM   11  C   UNL     1      41.895 -14.184   0.061  1.00  0.00     0.037 C 
HETATM   12  C   UNL     1      42.276 -16.445   1.109  1.00  0.00     0.037 C 
HETATM   13  C   UNL     1      41.930 -17.495   2.161  1.00  0.00     0.236 C 
ENDROOT
BRANCH   4  14
HETATM   14  C   UNL     1      42.813 -13.782   2.882  1.00  0.00     0.171 C 
BRANCH  14  15
HETATM   15  O   UNL     1      42.482 -12.478   3.317  1.00  0.00    -0.400 OA
HETATM   16  H   UNL     1      41.517 -12.435   3.469  1.00  0.00     0.209 HD
ENDBRANCH  14  15
ENDBRANCH   4  14
BRANCH   1  17
HETATM   17  C   UNL     1      43.389 -16.980   4.176  1.00  0.00     0.273 C 
BRANCH  17  18
HETATM   18  C   UNL     1      43.875 -18.387   4.412  1.00  0.00    -0.033 A 
HETATM   19  C   UNL     1      44.337 -19.176   3.345  1.00  0.00     0.010 A 
HETATM   20  C   UNL     1      44.754 -20.494   3.563  1.00  0.00     0.024 A 
HETATM   21  C   UNL     1      44.721 -21.028   4.849  1.00  0.00     0.034 A 
HETATM   22  C   UNL     1      44.283 -20.254   5.920  1.00  0.00     0.024 A 
HETATM   23 CL   UNL     1      45.220 -22.650   5.114  1.00  0.00    -0.084 Cl
HETATM   24  C   UNL     1      43.865 -18.939   5.702  1.00  0.00     0.010 A 
ENDBRANCH  17  18
ENDBRANCH   1  17
BRANCH   8  25
HETATM   25  C   UNL     1      39.455 -14.017  -2.001  1.00  0.00     0.192 C 
HETATM   26  C   UNL     1      37.984 -14.095  -2.441  1.00  0.00     0.059 C 
HETATM   27  C   UNL     1      37.401 -12.716  -2.715  1.00  0.00     0.169 C 
HETATM   28  O   UNL     1      38.199 -12.024  -3.663  1.00  0.00    -0.391 OA
HETATM   29  C   UNL     1      39.552 -11.833  -3.274  1.00  0.00     0.169 C 
HETATM   30  C   UNL     1      40.221 -13.178  -3.036  1.00  0.00     0.059 C 
ENDBRANCH   8  25
TORSDOF 5
ENDMDL
MODEL 8
REMARK VINA RESULT:      -7.0      2.022      2.933
REMARK  5 active torsions:
REMARK  status: ('A' for Active; 'I' for Inactive)
REMARK    1  A    between atoms: C_2  and  C_3 
REMARK    2  A    between atoms: C_3  and  N_4 
REMARK    3  A    between atoms: C_7  and  C_8 
REMARK    4  A    between atoms: C_8  and  O_9 
REMARK    5  A    between atoms: N_13  and  C_15 
ROOT
HETATM    1  N   UNL     1      42.396 -16.220   4.066  1.00  0.00    -0.067 N 
HETATM    2  H   UNL     1      42.962 -16.848   4.654  1.00  0.00     0.280 HD
HETATM    3  C   UNL     1      43.225 -14.965   3.978  1.00  0.00     0.242 C 
HETATM    4  C   UNL     1      42.430 -13.702   3.552  1.00  0.00     0.044 C 
HETATM    5  C   UNL     1      41.097 -13.513   4.366  1.00  0.00    -0.029 C 
HETATM    6  C   UNL     1      41.393 -13.126   5.852  1.00  0.00     0.037 C 
HETATM    7  C   UNL     1      41.875 -11.683   6.051  1.00  0.00     0.236 C 
HETATM    8  N   UNL     1      40.887 -10.691   5.473  1.00  0.00    -0.067 N 
HETATM    9  H   UNL     1      41.365  -9.778   5.507  1.00  0.00     0.280 HD
HETATM   10  C   UNL     1      40.709 -10.981   3.994  1.00  0.00     0.236 C 
HETATM   11  C   UNL     1      40.170 -12.397   3.792  1.00  0.00     0.037 C 
HETATM   12  C   UNL     1      40.317 -14.859   4.312  1.00  0.00     0.037 C 
HETATM   13  C   UNL     1      41.108 -16.064   4.815  1.00  0.00     0.236 C 
ENDROOT
BRANCH   4  14
HETATM   14  C   UNL     1      42.252 -13.620   2.021  1.00  0.00     0.171 C 
BRANCH  14  15
HETATM   15  O   UNL     1      42.780 -12.393   1.559  1.00  0.00    -0.400 OA
HETATM   16  H   UNL     1      43.749 -12.489   1.456  1.00  0.00     0.209 HD
ENDBRANCH  14  15
ENDBRANCH   4  14
BRANCH   1  17
HETATM   17  C   UNL     1      42.283 -17.033   2.783  1.00  0.00     0.273 C 
BRANCH  17  18
HETATM   18  C   UNL     1      42.972 -18.371   2.867  1.00  0.00    -0.033 A 
HETATM   19  C   UNL     1      42.881 -19.295   1.811  1.00  0.00     0.010 A 
HETATM   20  C   UNL     1      43.492 -20.549   1.909  1.00  0.00     0.024 A 
HETATM   21  C   UNL     1      44.207 -20.886   3.057  1.00  0.00     0.034 A 
HETATM   22  C   UNL     1      44.322 -19.976   4.103  1.00  0.00     0.024 A 
HETATM   23 CL   UNL     1      44.946 -22.431   3.180  1.00  0.00    -0.084 Cl
HETATM   24  C   UNL     1      43.710 -18.724   4.008  1.00  0.00     0.010 A 
ENDBRANCH  17  18
ENDBRANCH   1  17
BRANCH   8  25
HETATM   25  C   UNL     1      39.578 -10.494   6.294  1.00  0.00     0.192 C 
HETATM   26  C   UNL     1      39.866 -10.391   7.800  1.00  0.00     0.059 C 
HETATM   27  C   UNL     1      40.539  -9.074   8.160  1.00  0.00     0.169 C 
HETATM   28  O   UNL     1      39.759  -7.981   7.696  1.00  0.00    -0.391 OA
HETATM   29  C   UNL     1      39.535  -7.965   6.294  1.00  0.00     0.169 C 
HETATM   30  C   UNL     1      38.812  -9.233   5.865  1.00  0.00     0.059 C 
ENDBRANCH   8  25
TORSDOF 5
ENDMDL
MODEL 9
REMARK VINA RESULT:      -6.9      4.587      9.450
REMARK  5 active torsions:
REMARK  status: ('A' for Active; 'I' for Inactive)
REMARK    1  A    between atoms: C_2  and  C_3 
REMARK    2  A    between atoms: C_3  and  N_4 
REMARK    3  A    between atoms: C_7  and  C_8 
REMARK    4  A    between atoms: C_8  and  O_9 
REMARK    5  A    between atoms: N_13  and  C_15 
ROOT
HETATM    1  N   UNL     1      39.582 -13.539   0.272  1.00  0.00    -0.067 N 
HETATM    2  H   UNL     1      39.171 -13.552  -0.672  1.00  0.00     0.280 HD
HETATM    3  C   UNL     1      41.064 -13.644   0.021  1.00  0.00     0.242 C 
HETATM    4  C   UNL     1      41.889 -14.108   1.252  1.00  0.00     0.044 C 
HETATM    5  C   UNL     1      41.282 -15.379   1.953  1.00  0.00    -0.029 C 
HETATM    6  C   UNL     1      41.445 -16.650   1.056  1.00  0.00     0.037 C 
HETATM    7  C   UNL     1      42.874 -17.205   0.989  1.00  0.00     0.236 C 
HETATM    8  N   UNL     1      43.407 -17.509   2.375  1.00  0.00    -0.067 N 
HETATM    9  H   UNL     1      44.408 -17.717   2.242  1.00  0.00     0.280 HD
HETATM   10  C   UNL     1      43.381 -16.238   3.201  1.00  0.00     0.236 C 
HETATM   11  C   UNL     1      41.950 -15.713   3.323  1.00  0.00     0.037 C 
HETATM   12  C   UNL     1      39.772 -15.100   2.210  1.00  0.00     0.037 C 
HETATM   13  C   UNL     1      38.980 -14.725   0.961  1.00  0.00     0.236 C 
ENDROOT
BRANCH   4  14
HETATM   14  C   UNL     1      42.195 -12.942   2.215  1.00  0.00     0.171 C 
BRANCH  14  15
HETATM   15  O   UNL     1      42.471 -11.779   1.461  1.00  0.00    -0.400 OA
HETATM   16  H   UNL     1      43.402 -11.814   1.161  1.00  0.00     0.209 HD
ENDBRANCH  14  15
ENDBRANCH   4  14
BRANCH   1  17
HETATM   17  C   UNL     1      39.090 -12.193   0.791  1.00  0.00     0.273 C 
BRANCH  17  18
HETATM   18  C   UNL     1      37.781 -11.764   0.177  1.00  0.00    -0.033 A 
HETATM   19  C   UNL     1      36.695 -11.392   0.988  1.00  0.00     0.010 A 
HETATM   20  C   UNL     1      35.472 -11.029   0.414  1.00  0.00     0.024 A 
HETATM   21  C   UNL     1      35.328 -11.026  -0.971  1.00  0.00     0.034 A 
HETATM   22  C   UNL     1      36.399 -11.373  -1.788  1.00  0.00     0.024 A 
HETATM   23 CL   UNL     1      33.822 -10.592  -1.673  1.00  0.00    -0.084 Cl
HETATM   24  C   UNL     1      37.621 -11.738  -1.217  1.00  0.00     0.010 A 
ENDBRANCH  17  18
ENDBRANCH   1  17
BRANCH   8  25
HETATM   25  C   UNL     1      42.817 -18.780   3.055  1.00  0.00     0.192 C 
HETATM   26  C   UNL     1      43.248 -20.063   2.326  1.00  0.00     0.059 C 
HETATM   27  C   UNL     1      44.721 -20.373   2.547  1.00  0.00     0.169 C 
HETATM   28  O   UNL     1      45.008 -20.434   3.937  1.00  0.00    -0.391 OA
HETATM   29  C   UNL     1      44.720 -19.244   4.656  1.00  0.00     0.169 C 
HETATM   30  C   UNL     1      43.244 -18.898   4.526  1.00  0.00     0.059 C 
ENDBRANCH   8  25
TORSDOF 5
ENDMDL
MODEL 10
REMARK VINA RESULT:      -6.9      4.355      5.564
REMARK  5 active torsions:
REMARK  status: ('A' for Active; 'I' for Inactive)
REMARK    1  A    between atoms: C_2  and  C_3 
REMARK    2  A    between atoms: C_3  and  N_4 
REMARK    3  A    between atoms: C_7  and  C_8 
REMARK    4  A    between atoms: C_8  and  O_9 
REMARK    5  A    between atoms: N_13  and  C_15 
ROOT
HETATM    1  N   UNL     1      41.659 -15.828   3.782  1.00  0.00    -0.067 N 
HETATM    2  H   UNL     1      42.008 -15.443   4.672  1.00  0.00     0.280 HD
HETATM    3  C   UNL     1      42.757 -15.514   2.799  1.00  0.00     0.242 C 
HETATM    4  C   UNL     1      42.315 -15.560   1.311  1.00  0.00     0.044 C 
HETATM    5  C   UNL     1      40.986 -14.761   1.041  1.00  0.00    -0.029 C 
HETATM    6  C   UNL     1      41.217 -13.220   1.181  1.00  0.00     0.037 C 
HETATM    7  C   UNL     1      41.993 -12.583   0.020  1.00  0.00     0.236 C 
HETATM    8  N   UNL     1      41.316 -12.862  -1.307  1.00  0.00    -0.067 N 
HETATM    9  H   UNL     1      41.984 -12.541  -2.026  1.00  0.00     0.280 HD
HETATM   10  C   UNL     1      41.222 -14.362  -1.505  1.00  0.00     0.236 C 
HETATM   11  C   UNL     1      40.398 -14.995  -0.384  1.00  0.00     0.037 C 
HETATM   12  C   UNL     1      39.931 -15.236   2.081  1.00  0.00     0.037 C 
HETATM   13  C   UNL     1      40.374 -15.100   3.535  1.00  0.00     0.236 C 
ENDROOT
BRANCH   4  14
HETATM   14  C   UNL     1      42.309 -16.999   0.754  1.00  0.00     0.171 C 
BRANCH  14  15
HETATM   15  O   UNL     1      43.643 -17.435   0.587  1.00  0.00    -0.400 OA
HETATM   16  H   UNL     1      43.796 -18.206   1.170  1.00  0.00     0.209 HD
ENDBRANCH  14  15
ENDBRANCH   4  14
BRANCH   1  17
HETATM   17  C   UNL     1      41.490 -17.299   4.141  1.00  0.00     0.273 C 
BRANCH  17  18
HETATM   18  C   UNL     1      42.284 -17.708   5.356  1.00  0.00    -0.033 A 
HETATM   19  C   UNL     1      43.160 -18.806   5.305  1.00  0.00     0.010 A 
HETATM   20  C   UNL     1      43.867 -19.203   6.445  1.00  0.00     0.024 A 
HETATM   21  C   UNL     1      43.712 -18.502   7.638  1.00  0.00     0.034 A 
HETATM   22  C   UNL     1      42.863 -17.401   7.700  1.00  0.00     0.024 A 
HETATM   23 CL   UNL     1      44.572 -18.999   9.039  1.00  0.00    -0.084 Cl
HETATM   24  C   UNL     1      42.154 -17.004   6.563  1.00  0.00     0.010 A 
ENDBRANCH  17  18
ENDBRANCH   1  17
BRANCH   8  25
HETATM   25  C   UNL     1      40.013 -12.052  -1.577  1.00  0.00     0.192 C 
HETATM   26  C   UNL     1      40.244 -10.541  -1.421  1.00  0.00     0.059 C 
HETATM   27  C   UNL     1      41.080  -9.975  -2.561  1.00  0.00     0.169 C 
HETATM   28  O   UNL     1      40.486 -10.292  -3.811  1.00  0.00    -0.391 OA
HETATM   29  C   UNL     1      40.331 -11.682  -4.059  1.00  0.00     0.169 C 
HETATM   30  C   UNL     1      39.455 -12.310  -2.985  1.00  0.00     0.059 C 
ENDBRANCH   8  25
TORSDOF 5
ENDMDL
