MODEL 1
REMARK VINA RESULT:      -7.5      0.000      0.000
REMARK  6 active torsions:
REMARK  status: ('A' for Active; 'I' for Inactive)
REMARK    1  A    between atoms: C_6  and  C_7 
REMARK       I    between atoms: C_7  and  N_8 
REMARK    2  A    between atoms: N_8  and  C_9 
REMARK    3  A    between atoms: C_9  and  C_10 
REMARK    4  A    between atoms: C_10  and  O_11 
REMARK    5  A    between atoms: C_10  and  C_12 
REMARK    6  A    between atoms: C_15  and  O_16 
ROOT
HETATM    1  C   UNL     1      41.406 -16.836   4.708  1.00  0.00     0.258 C 
HETATM    2  N   UNL     1      42.501 -16.461   5.445  1.00  0.00    -0.350 N 
HETATM    3  O   UNL     1      40.985 -17.992   4.717  1.00  0.00    -0.267 OA
HETATM    4  H   UNL     1      42.813 -15.496   5.344  1.00  0.00     0.163 HD
ENDROOT
BRANCH   2   5
HETATM    5  C   UNL     1      43.200 -17.344   6.376  1.00  0.00     0.114 C 
HETATM    6  C   UNL     1      43.308 -16.658   7.737  1.00  0.00     0.035 C 
BRANCH   5   7
HETATM    7  C   UNL     1      44.584 -17.866   5.870  1.00  0.00     0.173 C 
BRANCH   7   8
HETATM    8  O   UNL     1      45.506 -18.098   6.942  1.00  0.00    -0.389 OA
HETATM    9  H   UNL     1      46.353 -18.400   6.553  1.00  0.00     0.210 HD
ENDBRANCH   7   8
BRANCH   7  10
HETATM   10  C   UNL     1      44.538 -19.093   4.980  1.00  0.00    -0.028 A 
HETATM   11  C   UNL     1      44.240 -18.966   3.616  1.00  0.00     0.012 A 
HETATM   12  C   UNL     1      44.218 -20.089   2.783  1.00  0.00     0.037 A 
HETATM   13  C   UNL     1      44.511 -21.355   3.289  1.00  0.00     0.068 A 
HETATM   14  C   UNL     1      44.790 -21.497   4.648  1.00  0.00     0.037 A 
HETATM   15  C   UNL     1      44.802 -20.375   5.485  1.00  0.00     0.012 A 
BRANCH  13  16
HETATM   16  O   UNL     1      44.482 -22.365   2.368  1.00  0.00    -0.356 OA
HETATM   17  C   UNL     1      43.867 -22.060   1.122  1.00  0.00     0.210 C 
ENDBRANCH  13  16
ENDBRANCH   7  10
ENDBRANCH   5   7
ENDBRANCH   2   5
BRANCH   1  18
HETATM   18  C   UNL     1      40.791 -15.783   3.922  1.00  0.00     0.105 A 
HETATM   19  C   UNL     1      40.501 -15.787   2.531  1.00  0.00     0.071 A 
HETATM   20  C   UNL     1      40.780 -16.865   1.546  1.00  0.00     0.073 C 
HETATM   21  N   UNL     1      39.907 -14.657   2.130  1.00  0.00    -0.170 NA
HETATM   22  N   UNL     1      39.794 -13.910   3.250  1.00  0.00    -0.225 N 
HETATM   23  C   UNL     1      40.336 -14.553   4.366  1.00  0.00     0.168 A 
HETATM   24  C   UNL     1      39.216 -12.650   3.372  1.00  0.00     0.122 A 
HETATM   25  N   UNL     1      40.334 -13.971   5.612  1.00  0.00    -0.240 NA
HETATM   26  C   UNL     1      39.785 -12.794   5.685  1.00  0.00     0.120 A 
HETATM   27  C   UNL     1      39.174 -12.035   4.560  1.00  0.00     0.038 A 
ENDBRANCH   1  18
TORSDOF 6
ENDMDL
MODEL 2
REMARK VINA RESULT:      -7.4      4.015      5.224
REMARK  6 active torsions:
REMARK  status: ('A' for Active; 'I' for Inactive)
REMARK    1  A    between atoms: C_6  and  C_7 
REMARK       I    between atoms: C_7  and  N_8 
REMARK    2  A    between atoms: N_8  and  C_9 
REMARK    3  A    between atoms: C_9  and  C_10 
REMARK    4  A    between atoms: C_10  and  O_11 
REMARK    5  A    between atoms: C_10  and  C_12 
REMARK    6  A    between atoms: C_15  and  O_16 
ROOT
HETATM    1  C   UNL     1      41.385 -14.991  -0.139  1.00  0.00     0.258 C 
HETATM    2  N   UNL     1      41.955 -16.238  -0.186  1.00  0.00    -0.350 N 
HETATM    3  O   UNL     1      40.798 -14.585   0.862  1.00  0.00    -0.267 OA
HETATM    4  H   UNL     1      42.381 -16.515  -1.069  1.00  0.00     0.163 HD
ENDROOT
BRANCH   2   5
HETATM    5  C   UNL     1      42.015 -17.151   0.954  1.00  0.00     0.114 C 
HETATM    6  C   UNL     1      40.636 -17.235   1.607  1.00  0.00     0.035 C 
BRANCH   5   7
HETATM    7  C   UNL     1      43.138 -16.827   1.994  1.00  0.00     0.173 C 
BRANCH   7   8
HETATM    8  O   UNL     1      42.763 -15.777   2.894  1.00  0.00    -0.389 OA
HETATM    9  H   UNL     1      42.569 -14.978   2.362  1.00  0.00     0.210 HD
ENDBRANCH   7   8
BRANCH   7  10
HETATM   10  C   UNL     1      43.652 -18.008   2.794  1.00  0.00    -0.028 A 
HETATM   11  C   UNL     1      43.905 -19.234   2.162  1.00  0.00     0.012 A 
HETATM   12  C   UNL     1      44.402 -20.321   2.886  1.00  0.00     0.037 A 
HETATM   13  C   UNL     1      44.674 -20.202   4.248  1.00  0.00     0.068 A 
HETATM   14  C   UNL     1      44.409 -18.995   4.893  1.00  0.00     0.037 A 
HETATM   15  C   UNL     1      43.901 -17.908   4.171  1.00  0.00     0.012 A 
BRANCH  13  16
HETATM   16  O   UNL     1      45.181 -21.329   4.836  1.00  0.00    -0.356 OA
HETATM   17  C   UNL     1      44.711 -22.570   4.322  1.00  0.00     0.210 C 
ENDBRANCH  13  16
ENDBRANCH   7  10
ENDBRANCH   5   7
ENDBRANCH   2   5
BRANCH   1  18
HETATM   18  C   UNL     1      41.520 -14.197  -1.346  1.00  0.00     0.105 A 
HETATM   19  C   UNL     1      41.090 -14.524  -2.659  1.00  0.00     0.071 A 
HETATM   20  C   UNL     1      40.417 -15.769  -3.114  1.00  0.00     0.073 C 
HETATM   21  N   UNL     1      41.353 -13.551  -3.540  1.00  0.00    -0.170 NA
HETATM   22  N   UNL     1      41.945 -12.579  -2.814  1.00  0.00    -0.225 N 
HETATM   23  C   UNL     1      42.082 -12.938  -1.470  1.00  0.00     0.168 A 
HETATM   24  C   UNL     1      42.388 -11.338  -3.263  1.00  0.00     0.122 A 
HETATM   25  N   UNL     1      42.665 -12.099  -0.550  1.00  0.00    -0.240 NA
HETATM   26  C   UNL     1      43.066 -10.949  -1.008  1.00  0.00     0.120 A 
HETATM   27  C   UNL     1      42.954 -10.472  -2.413  1.00  0.00     0.038 A 
ENDBRANCH   1  18
TORSDOF 6
ENDMDL
MODEL 3
REMARK VINA RESULT:      -7.3      2.822      5.866
REMARK  6 active torsions:
REMARK  status: ('A' for Active; 'I' for Inactive)
REMARK    1  A    between atoms: C_6  and  C_7 
REMARK       I    between atoms: C_7  and  N_8 
REMARK    2  A    between atoms: N_8  and  C_9 
REMARK    3  A    between atoms: C_9  and  C_10 
REMARK    4  A    between atoms: C_10  and  O_11 
REMARK    5  A    between atoms: C_10  and  C_12 
REMARK    6  A    between atoms: C_15  and  O_16 
ROOT
HETATM    1  C   UNL     1      44.421 -20.088   4.969  1.00  0.00     0.258 C 
HETATM    2  N   UNL     1      43.930 -19.167   5.859  1.00  0.00    -0.350 N 
HETATM    3  O   UNL     1      45.039 -21.084   5.342  1.00  0.00    -0.267 OA
HETATM    4  H   UNL     1      43.471 -18.347   5.464  1.00  0.00     0.163 HD
ENDROOT
BRANCH   2   5
HETATM    5  C   UNL     1      43.993 -19.321   7.310  1.00  0.00     0.114 C 
HETATM    6  C   UNL     1      43.515 -20.722   7.691  1.00  0.00     0.035 C 
BRANCH   5   7
HETATM    7  C   UNL     1      43.251 -18.208   8.120  1.00  0.00     0.173 C 
BRANCH   7   8
HETATM    8  O   UNL     1      44.011 -17.752   9.246  1.00  0.00    -0.389 OA
HETATM    9  H   UNL     1      44.622 -18.472   9.510  1.00  0.00     0.210 HD
ENDBRANCH   7   8
BRANCH   7  10
HETATM   10  C   UNL     1      42.787 -17.009   7.315  1.00  0.00    -0.028 A 
HETATM   11  C   UNL     1      43.668 -15.951   7.051  1.00  0.00     0.012 A 
HETATM   12  C   UNL     1      43.257 -14.854   6.289  1.00  0.00     0.037 A 
HETATM   13  C   UNL     1      41.967 -14.798   5.762  1.00  0.00     0.068 A 
HETATM   14  C   UNL     1      41.075 -15.834   6.034  1.00  0.00     0.037 A 
HETATM   15  C   UNL     1      41.483 -16.930   6.805  1.00  0.00     0.012 A 
BRANCH  13  16
HETATM   16  O   UNL     1      41.697 -13.686   5.014  1.00  0.00    -0.356 OA
HETATM   17  C   UNL     1      42.794 -13.132   4.294  1.00  0.00     0.210 C 
ENDBRANCH  13  16
ENDBRANCH   7  10
ENDBRANCH   5   7
ENDBRANCH   2   5
BRANCH   1  18
HETATM   18  C   UNL     1      44.166 -19.803   3.569  1.00  0.00     0.105 A 
HETATM   19  C   UNL     1      44.159 -20.714   2.479  1.00  0.00     0.071 A 
HETATM   20  C   UNL     1      44.435 -22.174   2.511  1.00  0.00     0.073 C 
HETATM   21  N   UNL     1      43.862 -20.119   1.317  1.00  0.00    -0.170 NA
HETATM   22  N   UNL     1      43.662 -18.822   1.636  1.00  0.00    -0.225 N 
HETATM   23  C   UNL     1      43.853 -18.581   2.999  1.00  0.00     0.168 A 
HETATM   24  C   UNL     1      43.299 -17.787   0.779  1.00  0.00     0.122 A 
HETATM   25  N   UNL     1      43.707 -17.326   3.542  1.00  0.00    -0.240 NA
HETATM   26  C   UNL     1      43.368 -16.385   2.710  1.00  0.00     0.120 A 
HETATM   27  C   UNL     1      43.131 -16.544   1.249  1.00  0.00     0.038 A 
ENDBRANCH   1  18
TORSDOF 6
ENDMDL
MODEL 4
REMARK VINA RESULT:      -7.3      3.182      7.436
REMARK  6 active torsions:
REMARK  status: ('A' for Active; 'I' for Inactive)
REMARK    1  A    between atoms: C_6  and  C_7 
REMARK       I    between atoms: C_7  and  N_8 
REMARK    2  A    between atoms: N_8  and  C_9 
REMARK    3  A    between atoms: C_9  and  C_10 
REMARK    4  A    between atoms: C_10  and  O_11 
REMARK    5  A    between atoms: C_10  and  C_12 
REMARK    6  A    between atoms: C_15  and  O_16 
ROOT
HETATM    1  C   UNL     1      43.363 -17.132   3.432  1.00  0.00     0.258 C 
HETATM    2  N   UNL     1      42.151 -16.764   3.959  1.00  0.00    -0.350 N 
HETATM    3  O   UNL     1      43.938 -16.447   2.589  1.00  0.00    -0.267 OA
HETATM    4  H   UNL     1      41.721 -17.412   4.617  1.00  0.00     0.163 HD
ENDROOT
BRANCH   2   5
HETATM    5  C   UNL     1      41.482 -15.500   3.660  1.00  0.00     0.114 C 
HETATM    6  C   UNL     1      41.157 -14.779   4.968  1.00  0.00     0.035 C 
BRANCH   5   7
HETATM    7  C   UNL     1      40.230 -15.624   2.732  1.00  0.00     0.173 C 
BRANCH   7   8
HETATM    8  O   UNL     1      39.154 -14.776   3.149  1.00  0.00    -0.389 OA
HETATM    9  H   UNL     1      39.447 -13.846   3.053  1.00  0.00     0.210 HD
ENDBRANCH   7   8
BRANCH   7  10
HETATM   10  C   UNL     1      40.486 -15.411   1.252  1.00  0.00    -0.028 A 
HETATM   11  C   UNL     1      41.128 -16.402   0.496  1.00  0.00     0.012 A 
HETATM   12  C   UNL     1      41.346 -16.225  -0.873  1.00  0.00     0.037 A 
HETATM   13  C   UNL     1      40.914 -15.066  -1.518  1.00  0.00     0.068 A 
HETATM   14  C   UNL     1      40.293 -14.065  -0.774  1.00  0.00     0.037 A 
HETATM   15  C   UNL     1      40.082 -14.236   0.600  1.00  0.00     0.012 A 
BRANCH  13  16
HETATM   16  O   UNL     1      41.165 -15.026  -2.862  1.00  0.00    -0.356 OA
HETATM   17  C   UNL     1      40.907 -13.786  -3.511  1.00  0.00     0.210 C 
ENDBRANCH  13  16
ENDBRANCH   7  10
ENDBRANCH   5   7
ENDBRANCH   2   5
BRANCH   1  18
HETATM   18  C   UNL     1      43.910 -18.379   3.936  1.00  0.00     0.105 A 
HETATM   19  C   UNL     1      44.480 -18.630   5.212  1.00  0.00     0.071 A 
HETATM   20  C   UNL     1      44.671 -17.668   6.329  1.00  0.00     0.073 C 
HETATM   21  N   UNL     1      44.867 -19.903   5.357  1.00  0.00    -0.170 NA
HETATM   22  N   UNL     1      44.547 -20.497   4.187  1.00  0.00    -0.225 N 
HETATM   23  C   UNL     1      43.974 -19.598   3.283  1.00  0.00     0.168 A 
HETATM   24  C   UNL     1      44.722 -21.833   3.841  1.00  0.00     0.122 A 
HETATM   25  N   UNL     1      43.577 -19.987   2.025  1.00  0.00    -0.240 NA
HETATM   26  C   UNL     1      43.757 -21.243   1.739  1.00  0.00     0.120 A 
HETATM   27  C   UNL     1      44.346 -22.276   2.634  1.00  0.00     0.038 A 
ENDBRANCH   1  18
TORSDOF 6
ENDMDL
MODEL 5
REMARK VINA RESULT:      -7.3      2.197      3.017
REMARK  6 active torsions:
REMARK  status: ('A' for Active; 'I' for Inactive)
REMARK    1  A    between atoms: C_6  and  C_7 
REMARK       I    between atoms: C_7  and  N_8 
REMARK    2  A    between atoms: N_8  and  C_9 
REMARK    3  A    between atoms: C_9  and  C_10 
REMARK    4  A    between atoms: C_10  and  O_11 
REMARK    5  A    between atoms: C_10  and  C_12 
REMARK    6  A    between atoms: C_15  and  O_16 
ROOT
HETATM    1  C   UNL     1      41.995 -16.675   5.310  1.00  0.00     0.258 C 
HETATM    2  N   UNL     1      43.090 -17.326   5.820  1.00  0.00    -0.350 N 
HETATM    3  O   UNL     1      40.897 -16.727   5.861  1.00  0.00    -0.267 OA
HETATM    4  H   UNL     1      43.951 -17.271   5.277  1.00  0.00     0.163 HD
ENDROOT
BRANCH   2   5
HETATM    5  C   UNL     1      43.093 -18.041   7.094  1.00  0.00     0.114 C 
HETATM    6  C   UNL     1      43.220 -17.036   8.238  1.00  0.00     0.035 C 
BRANCH   5   7
HETATM    7  C   UNL     1      44.152 -19.187   7.200  1.00  0.00     0.173 C 
BRANCH   7   8
HETATM    8  O   UNL     1      43.978 -19.986   8.376  1.00  0.00    -0.389 OA
HETATM    9  H   UNL     1      44.540 -19.608   9.084  1.00  0.00     0.210 HD
ENDBRANCH   7   8
BRANCH   7  10
HETATM   10  C   UNL     1      44.258 -20.097   5.991  1.00  0.00    -0.028 A 
HETATM   11  C   UNL     1      44.364 -19.552   4.704  1.00  0.00     0.012 A 
HETATM   12  C   UNL     1      44.486 -20.382   3.586  1.00  0.00     0.037 A 
HETATM   13  C   UNL     1      44.524 -21.769   3.731  1.00  0.00     0.068 A 
HETATM   14  C   UNL     1      44.400 -22.323   5.004  1.00  0.00     0.037 A 
HETATM   15  C   UNL     1      44.267 -21.493   6.124  1.00  0.00     0.012 A 
BRANCH  13  16
HETATM   16  O   UNL     1      44.673 -22.468   2.565  1.00  0.00    -0.356 OA
HETATM   17  C   UNL     1      44.064 -21.899   1.411  1.00  0.00     0.210 C 
ENDBRANCH  13  16
ENDBRANCH   7  10
ENDBRANCH   5   7
ENDBRANCH   2   5
BRANCH   1  18
HETATM   18  C   UNL     1      42.224 -15.934   4.084  1.00  0.00     0.105 A 
HETATM   19  C   UNL     1      42.918 -14.704   3.924  1.00  0.00     0.071 A 
HETATM   20  C   UNL     1      43.555 -13.874   4.979  1.00  0.00     0.073 C 
HETATM   21  N   UNL     1      42.965 -14.307   2.646  1.00  0.00    -0.170 NA
HETATM   22  N   UNL     1      42.315 -15.272   1.960  1.00  0.00    -0.225 N 
HETATM   23  C   UNL     1      41.832 -16.279   2.802  1.00  0.00     0.168 A 
HETATM   24  C   UNL     1      42.113 -15.343   0.586  1.00  0.00     0.122 A 
HETATM   25  N   UNL     1      41.133 -17.358   2.315  1.00  0.00    -0.240 NA
HETATM   26  C   UNL     1      40.964 -17.388   1.026  1.00  0.00     0.120 A 
HETATM   27  C   UNL     1      41.449 -16.375   0.050  1.00  0.00     0.038 A 
ENDBRANCH   1  18
TORSDOF 6
ENDMDL
MODEL 6
REMARK VINA RESULT:      -7.3      2.648      8.105
REMARK  6 active torsions:
REMARK  status: ('A' for Active; 'I' for Inactive)
REMARK    1  A    between atoms: C_6  and  C_7 
REMARK       I    between atoms: C_7  and  N_8 
REMARK    2  A    between atoms: N_8  and  C_9 
REMARK    3  A    between atoms: C_9  and  C_10 
REMARK    4  A    between atoms: C_10  and  O_11 
REMARK    5  A    between atoms: C_10  and  C_12 
REMARK    6  A    between atoms: C_15  and  O_16 
ROOT
HETATM    1  C   UNL     1      43.699 -17.553   2.796  1.00  0.00     0.258 C 
HETATM    2  N   UNL     1      42.597 -16.815   3.150  1.00  0.00    -0.350 N 
HETATM    3  O   UNL     1      44.312 -17.339   1.752  1.00  0.00    -0.267 OA
HETATM    4  H   UNL     1      42.119 -17.088   4.008  1.00  0.00     0.163 HD
ENDROOT
BRANCH   2   5
HETATM    5  C   UNL     1      42.112 -15.661   2.397  1.00  0.00     0.114 C 
HETATM    6  C   UNL     1      42.956 -14.436   2.751  1.00  0.00     0.035 C 
BRANCH   5   7
HETATM    7  C   UNL     1      40.581 -15.380   2.542  1.00  0.00     0.173 C 
BRANCH   7   8
HETATM    8  O   UNL     1      39.819 -16.579   2.723  1.00  0.00    -0.389 OA
HETATM    9  H   UNL     1      39.252 -16.700   1.933  1.00  0.00     0.210 HD
ENDBRANCH   7   8
BRANCH   7  10
HETATM   10  C   UNL     1      40.196 -14.380   3.615  1.00  0.00    -0.028 A 
HETATM   11  C   UNL     1      39.681 -13.125   3.261  1.00  0.00     0.012 A 
HETATM   12  C   UNL     1      39.301 -12.206   4.243  1.00  0.00     0.037 A 
HETATM   13  C   UNL     1      39.409 -12.527   5.596  1.00  0.00     0.068 A 
HETATM   14  C   UNL     1      39.938 -13.763   5.962  1.00  0.00     0.037 A 
HETATM   15  C   UNL     1      40.329 -14.681   4.979  1.00  0.00     0.012 A 
BRANCH  13  16
HETATM   16  O   UNL     1      38.980 -11.554   6.456  1.00  0.00    -0.356 OA
HETATM   17  C   UNL     1      39.413 -11.675   7.806  1.00  0.00     0.210 C 
ENDBRANCH  13  16
ENDBRANCH   7  10
ENDBRANCH   5   7
ENDBRANCH   2   5
BRANCH   1  18
HETATM   18  C   UNL     1      44.080 -18.594   3.732  1.00  0.00     0.105 A 
HETATM   19  C   UNL     1      44.345 -18.465   5.121  1.00  0.00     0.071 A 
HETATM   20  C   UNL     1      44.315 -17.227   5.943  1.00  0.00     0.073 C 
HETATM   21  N   UNL     1      44.650 -19.636   5.694  1.00  0.00    -0.170 NA
HETATM   22  N   UNL     1      44.578 -20.539   4.692  1.00  0.00    -0.225 N 
HETATM   23  C   UNL     1      44.248 -19.944   3.472  1.00  0.00     0.168 A 
HETATM   24  C   UNL     1      44.782 -21.913   4.776  1.00  0.00     0.122 A 
HETATM   25  N   UNL     1      44.128 -20.677   2.315  1.00  0.00    -0.240 NA
HETATM   26  C   UNL     1      44.326 -21.957   2.434  1.00  0.00     0.120 A 
HETATM   27  C   UNL     1      44.669 -22.683   3.687  1.00  0.00     0.038 A 
ENDBRANCH   1  18
TORSDOF 6
ENDMDL
MODEL 7
REMARK VINA RESULT:      -7.1      3.877      4.793
REMARK  6 active torsions:
REMARK  status: ('A' for Active; 'I' for Inactive)
REMARK    1  A    between atoms: C_6  and  C_7 
REMARK       I    between atoms: C_7  and  N_8 
REMARK    2  A    between atoms: N_8  and  C_9 
REMARK    3  A    between atoms: C_9  and  C_10 
REMARK    4  A    between atoms: C_10  and  O_11 
REMARK    5  A    between atoms: C_10  and  C_12 
REMARK    6  A    between atoms: C_15  and  O_16 
ROOT
HETATM    1  C   UNL     1      41.135 -14.652   0.272  1.00  0.00     0.258 C 
HETATM    2  N   UNL     1      42.111 -14.737   1.233  1.00  0.00    -0.350 N 
HETATM    3  O   UNL     1      40.023 -15.152   0.433  1.00  0.00    -0.267 OA
HETATM    4  H   UNL     1      43.019 -14.337   1.001  1.00  0.00     0.163 HD
ENDROOT
BRANCH   2   5
HETATM    5  C   UNL     1      41.905 -15.323   2.555  1.00  0.00     0.114 C 
HETATM    6  C   UNL     1      41.065 -14.370   3.405  1.00  0.00     0.035 C 
BRANCH   5   7
HETATM    7  C   UNL     1      43.214 -15.764   3.289  1.00  0.00     0.173 C 
BRANCH   7   8
HETATM    8  O   UNL     1      43.256 -15.316   4.649  1.00  0.00    -0.389 OA
HETATM    9  H   UNL     1      42.564 -15.799   5.148  1.00  0.00     0.210 HD
ENDBRANCH   7   8
BRANCH   7  10
HETATM   10  C   UNL     1      43.524 -17.248   3.243  1.00  0.00    -0.028 A 
HETATM   11  C   UNL     1      43.505 -17.937   2.023  1.00  0.00     0.012 A 
HETATM   12  C   UNL     1      43.813 -19.299   1.968  1.00  0.00     0.037 A 
HETATM   13  C   UNL     1      44.164 -19.996   3.124  1.00  0.00     0.068 A 
HETATM   14  C   UNL     1      44.167 -19.326   4.347  1.00  0.00     0.037 A 
HETATM   15  C   UNL     1      43.849 -17.964   4.405  1.00  0.00     0.012 A 
BRANCH  13  16
HETATM   16  O   UNL     1      44.468 -21.315   2.933  1.00  0.00    -0.356 OA
HETATM   17  C   UNL     1      43.985 -21.903   1.730  1.00  0.00     0.210 C 
ENDBRANCH  13  16
ENDBRANCH   7  10
ENDBRANCH   5   7
ENDBRANCH   2   5
BRANCH   1  18
HETATM   18  C   UNL     1      41.508 -13.939  -0.936  1.00  0.00     0.105 A 
HETATM   19  C   UNL     1      41.350 -14.361  -2.282  1.00  0.00     0.071 A 
HETATM   20  C   UNL     1      40.783 -15.645  -2.774  1.00  0.00     0.073 C 
HETATM   21  N   UNL     1      41.782 -13.447  -3.159  1.00  0.00    -0.170 NA
HETATM   22  N   UNL     1      42.216 -12.418  -2.398  1.00  0.00    -0.225 N 
HETATM   23  C   UNL     1      42.082 -12.683  -1.032  1.00  0.00     0.168 A 
HETATM   24  C   UNL     1      42.737 -11.205  -2.835  1.00  0.00     0.122 A 
HETATM   25  N   UNL     1      42.468 -11.775  -0.075  1.00  0.00    -0.240 NA
HETATM   26  C   UNL     1      42.951 -10.653  -0.523  1.00  0.00     0.120 A 
HETATM   27  C   UNL     1      43.122 -10.274  -1.952  1.00  0.00     0.038 A 
ENDBRANCH   1  18
TORSDOF 6
ENDMDL
MODEL 8
REMARK VINA RESULT:      -7.0      2.779      4.365
REMARK  6 active torsions:
REMARK  status: ('A' for Active; 'I' for Inactive)
REMARK    1  A    between atoms: C_6  and  C_7 
REMARK       I    between atoms: C_7  and  N_8 
REMARK    2  A    between atoms: N_8  and  C_9 
REMARK    3  A    between atoms: C_9  and  C_10 
REMARK    4  A    between atoms: C_10  and  O_11 
REMARK    5  A    between atoms: C_10  and  C_12 
REMARK    6  A    between atoms: C_15  and  O_16 
ROOT
HETATM    1  C   UNL     1      40.271 -15.411   1.734  1.00  0.00     0.258 C 
HETATM    2  N   UNL     1      41.134 -14.904   2.673  1.00  0.00    -0.350 N 
HETATM    3  O   UNL     1      39.820 -16.551   1.818  1.00  0.00    -0.267 OA
HETATM    4  H   UNL     1      41.498 -13.968   2.504  1.00  0.00     0.163 HD
ENDROOT
BRANCH   2   5
HETATM    5  C   UNL     1      41.514 -15.609   3.896  1.00  0.00     0.114 C 
HETATM    6  C   UNL     1      40.962 -14.856   5.106  1.00  0.00     0.035 C 
BRANCH   5   7
HETATM    7  C   UNL     1      43.044 -15.902   4.035  1.00  0.00     0.173 C 
BRANCH   7   8
HETATM    8  O   UNL     1      43.543 -15.595   5.342  1.00  0.00    -0.389 OA
HETATM    9  H   UNL     1      42.811 -15.718   5.982  1.00  0.00     0.210 HD
ENDBRANCH   7   8
BRANCH   7  10
HETATM   10  C   UNL     1      43.481 -17.303   3.651  1.00  0.00    -0.028 A 
HETATM   11  C   UNL     1      43.982 -18.179   4.625  1.00  0.00     0.012 A 
HETATM   12  C   UNL     1      44.364 -19.479   4.285  1.00  0.00     0.037 A 
HETATM   13  C   UNL     1      44.239 -19.937   2.974  1.00  0.00     0.068 A 
HETATM   14  C   UNL     1      43.762 -19.070   1.993  1.00  0.00     0.037 A 
HETATM   15  C   UNL     1      43.388 -17.764   2.329  1.00  0.00     0.012 A 
BRANCH  13  16
HETATM   16  O   UNL     1      44.623 -21.235   2.777  1.00  0.00    -0.356 OA
HETATM   17  C   UNL     1      44.066 -21.889   1.642  1.00  0.00     0.210 C 
ENDBRANCH  13  16
ENDBRANCH   7  10
ENDBRANCH   5   7
ENDBRANCH   2   5
BRANCH   1  18
HETATM   18  C   UNL     1      39.937 -14.513   0.644  1.00  0.00     0.105 A 
HETATM   19  C   UNL     1      39.206 -13.297   0.708  1.00  0.00     0.071 A 
HETATM   20  C   UNL     1      38.589 -12.666   1.904  1.00  0.00     0.073 C 
HETATM   21  N   UNL     1      39.098 -12.702  -0.487  1.00  0.00    -0.170 NA
HETATM   22  N   UNL     1      39.764 -13.513  -1.337  1.00  0.00    -0.225 N 
HETATM   23  C   UNL     1      40.280 -14.641  -0.691  1.00  0.00     0.168 A 
HETATM   24  C   UNL     1      39.969 -13.324  -2.700  1.00  0.00     0.122 A 
HETATM   25  N   UNL     1      40.988 -15.605  -1.368  1.00  0.00    -0.240 NA
HETATM   26  C   UNL     1      41.158 -15.393  -2.640  1.00  0.00     0.120 A 
HETATM   27  C   UNL     1      40.660 -14.223  -3.413  1.00  0.00     0.038 A 
ENDBRANCH   1  18
TORSDOF 6
ENDMDL
MODEL 9
REMARK VINA RESULT:      -7.0      3.560      7.823
REMARK  6 active torsions:
REMARK  status: ('A' for Active; 'I' for Inactive)
REMARK    1  A    between atoms: C_6  and  C_7 
REMARK       I    between atoms: C_7  and  N_8 
REMARK    2  A    between atoms: N_8  and  C_9 
REMARK    3  A    between atoms: C_9  and  C_10 
REMARK    4  A    between atoms: C_10  and  O_11 
REMARK    5  A    between atoms: C_10  and  C_12 
REMARK    6  A    between atoms: C_15  and  O_16 
ROOT
HETATM    1  C   UNL     1      42.946 -16.984   4.349  1.00  0.00     0.258 C 
HETATM    2  N   UNL     1      42.162 -17.268   3.260  1.00  0.00    -0.350 N 
HETATM    3  O   UNL     1      43.276 -15.832   4.627  1.00  0.00    -0.267 OA
HETATM    4  H   UNL     1      41.974 -18.252   3.074  1.00  0.00     0.163 HD
ENDROOT
BRANCH   2   5
HETATM    5  C   UNL     1      41.562 -16.251   2.399  1.00  0.00     0.114 C 
HETATM    6  C   UNL     1      40.121 -16.647   2.078  1.00  0.00     0.035 C 
BRANCH   5   7
HETATM    7  C   UNL     1      42.381 -15.919   1.109  1.00  0.00     0.173 C 
BRANCH   7   8
HETATM    8  O   UNL     1      42.921 -17.091   0.487  1.00  0.00    -0.389 OA
HETATM    9  H   UNL     1      43.106 -17.748   1.190  1.00  0.00     0.210 HD
ENDBRANCH   7   8
BRANCH   7  10
HETATM   10  C   UNL     1      41.654 -15.092   0.065  1.00  0.00    -0.028 A 
HETATM   11  C   UNL     1      41.237 -15.680  -1.137  1.00  0.00     0.012 A 
HETATM   12  C   UNL     1      40.545 -14.932  -2.094  1.00  0.00     0.037 A 
HETATM   13  C   UNL     1      40.240 -13.591  -1.863  1.00  0.00     0.068 A 
HETATM   14  C   UNL     1      40.667 -12.990  -0.680  1.00  0.00     0.037 A 
HETATM   15  C   UNL     1      41.369 -13.735   0.275  1.00  0.00     0.012 A 
BRANCH  13  16
HETATM   16  O   UNL     1      39.538 -12.978  -2.864  1.00  0.00    -0.356 OA
HETATM   17  C   UNL     1      40.302 -12.205  -3.784  1.00  0.00     0.210 C 
ENDBRANCH  13  16
ENDBRANCH   7  10
ENDBRANCH   5   7
ENDBRANCH   2   5
BRANCH   1  18
HETATM   18  C   UNL     1      43.358 -18.130   5.139  1.00  0.00     0.105 A 
HETATM   19  C   UNL     1      43.293 -18.288   6.548  1.00  0.00     0.071 A 
HETATM   20  C   UNL     1      42.805 -17.307   7.553  1.00  0.00     0.073 C 
HETATM   21  N   UNL     1      43.737 -19.485   6.950  1.00  0.00    -0.170 NA
HETATM   22  N   UNL     1      44.086 -20.123   5.811  1.00  0.00    -0.225 N 
HETATM   23  C   UNL     1      43.887 -19.325   4.681  1.00  0.00     0.168 A 
HETATM   24  C   UNL     1      44.583 -21.416   5.685  1.00  0.00     0.122 A 
HETATM   25  N   UNL     1      44.182 -19.772   3.415  1.00  0.00    -0.240 NA
HETATM   26  C   UNL     1      44.645 -20.986   3.338  1.00  0.00     0.120 A 
HETATM   27  C   UNL     1      44.881 -21.913   4.477  1.00  0.00     0.038 A 
ENDBRANCH   1  18
TORSDOF 6
ENDMDL
MODEL 10
REMARK VINA RESULT:      -6.9      2.822      6.836
REMARK  6 active torsions:
REMARK  status: ('A' for Active; 'I' for Inactive)
REMARK    1  A    between atoms: C_6  and  C_7 
REMARK       I    between atoms: C_7  and  N_8 
REMARK    2  A    between atoms: N_8  and  C_9 
REMARK    3  A    between atoms: C_9  and  C_10 
REMARK    4  A    between atoms: C_10  and  O_11 
REMARK    5  A    between atoms: C_10  and  C_12 
REMARK    6  A    between atoms: C_15  and  O_16 
ROOT
HETATM    1  C   UNL     1      43.201 -17.239   4.735  1.00  0.00     0.258 C 
HETATM    2  N   UNL     1      41.847 -17.018   4.698  1.00  0.00    -0.350 N 
HETATM    3  O   UNL     1      43.961 -16.496   5.353  1.00  0.00    -0.267 OA
HETATM    4  H   UNL     1      41.294 -17.654   4.124  1.00  0.00     0.163 HD
ENDROOT
BRANCH   2   5
HETATM    5  C   UNL     1      41.171 -15.968   5.456  1.00  0.00     0.114 C 
HETATM    6  C   UNL     1      40.390 -16.600   6.608  1.00  0.00     0.035 C 
BRANCH   5   7
HETATM    7  C   UNL     1      40.279 -15.011   4.599  1.00  0.00     0.173 C 
BRANCH   7   8
HETATM    8  O   UNL     1      40.092 -13.735   5.221  1.00  0.00    -0.389 OA
HETATM    9  H   UNL     1      39.727 -13.885   6.118  1.00  0.00     0.210 HD
ENDBRANCH   7   8
BRANCH   7  10
HETATM   10  C   UNL     1      40.728 -14.805   3.165  1.00  0.00    -0.028 A 
HETATM   11  C   UNL     1      40.100 -15.498   2.121  1.00  0.00     0.012 A 
HETATM   12  C   UNL     1      40.491 -15.296   0.794  1.00  0.00     0.037 A 
HETATM   13  C   UNL     1      41.502 -14.388   0.481  1.00  0.00     0.068 A 
HETATM   14  C   UNL     1      42.148 -13.707   1.512  1.00  0.00     0.037 A 
HETATM   15  C   UNL     1      41.765 -13.916   2.842  1.00  0.00     0.012 A 
BRANCH  13  16
HETATM   16  O   UNL     1      41.772 -14.262  -0.853  1.00  0.00    -0.356 OA
HETATM   17  C   UNL     1      40.710 -14.592  -1.742  1.00  0.00     0.210 C 
ENDBRANCH  13  16
ENDBRANCH   7  10
ENDBRANCH   5   7
ENDBRANCH   2   5
BRANCH   1  18
HETATM   18  C   UNL     1      43.665 -18.398   3.995  1.00  0.00     0.105 A 
HETATM   19  C   UNL     1      43.903 -18.504   2.599  1.00  0.00     0.071 A 
HETATM   20  C   UNL     1      43.712 -17.458   1.560  1.00  0.00     0.073 C 
HETATM   21  N   UNL     1      44.352 -19.715   2.248  1.00  0.00    -0.170 NA
HETATM   22  N   UNL     1      44.421 -20.407   3.406  1.00  0.00    -0.225 N 
HETATM   23  C   UNL     1      43.995 -19.645   4.498  1.00  0.00     0.168 A 
HETATM   24  C   UNL     1      44.858 -21.715   3.585  1.00  0.00     0.122 A 
HETATM   25  N   UNL     1      43.976 -20.153   5.775  1.00  0.00    -0.240 NA
HETATM   26  C   UNL     1      44.392 -21.379   5.902  1.00  0.00     0.120 A 
HETATM   27  C   UNL     1      44.873 -22.264   4.807  1.00  0.00     0.038 A 
ENDBRANCH   1  18
TORSDOF 6
ENDMDL
