MODEL 1
REMARK VINA RESULT:      -9.7      0.000      0.000
REMARK  4 active torsions:
REMARK  status: ('A' for Active; 'I' for Inactive)
REMARK    1  A    between atoms: C_7  and  C_8 
REMARK    2  A    between atoms: N_9  and  N_10 
REMARK       I    between atoms: N_10  and  C_11 
REMARK    3  A    between atoms: C_11  and  C_12 
REMARK    4  A    between atoms: C_16  and  C_17 
ROOT
HETATM    1  N   UNL     1      44.413 -14.516   7.465  1.00  0.00    -0.242 N 
HETATM    2  C   UNL     1      45.280 -13.433   7.424  1.00  0.00     0.289 C 
HETATM    3  O   UNL     1      46.211 -13.322   6.632  1.00  0.00    -0.264 OA
HETATM    4  H   UNL     1      43.662 -14.547   8.140  1.00  0.00     0.192 HD
ENDROOT
BRANCH   1   5
HETATM    5  N   UNL     1      44.578 -15.558   6.597  1.00  0.00    -0.183 NA
HETATM    6  C   UNL     1      43.558 -16.339   6.448  1.00  0.00     0.153 C 
BRANCH   6   7
HETATM    7  C   UNL     1      43.627 -17.481   5.555  1.00  0.00     0.018 A 
HETATM    8  C   UNL     1      43.715 -18.821   5.914  1.00  0.00     0.018 A 
HETATM    9  C   UNL     1      43.763 -19.477   7.250  1.00  0.00     0.069 C 
HETATM   10  N   UNL     1      43.755 -19.561   4.760  1.00  0.00    -0.358 N 
HETATM   11  H   UNL     1      43.818 -20.570   4.720  1.00  0.00     0.166 HD
HETATM   12  C   UNL     1      43.696 -18.745   3.657  1.00  0.00     0.043 A 
HETATM   13  C   UNL     1      43.616 -17.433   4.121  1.00  0.00     0.004 A 
HETATM   14  C   UNL     1      43.708 -19.072   2.296  1.00  0.00     0.030 A 
HETATM   15  C   UNL     1      43.545 -16.392   3.169  1.00  0.00     0.014 A 
HETATM   16  C   UNL     1      43.557 -16.700   1.804  1.00  0.00     0.001 A 
HETATM   17  C   UNL     1      43.636 -18.023   1.375  1.00  0.00     0.002 A 
ENDBRANCH   6   7
ENDBRANCH   1   5
BRANCH   2  18
HETATM   18  C   UNL     1      45.012 -12.410   8.405  1.00  0.00     0.121 A 
HETATM   19  N   UNL     1      45.968 -11.497   8.747  1.00  0.00    -0.272 N 
HETATM   20  H   UNL     1      46.912 -11.438   8.374  1.00  0.00     0.189 HD
HETATM   21  N   UNL     1      45.577 -10.611   9.674  1.00  0.00    -0.174 NA
HETATM   22  C   UNL     1      44.310 -10.949   9.960  1.00  0.00     0.089 A 
HETATM   23  C   UNL     1      43.919 -12.077   9.179  1.00  0.00     0.071 A 
BRANCH  22  24
HETATM   24  C   UNL     1      43.523 -10.205  10.954  1.00  0.00    -0.006 A 
HETATM   25  C   UNL     1      43.924 -10.180  12.301  1.00  0.00     0.015 A 
HETATM   26  C   UNL     1      43.186  -9.480  13.261  1.00  0.00     0.024 A 
HETATM   27  C   UNL     1      42.036  -8.795  12.883  1.00  0.00     0.034 A 
HETATM   28 CL   UNL     1      41.124  -7.934  14.059  1.00  0.00    -0.084 Cl
HETATM   29  C   UNL     1      41.620  -8.806  11.554  1.00  0.00     0.024 A 
HETATM   30  C   UNL     1      42.360  -9.506  10.594  1.00  0.00     0.015 A 
ENDBRANCH  22  24
ENDBRANCH   2  18
TORSDOF 4
ENDMDL
MODEL 2
REMARK VINA RESULT:      -9.2      1.460      2.367
REMARK  4 active torsions:
REMARK  status: ('A' for Active; 'I' for Inactive)
REMARK    1  A    between atoms: C_7  and  C_8 
REMARK    2  A    between atoms: N_9  and  N_10 
REMARK       I    between atoms: N_10  and  C_11 
REMARK    3  A    between atoms: C_11  and  C_12 
REMARK    4  A    between atoms: C_16  and  C_17 
ROOT
HETATM    1  N   UNL     1      43.800 -13.692   7.215  1.00  0.00    -0.242 N 
HETATM    2  C   UNL     1      44.944 -13.116   7.747  1.00  0.00     0.289 C 
HETATM    3  O   UNL     1      46.053 -13.166   7.221  1.00  0.00    -0.264 OA
HETATM    4  H   UNL     1      42.915 -13.612   7.694  1.00  0.00     0.192 HD
ENDROOT
BRANCH   1   5
HETATM    5  N   UNL     1      43.866 -14.385   6.039  1.00  0.00    -0.183 NA
HETATM    6  C   UNL     1      43.192 -15.488   5.991  1.00  0.00     0.153 C 
BRANCH   6   7
HETATM    7  C   UNL     1      43.198 -16.306   4.792  1.00  0.00     0.018 A 
HETATM    8  C   UNL     1      42.690 -15.967   3.545  1.00  0.00     0.018 A 
HETATM    9  C   UNL     1      42.015 -14.730   3.063  1.00  0.00     0.069 C 
HETATM   10  N   UNL     1      42.907 -17.028   2.702  1.00  0.00    -0.358 N 
HETATM   11  H   UNL     1      42.639 -17.059   1.728  1.00  0.00     0.166 HD
HETATM   12  C   UNL     1      43.542 -18.051   3.363  1.00  0.00     0.043 A 
HETATM   13  C   UNL     1      43.739 -17.630   4.677  1.00  0.00     0.004 A 
HETATM   14  C   UNL     1      43.952 -19.305   2.895  1.00  0.00     0.030 A 
HETATM   15  C   UNL     1      44.381 -18.515   5.572  1.00  0.00     0.014 A 
HETATM   16  C   UNL     1      44.796 -19.774   5.122  1.00  0.00     0.001 A 
HETATM   17  C   UNL     1      44.585 -20.161   3.801  1.00  0.00     0.002 A 
ENDBRANCH   6   7
ENDBRANCH   1   5
BRANCH   2  18
HETATM   18  C   UNL     1      44.747 -12.431   9.000  1.00  0.00     0.121 A 
HETATM   19  N   UNL     1      45.809 -11.970   9.726  1.00  0.00    -0.272 N 
HETATM   20  H   UNL     1      46.792 -12.052   9.480  1.00  0.00     0.189 HD
HETATM   21  N   UNL     1      45.470 -11.359  10.870  1.00  0.00    -0.174 NA
HETATM   22  C   UNL     1      44.130 -11.415  10.907  1.00  0.00     0.089 A 
HETATM   23  C   UNL     1      43.638 -12.082   9.746  1.00  0.00     0.071 A 
BRANCH  22  24
HETATM   24  C   UNL     1      43.369 -10.847  12.030  1.00  0.00    -0.006 A 
HETATM   25  C   UNL     1      43.839  -9.703  12.697  1.00  0.00     0.015 A 
HETATM   26  C   UNL     1      43.130  -9.150  13.768  1.00  0.00     0.024 A 
HETATM   27  C   UNL     1      41.940  -9.738  14.185  1.00  0.00     0.034 A 
HETATM   28 CL   UNL     1      41.064  -9.064  15.502  1.00  0.00    -0.084 Cl
HETATM   29  C   UNL     1      41.455 -10.872  13.538  1.00  0.00     0.024 A 
HETATM   30  C   UNL     1      42.166 -11.424  12.465  1.00  0.00     0.015 A 
ENDBRANCH  22  24
ENDBRANCH   2  18
TORSDOF 4
ENDMDL
MODEL 3
REMARK VINA RESULT:      -9.1      7.411     10.935
REMARK  4 active torsions:
REMARK  status: ('A' for Active; 'I' for Inactive)
REMARK    1  A    between atoms: C_7  and  C_8 
REMARK    2  A    between atoms: N_9  and  N_10 
REMARK       I    between atoms: N_10  and  C_11 
REMARK    3  A    between atoms: C_11  and  C_12 
REMARK    4  A    between atoms: C_16  and  C_17 
ROOT
HETATM    1  N   UNL     1      42.381 -16.726   0.266  1.00  0.00    -0.242 N 
HETATM    2  C   UNL     1      41.308 -15.854   0.145  1.00  0.00     0.289 C 
HETATM    3  O   UNL     1      40.423 -15.724   0.986  1.00  0.00    -0.264 OA
HETATM    4  H   UNL     1      43.080 -16.783  -0.461  1.00  0.00     0.192 HD
ENDROOT
BRANCH   1   5
HETATM    5  N   UNL     1      42.493 -17.523   1.369  1.00  0.00    -0.183 NA
HETATM    6  C   UNL     1      43.680 -17.633   1.871  1.00  0.00     0.153 C 
BRANCH   6   7
HETATM    7  C   UNL     1      43.914 -18.462   3.039  1.00  0.00     0.018 A 
HETATM    8  C   UNL     1      43.942 -18.050   4.366  1.00  0.00     0.018 A 
HETATM    9  C   UNL     1      43.752 -16.708   4.981  1.00  0.00     0.069 C 
HETATM   10  N   UNL     1      44.192 -19.155   5.141  1.00  0.00    -0.358 N 
HETATM   11  H   UNL     1      44.266 -19.150   6.150  1.00  0.00     0.166 HD
HETATM   12  C   UNL     1      44.329 -20.276   4.360  1.00  0.00     0.043 A 
HETATM   13  C   UNL     1      44.161 -19.876   3.035  1.00  0.00     0.004 A 
HETATM   14  C   UNL     1      44.587 -21.602   4.728  1.00  0.00     0.030 A 
HETATM   15  C   UNL     1      44.258 -20.858   2.025  1.00  0.00     0.014 A 
HETATM   16  C   UNL     1      44.516 -22.188   2.374  1.00  0.00     0.001 A 
HETATM   17  C   UNL     1      44.677 -22.553   3.708  1.00  0.00     0.002 A 
ENDBRANCH   6   7
ENDBRANCH   1   5
BRANCH   2  18
HETATM   18  C   UNL     1      41.293 -15.083  -1.074  1.00  0.00     0.121 A 
HETATM   19  N   UNL     1      41.369 -15.693  -2.294  1.00  0.00    -0.272 N 
HETATM   20  H   UNL     1      41.438 -16.693  -2.469  1.00  0.00     0.189 HD
HETATM   21  N   UNL     1      41.349 -14.849  -3.334  1.00  0.00    -0.174 NA
HETATM   22  C   UNL     1      41.257 -13.628  -2.785  1.00  0.00     0.089 A 
HETATM   23  C   UNL     1      41.218 -13.735  -1.363  1.00  0.00     0.071 A 
BRANCH  22  24
HETATM   24  C   UNL     1      41.214 -12.414  -3.614  1.00  0.00    -0.006 A 
HETATM   25  C   UNL     1      42.407 -11.787  -4.014  1.00  0.00     0.015 A 
HETATM   26  C   UNL     1      42.385 -10.631  -4.800  1.00  0.00     0.024 A 
HETATM   27  C   UNL     1      41.168 -10.088  -5.196  1.00  0.00     0.034 A 
HETATM   28 CL   UNL     1      41.135  -8.666  -6.162  1.00  0.00    -0.084 Cl
HETATM   29  C   UNL     1      39.973 -10.692  -4.812  1.00  0.00     0.024 A 
HETATM   30  C   UNL     1      39.996 -11.851  -4.026  1.00  0.00     0.015 A 
ENDBRANCH  22  24
ENDBRANCH   2  18
TORSDOF 4
ENDMDL
MODEL 4
REMARK VINA RESULT:      -9.0      7.551     11.460
REMARK  4 active torsions:
REMARK  status: ('A' for Active; 'I' for Inactive)
REMARK    1  A    between atoms: C_7  and  C_8 
REMARK    2  A    between atoms: N_9  and  N_10 
REMARK       I    between atoms: N_10  and  C_11 
REMARK    3  A    between atoms: C_11  and  C_12 
REMARK    4  A    between atoms: C_16  and  C_17 
ROOT
HETATM    1  N   UNL     1      42.136 -16.471  -0.179  1.00  0.00    -0.242 N 
HETATM    2  C   UNL     1      41.657 -15.169  -0.169  1.00  0.00     0.289 C 
HETATM    3  O   UNL     1      41.901 -14.348   0.711  1.00  0.00    -0.264 OA
HETATM    4  H   UNL     1      41.902 -17.098  -0.935  1.00  0.00     0.192 HD
ENDROOT
BRANCH   1   5
HETATM    5  N   UNL     1      42.922 -16.919   0.845  1.00  0.00    -0.183 NA
HETATM    6  C   UNL     1      42.409 -17.842   1.592  1.00  0.00     0.153 C 
BRANCH   6   7
HETATM    7  C   UNL     1      43.155 -18.384   2.713  1.00  0.00     0.018 A 
HETATM    8  C   UNL     1      43.513 -17.721   3.880  1.00  0.00     0.018 A 
HETATM    9  C   UNL     1      43.262 -16.324   4.330  1.00  0.00     0.069 C 
HETATM   10  N   UNL     1      44.207 -18.605   4.667  1.00  0.00    -0.358 N 
HETATM   11  H   UNL     1      44.589 -18.392   5.579  1.00  0.00     0.166 HD
HETATM   12  C   UNL     1      44.313 -19.827   4.049  1.00  0.00     0.043 A 
HETATM   13  C   UNL     1      43.664 -19.722   2.820  1.00  0.00     0.004 A 
HETATM   14  C   UNL     1      44.930 -21.004   4.486  1.00  0.00     0.030 A 
HETATM   15  C   UNL     1      43.633 -20.860   1.983  1.00  0.00     0.014 A 
HETATM   16  C   UNL     1      44.247 -22.045   2.404  1.00  0.00     0.001 A 
HETATM   17  C   UNL     1      44.885 -22.115   3.639  1.00  0.00     0.002 A 
ENDBRANCH   6   7
ENDBRANCH   1   5
BRANCH   2  18
HETATM   18  C   UNL     1      40.823 -14.825  -1.295  1.00  0.00     0.121 A 
HETATM   19  N   UNL     1      41.291 -14.929  -2.574  1.00  0.00    -0.272 N 
HETATM   20  H   UNL     1      42.216 -15.240  -2.858  1.00  0.00     0.189 HD
HETATM   21  N   UNL     1      40.406 -14.570  -3.514  1.00  0.00    -0.174 NA
HETATM   22  C   UNL     1      39.306 -14.213  -2.834  1.00  0.00     0.089 A 
HETATM   23  C   UNL     1      39.530 -14.362  -1.433  1.00  0.00     0.071 A 
BRANCH  22  24
HETATM   24  C   UNL     1      38.094 -13.745  -3.523  1.00  0.00    -0.006 A 
HETATM   25  C   UNL     1      37.176 -14.670  -4.049  1.00  0.00     0.015 A 
HETATM   26  C   UNL     1      36.020 -14.242  -4.710  1.00  0.00     0.024 A 
HETATM   27  C   UNL     1      35.770 -12.882  -4.853  1.00  0.00     0.034 A 
HETATM   28 CL   UNL     1      34.351 -12.350  -5.665  1.00  0.00    -0.084 Cl
HETATM   29  C   UNL     1      36.665 -11.947  -4.339  1.00  0.00     0.024 A 
HETATM   30  C   UNL     1      37.822 -12.377  -3.676  1.00  0.00     0.015 A 
ENDBRANCH  22  24
ENDBRANCH   2  18
TORSDOF 4
ENDMDL
MODEL 5
REMARK VINA RESULT:      -8.9      7.199     11.292
REMARK  4 active torsions:
REMARK  status: ('A' for Active; 'I' for Inactive)
REMARK    1  A    between atoms: C_7  and  C_8 
REMARK    2  A    between atoms: N_9  and  N_10 
REMARK       I    between atoms: N_10  and  C_11 
REMARK    3  A    between atoms: C_11  and  C_12 
REMARK    4  A    between atoms: C_16  and  C_17 
ROOT
HETATM    1  N   UNL     1      42.379 -16.740   0.061  1.00  0.00    -0.242 N 
HETATM    2  C   UNL     1      41.799 -15.480   0.088  1.00  0.00     0.289 C 
HETATM    3  O   UNL     1      41.957 -14.665   0.993  1.00  0.00    -0.264 OA
HETATM    4  H   UNL     1      42.214 -17.364  -0.716  1.00  0.00     0.192 HD
ENDROOT
BRANCH   1   5
HETATM    5  N   UNL     1      43.172 -17.151   1.095  1.00  0.00    -0.183 NA
HETATM    6  C   UNL     1      42.708 -18.120   1.815  1.00  0.00     0.153 C 
BRANCH   6   7
HETATM    7  C   UNL     1      43.466 -18.629   2.944  1.00  0.00     0.018 A 
HETATM    8  C   UNL     1      44.079 -19.871   3.048  1.00  0.00     0.018 A 
HETATM    9  C   UNL     1      44.153 -21.012   2.095  1.00  0.00     0.069 C 
HETATM   10  N   UNL     1      44.684 -19.937   4.278  1.00  0.00    -0.358 N 
HETATM   11  H   UNL     1      45.208 -20.729   4.625  1.00  0.00     0.166 HD
HETATM   12  C   UNL     1      44.485 -18.773   4.980  1.00  0.00     0.043 A 
HETATM   13  C   UNL     1      43.723 -17.931   4.171  1.00  0.00     0.004 A 
HETATM   14  C   UNL     1      44.920 -18.410   6.260  1.00  0.00     0.030 A 
HETATM   15  C   UNL     1      43.378 -16.657   4.673  1.00  0.00     0.014 A 
HETATM   16  C   UNL     1      43.803 -16.278   5.952  1.00  0.00     0.001 A 
HETATM   17  C   UNL     1      44.565 -17.143   6.732  1.00  0.00     0.002 A 
ENDBRANCH   6   7
ENDBRANCH   1   5
BRANCH   2  18
HETATM   18  C   UNL     1      40.969 -15.174  -1.051  1.00  0.00     0.121 A 
HETATM   19  N   UNL     1      41.335 -15.555  -2.311  1.00  0.00    -0.272 N 
HETATM   20  H   UNL     1      42.176 -16.064  -2.570  1.00  0.00     0.189 HD
HETATM   21  N   UNL     1      40.468 -15.196  -3.268  1.00  0.00    -0.174 NA
HETATM   22  C   UNL     1      39.486 -14.551  -2.620  1.00  0.00     0.089 A 
HETATM   23  C   UNL     1      39.766 -14.517  -1.221  1.00  0.00     0.071 A 
BRANCH  22  24
HETATM   24  C   UNL     1      38.332 -13.989  -3.337  1.00  0.00    -0.006 A 
HETATM   25  C   UNL     1      38.168 -12.596  -3.433  1.00  0.00     0.015 A 
HETATM   26  C   UNL     1      37.075 -12.045  -4.109  1.00  0.00     0.024 A 
HETATM   27  C   UNL     1      36.132 -12.882  -4.698  1.00  0.00     0.034 A 
HETATM   28 CL   UNL     1      34.786 -12.209  -5.529  1.00  0.00    -0.084 Cl
HETATM   29  C   UNL     1      36.276 -14.265  -4.615  1.00  0.00     0.024 A 
HETATM   30  C   UNL     1      37.371 -14.816  -3.939  1.00  0.00     0.015 A 
ENDBRANCH  22  24
ENDBRANCH   2  18
TORSDOF 4
ENDMDL
MODEL 6
REMARK VINA RESULT:      -8.8      7.555     10.963
REMARK  4 active torsions:
REMARK  status: ('A' for Active; 'I' for Inactive)
REMARK    1  A    between atoms: C_7  and  C_8 
REMARK    2  A    between atoms: N_9  and  N_10 
REMARK       I    between atoms: N_10  and  C_11 
REMARK    3  A    between atoms: C_11  and  C_12 
REMARK    4  A    between atoms: C_16  and  C_17 
ROOT
HETATM    1  N   UNL     1      42.382 -16.828   0.218  1.00  0.00    -0.242 N 
HETATM    2  C   UNL     1      41.340 -15.914   0.138  1.00  0.00     0.289 C 
HETATM    3  O   UNL     1      40.495 -15.751   1.014  1.00  0.00    -0.264 OA
HETATM    4  H   UNL     1      43.049 -16.911  -0.536  1.00  0.00     0.192 HD
ENDROOT
BRANCH   1   5
HETATM    5  N   UNL     1      42.505 -17.631   1.316  1.00  0.00    -0.183 NA
HETATM    6  C   UNL     1      43.684 -18.116   1.534  1.00  0.00     0.153 C 
BRANCH   6   7
HETATM    7  C   UNL     1      43.925 -18.988   2.669  1.00  0.00     0.018 A 
HETATM    8  C   UNL     1      44.126 -20.362   2.641  1.00  0.00     0.018 A 
HETATM    9  C   UNL     1      44.157 -21.326   1.507  1.00  0.00     0.069 C 
HETATM   10  N   UNL     1      44.317 -20.783   3.933  1.00  0.00    -0.358 N 
HETATM   11  H   UNL     1      44.488 -21.741   4.212  1.00  0.00     0.166 HD
HETATM   12  C   UNL     1      44.247 -19.724   4.805  1.00  0.00     0.043 A 
HETATM   13  C   UNL     1      44.001 -18.582   4.044  1.00  0.00     0.004 A 
HETATM   14  C   UNL     1      44.383 -19.696   6.198  1.00  0.00     0.030 A 
HETATM   15  C   UNL     1      43.884 -17.345   4.716  1.00  0.00     0.014 A 
HETATM   16  C   UNL     1      44.015 -17.299   6.109  1.00  0.00     0.001 A 
HETATM   17  C   UNL     1      44.262 -18.459   6.837  1.00  0.00     0.002 A 
ENDBRANCH   6   7
ENDBRANCH   1   5
BRANCH   2  18
HETATM   18  C   UNL     1      41.309 -15.141  -1.079  1.00  0.00     0.121 A 
HETATM   19  N   UNL     1      41.368 -15.749  -2.300  1.00  0.00    -0.272 N 
HETATM   20  H   UNL     1      41.435 -16.748  -2.478  1.00  0.00     0.189 HD
HETATM   21  N   UNL     1      41.334 -14.902  -3.339  1.00  0.00    -0.174 NA
HETATM   22  C   UNL     1      41.249 -13.682  -2.786  1.00  0.00     0.089 A 
HETATM   23  C   UNL     1      41.229 -13.792  -1.364  1.00  0.00     0.071 A 
BRANCH  22  24
HETATM   24  C   UNL     1      41.195 -12.467  -3.612  1.00  0.00    -0.006 A 
HETATM   25  C   UNL     1      42.381 -11.819  -3.997  1.00  0.00     0.015 A 
HETATM   26  C   UNL     1      42.349 -10.661  -4.781  1.00  0.00     0.024 A 
HETATM   27  C   UNL     1      41.126 -10.137  -5.188  1.00  0.00     0.034 A 
HETATM   28 CL   UNL     1      41.080  -8.713  -6.150  1.00  0.00    -0.084 Cl
HETATM   29  C   UNL     1      39.938 -10.762  -4.818  1.00  0.00     0.024 A 
HETATM   30  C   UNL     1      39.972 -11.922  -4.035  1.00  0.00     0.015 A 
ENDBRANCH  22  24
ENDBRANCH   2  18
TORSDOF 4
ENDMDL
MODEL 7
REMARK VINA RESULT:      -8.5      4.377     10.751
REMARK  4 active torsions:
REMARK  status: ('A' for Active; 'I' for Inactive)
REMARK    1  A    between atoms: C_7  and  C_8 
REMARK    2  A    between atoms: N_9  and  N_10 
REMARK       I    between atoms: N_10  and  C_11 
REMARK    3  A    between atoms: C_11  and  C_12 
REMARK    4  A    between atoms: C_16  and  C_17 
ROOT
HETATM    1  N   UNL     1      41.901 -12.245   6.915  1.00  0.00    -0.242 N 
HETATM    2  C   UNL     1      41.716 -12.077   5.551  1.00  0.00     0.289 C 
HETATM    3  O   UNL     1      41.159 -11.107   5.042  1.00  0.00    -0.264 OA
HETATM    4  H   UNL     1      42.372 -13.065   7.272  1.00  0.00     0.192 HD
ENDROOT
BRANCH   1   5
HETATM    5  N   UNL     1      41.437 -11.305   7.791  1.00  0.00    -0.183 NA
HETATM    6  C   UNL     1      42.335 -10.673   8.474  1.00  0.00     0.153 C 
BRANCH   6   7
HETATM    7  C   UNL     1      41.951  -9.659   9.438  1.00  0.00     0.018 A 
HETATM    8  C   UNL     1      41.055  -8.615   9.244  1.00  0.00     0.018 A 
HETATM    9  C   UNL     1      40.247  -8.224   8.055  1.00  0.00     0.069 C 
HETATM   10  N   UNL     1      40.987  -7.899  10.412  1.00  0.00    -0.358 N 
HETATM   11  H   UNL     1      40.410  -7.081  10.558  1.00  0.00     0.166 HD
HETATM   12  C   UNL     1      41.813  -8.444  11.365  1.00  0.00     0.043 A 
HETATM   13  C   UNL     1      42.434  -9.549  10.785  1.00  0.00     0.004 A 
HETATM   14  C   UNL     1      42.052  -8.041  12.684  1.00  0.00     0.030 A 
HETATM   15  C   UNL     1      43.344 -10.291  11.571  1.00  0.00     0.014 A 
HETATM   16  C   UNL     1      43.596  -9.901  12.891  1.00  0.00     0.001 A 
HETATM   17  C   UNL     1      42.957  -8.792  13.438  1.00  0.00     0.002 A 
ENDBRANCH   6   7
ENDBRANCH   1   5
BRANCH   2  18
HETATM   18  C   UNL     1      42.234 -13.148   4.735  1.00  0.00     0.121 A 
HETATM   19  N   UNL     1      42.846 -12.891   3.542  1.00  0.00    -0.272 N 
HETATM   20  H   UNL     1      42.998 -11.977   3.122  1.00  0.00     0.189 HD
HETATM   21  N   UNL     1      43.271 -13.985   2.894  1.00  0.00    -0.174 NA
HETATM   22  C   UNL     1      42.927 -15.011   3.688  1.00  0.00     0.089 A 
HETATM   23  C   UNL     1      42.273 -14.523   4.858  1.00  0.00     0.071 A 
BRANCH  22  24
HETATM   24  C   UNL     1      43.221 -16.402   3.316  1.00  0.00    -0.006 A 
HETATM   25  C   UNL     1      43.677 -16.708   2.021  1.00  0.00     0.015 A 
HETATM   26  C   UNL     1      43.959 -18.026   1.648  1.00  0.00     0.024 A 
HETATM   27  C   UNL     1      43.788 -19.055   2.568  1.00  0.00     0.034 A 
HETATM   28 CL   UNL     1      44.133 -20.678   2.116  1.00  0.00    -0.084 Cl
HETATM   29  C   UNL     1      43.339 -18.776   3.856  1.00  0.00     0.024 A 
HETATM   30  C   UNL     1      43.057 -17.456   4.229  1.00  0.00     0.015 A 
ENDBRANCH  22  24
ENDBRANCH   2  18
TORSDOF 4
ENDMDL
MODEL 8
REMARK VINA RESULT:      -8.4      4.005     10.703
REMARK  4 active torsions:
REMARK  status: ('A' for Active; 'I' for Inactive)
REMARK    1  A    between atoms: C_7  and  C_8 
REMARK    2  A    between atoms: N_9  and  N_10 
REMARK       I    between atoms: N_10  and  C_11 
REMARK    3  A    between atoms: C_11  and  C_12 
REMARK    4  A    between atoms: C_16  and  C_17 
ROOT
HETATM    1  N   UNL     1      43.602 -12.724   7.770  1.00  0.00    -0.242 N 
HETATM    2  C   UNL     1      42.981 -13.221   6.634  1.00  0.00     0.289 C 
HETATM    3  O   UNL     1      42.157 -12.600   5.967  1.00  0.00    -0.264 OA
HETATM    4  H   UNL     1      44.277 -13.283   8.273  1.00  0.00     0.192 HD
ENDROOT
BRANCH   1   5
HETATM    5  N   UNL     1      43.297 -11.472   8.226  1.00  0.00    -0.183 NA
HETATM    6  C   UNL     1      42.662 -11.417   9.351  1.00  0.00     0.153 C 
BRANCH   6   7
HETATM    7  C   UNL     1      42.281 -10.138   9.922  1.00  0.00     0.018 A 
HETATM    8  C   UNL     1      41.537  -9.137   9.311  1.00  0.00     0.018 A 
HETATM    9  C   UNL     1      40.926  -9.057   7.956  1.00  0.00     0.069 C 
HETATM   10  N   UNL     1      41.411  -8.104  10.206  1.00  0.00    -0.358 N 
HETATM   11  H   UNL     1      40.915  -7.241  10.029  1.00  0.00     0.166 HD
HETATM   12  C   UNL     1      42.051  -8.402  11.384  1.00  0.00     0.043 A 
HETATM   13  C   UNL     1      42.609  -9.671  11.239  1.00  0.00     0.004 A 
HETATM   14  C   UNL     1      42.175  -7.645  12.555  1.00  0.00     0.030 A 
HETATM   15  C   UNL     1      43.331 -10.211  12.326  1.00  0.00     0.014 A 
HETATM   16  C   UNL     1      43.466  -9.468  13.505  1.00  0.00     0.001 A 
HETATM   17  C   UNL     1      42.894  -8.203  13.616  1.00  0.00     0.002 A 
ENDBRANCH   6   7
ENDBRANCH   1   5
BRANCH   2  18
HETATM   18  C   UNL     1      43.375 -14.560   6.269  1.00  0.00     0.121 A 
HETATM   19  N   UNL     1      44.120 -15.330   7.116  1.00  0.00    -0.272 N 
HETATM   20  H   UNL     1      44.457 -15.065   8.038  1.00  0.00     0.189 HD
HETATM   21  N   UNL     1      44.413 -16.547   6.639  1.00  0.00    -0.174 NA
HETATM   22  C   UNL     1      43.841 -16.589   5.426  1.00  0.00     0.089 A 
HETATM   23  C   UNL     1      43.177 -15.355   5.158  1.00  0.00     0.071 A 
BRANCH  22  24
HETATM   24  C   UNL     1      43.945 -17.779   4.568  1.00  0.00    -0.006 A 
HETATM   25  C   UNL     1      44.421 -18.992   5.095  1.00  0.00     0.015 A 
HETATM   26  C   UNL     1      44.529 -20.133   4.294  1.00  0.00     0.024 A 
HETATM   27  C   UNL     1      44.160 -20.074   2.954  1.00  0.00     0.034 A 
HETATM   28 CL   UNL     1      44.292 -21.473   1.964  1.00  0.00    -0.084 Cl
HETATM   29  C   UNL     1      43.685 -18.882   2.411  1.00  0.00     0.024 A 
HETATM   30  C   UNL     1      43.577 -17.741   3.215  1.00  0.00     0.015 A 
ENDBRANCH  22  24
ENDBRANCH   2  18
TORSDOF 4
ENDMDL
MODEL 9
REMARK VINA RESULT:      -8.3      6.980      9.220
REMARK  4 active torsions:
REMARK  status: ('A' for Active; 'I' for Inactive)
REMARK    1  A    between atoms: C_7  and  C_8 
REMARK    2  A    between atoms: N_9  and  N_10 
REMARK       I    between atoms: N_10  and  C_11 
REMARK    3  A    between atoms: C_11  and  C_12 
REMARK    4  A    between atoms: C_16  and  C_17 
ROOT
HETATM    1  N   UNL     1      41.102 -15.753   3.225  1.00  0.00    -0.242 N 
HETATM    2  C   UNL     1      40.194 -15.976   2.201  1.00  0.00     0.289 C 
HETATM    3  O   UNL     1      39.873 -17.088   1.789  1.00  0.00    -0.264 OA
HETATM    4  H   UNL     1      41.321 -14.812   3.521  1.00  0.00     0.192 HD
ENDROOT
BRANCH   1   5
HETATM    5  N   UNL     1      41.719 -16.809   3.835  1.00  0.00    -0.183 NA
HETATM    6  C   UNL     1      42.885 -17.128   3.376  1.00  0.00     0.153 C 
BRANCH   6   7
HETATM    7  C   UNL     1      43.624 -18.239   3.946  1.00  0.00     0.018 A 
HETATM    8  C   UNL     1      44.278 -18.269   5.171  1.00  0.00     0.018 A 
HETATM    9  C   UNL     1      44.423 -17.233   6.231  1.00  0.00     0.069 C 
HETATM   10  N   UNL     1      44.843 -19.511   5.314  1.00  0.00    -0.358 N 
HETATM   11  H   UNL     1      45.381 -19.815   6.114  1.00  0.00     0.166 HD
HETATM   12  C   UNL     1      44.577 -20.294   4.217  1.00  0.00     0.043 A 
HETATM   13  C   UNL     1      43.815 -19.526   3.339  1.00  0.00     0.004 A 
HETATM   14  C   UNL     1      44.954 -21.614   3.944  1.00  0.00     0.030 A 
HETATM   15  C   UNL     1      43.408 -20.112   2.120  1.00  0.00     0.014 A 
HETATM   16  C   UNL     1      43.777 -21.431   1.829  1.00  0.00     0.001 A 
HETATM   17  C   UNL     1      44.538 -22.170   2.731  1.00  0.00     0.002 A 
ENDBRANCH   6   7
ENDBRANCH   1   5
BRANCH   2  18
HETATM   18  C   UNL     1      39.628 -14.779   1.626  1.00  0.00     0.121 A 
HETATM   19  N   UNL     1      40.385 -13.656   1.454  1.00  0.00    -0.272 N 
HETATM   20  H   UNL     1      41.367 -13.544   1.693  1.00  0.00     0.189 HD
HETATM   21  N   UNL     1      39.723 -12.623   0.914  1.00  0.00    -0.174 NA
HETATM   22  C   UNL     1      38.475 -13.078   0.720  1.00  0.00     0.089 A 
HETATM   23  C   UNL     1      38.377 -14.433   1.155  1.00  0.00     0.071 A 
BRANCH  22  24
HETATM   24  C   UNL     1      37.428 -12.223   0.140  1.00  0.00    -0.006 A 
HETATM   25  C   UNL     1      37.359 -12.033  -1.251  1.00  0.00     0.015 A 
HETATM   26  C   UNL     1      36.372 -11.222  -1.820  1.00  0.00     0.024 A 
HETATM   27  C   UNL     1      35.441 -10.591  -1.001  1.00  0.00     0.034 A 
HETATM   28 CL   UNL     1      34.225  -9.592  -1.695  1.00  0.00    -0.084 Cl
HETATM   29  C   UNL     1      35.490 -10.766   0.379  1.00  0.00     0.024 A 
HETATM   30  C   UNL     1      36.478 -11.579   0.947  1.00  0.00     0.015 A 
ENDBRANCH  22  24
ENDBRANCH   2  18
TORSDOF 4
ENDMDL
MODEL 10
REMARK VINA RESULT:      -8.2      3.683      4.468
REMARK  4 active torsions:
REMARK  status: ('A' for Active; 'I' for Inactive)
REMARK    1  A    between atoms: C_7  and  C_8 
REMARK    2  A    between atoms: N_9  and  N_10 
REMARK       I    between atoms: N_10  and  C_11 
REMARK    3  A    between atoms: C_11  and  C_12 
REMARK    4  A    between atoms: C_16  and  C_17 
ROOT
HETATM    1  N   UNL     1      42.871 -14.776   5.010  1.00  0.00    -0.242 N 
HETATM    2  C   UNL     1      42.902 -13.593   4.287  1.00  0.00     0.289 C 
HETATM    3  O   UNL     1      43.510 -13.442   3.231  1.00  0.00    -0.264 OA
HETATM    4  H   UNL     1      42.347 -14.838   5.871  1.00  0.00     0.192 HD
ENDROOT
BRANCH   1   5
HETATM    5  N   UNL     1      43.560 -15.868   4.565  1.00  0.00    -0.183 NA
HETATM    6  C   UNL     1      42.850 -16.909   4.275  1.00  0.00     0.153 C 
BRANCH   6   7
HETATM    7  C   UNL     1      43.482 -18.126   3.801  1.00  0.00     0.018 A 
HETATM    8  C   UNL     1      43.908 -18.400   2.507  1.00  0.00     0.018 A 
HETATM    9  C   UNL     1      43.856 -17.581   1.264  1.00  0.00     0.069 C 
HETATM   10  N   UNL     1      44.449 -19.661   2.502  1.00  0.00    -0.358 N 
HETATM   11  H   UNL     1      44.840 -20.121   1.691  1.00  0.00     0.166 HD
HETATM   12  C   UNL     1      44.389 -20.220   3.755  1.00  0.00     0.043 A 
HETATM   13  C   UNL     1      43.787 -19.283   4.594  1.00  0.00     0.004 A 
HETATM   14  C   UNL     1      44.821 -21.474   4.201  1.00  0.00     0.030 A 
HETATM   15  C   UNL     1      43.607 -19.623   5.953  1.00  0.00     0.014 A 
HETATM   16  C   UNL     1      44.031 -20.874   6.416  1.00  0.00     0.001 A 
HETATM   17  C   UNL     1      44.630 -21.785   5.550  1.00  0.00     0.002 A 
ENDBRANCH   6   7
ENDBRANCH   1   5
BRANCH   2  18
HETATM   18  C   UNL     1      42.150 -12.509   4.872  1.00  0.00     0.121 A 
HETATM   19  N   UNL     1      41.745 -11.446   4.117  1.00  0.00    -0.272 N 
HETATM   20  H   UNL     1      41.915 -11.307   3.124  1.00  0.00     0.189 HD
HETATM   21  N   UNL     1      41.061 -10.516   4.798  1.00  0.00    -0.174 NA
HETATM   22  C   UNL     1      41.009 -10.979   6.056  1.00  0.00     0.089 A 
HETATM   23  C   UNL     1      41.683 -12.233   6.142  1.00  0.00     0.071 A 
BRANCH  22  24
HETATM   24  C   UNL     1      40.335 -10.226   7.125  1.00  0.00    -0.006 A 
HETATM   25  C   UNL     1      39.498 -10.889   8.039  1.00  0.00     0.015 A 
HETATM   26  C   UNL     1      38.848 -10.189   9.060  1.00  0.00     0.024 A 
HETATM   27  C   UNL     1      39.027  -8.814   9.177  1.00  0.00     0.034 A 
HETATM   28 CL   UNL     1      38.229  -7.948  10.429  1.00  0.00    -0.084 Cl
HETATM   29  C   UNL     1      39.852  -8.137   8.283  1.00  0.00     0.024 A 
HETATM   30  C   UNL     1      40.504  -8.839   7.262  1.00  0.00     0.015 A 
ENDBRANCH  22  24
ENDBRANCH   2  18
TORSDOF 4
ENDMDL
