MODEL 1
REMARK VINA RESULT:      -8.0      0.000      0.000
REMARK  5 active torsions:
REMARK  status: ('A' for Active; 'I' for Inactive)
REMARK    1  A    between atoms: C_2  and  C_3 
REMARK       I    between atoms: C_3  and  N_4 
REMARK    2  A    between atoms: N_4  and  C_5 
REMARK    3  A    between atoms: C_5  and  C_6 
REMARK    4  A    between atoms: C_5  and  C_17 
REMARK    5  A    between atoms: C_7  and  O_8 
ROOT
HETATM    1  C   UNL     1      42.677 -17.813   3.889  1.00  0.00     0.154 C 
ENDROOT
BRANCH   1   2
HETATM    2  N   UNL     1      43.571 -16.995   4.704  1.00  0.00    -0.348 N 
HETATM    3  C   UNL     1      43.214 -16.528   5.945  1.00  0.00     0.218 C 
HETATM    4  O   UNL     1      42.116 -16.714   6.461  1.00  0.00    -0.274 OA
HETATM    5  H   UNL     1      44.521 -16.889   4.388  1.00  0.00     0.163 HD
BRANCH   3   6
HETATM    6  C   UNL     1      44.324 -15.804   6.681  1.00  0.00     0.098 C 
HETATM    7  C   UNL     1      44.231 -14.293   6.571  1.00  0.00     0.014 C 
ENDBRANCH   3   6
ENDBRANCH   1   2
BRANCH   1   8
HETATM    8  C   UNL     1      42.118 -16.966   2.751  1.00  0.00     0.005 A 
HETATM    9  C   UNL     1      40.938 -16.222   2.905  1.00  0.00     0.103 A 
HETATM   10  C   UNL     1      40.376 -15.460   1.879  1.00  0.00     0.100 A 
HETATM   11  C   UNL     1      41.029 -15.439   0.633  1.00  0.00    -0.004 A 
HETATM   12  N   UNL     1      39.230 -14.784   2.115  1.00  0.00    -0.257 NA
HETATM   13  C   UNL     1      42.212 -16.173   0.448  1.00  0.00     0.014 A 
HETATM   14  C   UNL     1      40.453 -14.681  -0.394  1.00  0.00     0.015 A 
HETATM   15  C   UNL     1      42.746 -16.930   1.495  1.00  0.00     0.013 A 
HETATM   16  C   UNL     1      39.273 -13.983  -0.160  1.00  0.00     0.020 A 
HETATM   17  C   UNL     1      38.705 -14.066   1.097  1.00  0.00     0.117 A 
BRANCH   9  18
HETATM   18  O   UNL     1      40.273 -16.248   4.111  1.00  0.00    -0.358 OA
HETATM   19  H   UNL     1      39.324 -16.258   3.863  1.00  0.00     0.218 HD
ENDBRANCH   9  18
ENDBRANCH   1   8
BRANCH   1  20
HETATM   20  C   UNL     1      43.350 -19.085   3.362  1.00  0.00    -0.031 A 
HETATM   21  C   UNL     1      42.960 -19.727   2.173  1.00  0.00     0.009 A 
HETATM   22  C   UNL     1      43.595 -20.897   1.750  1.00  0.00     0.001 A 
HETATM   23  C   UNL     1      44.626 -21.448   2.505  1.00  0.00     0.000 A 
HETATM   24  C   UNL     1      45.032 -20.826   3.682  1.00  0.00     0.001 A 
HETATM   25  C   UNL     1      44.403 -19.654   4.105  1.00  0.00     0.009 A 
ENDBRANCH   1  20
TORSDOF 5
ENDMDL
MODEL 2
REMARK VINA RESULT:      -7.6      2.009      4.341
REMARK  5 active torsions:
REMARK  status: ('A' for Active; 'I' for Inactive)
REMARK    1  A    between atoms: C_2  and  C_3 
REMARK       I    between atoms: C_3  and  N_4 
REMARK    2  A    between atoms: N_4  and  C_5 
REMARK    3  A    between atoms: C_5  and  C_6 
REMARK    4  A    between atoms: C_5  and  C_17 
REMARK    5  A    between atoms: C_7  and  O_8 
ROOT
HETATM    1  C   UNL     1      42.959 -17.317   3.351  1.00  0.00     0.154 C 
ENDROOT
BRANCH   1   2
HETATM    2  N   UNL     1      42.709 -18.723   3.053  1.00  0.00    -0.348 N 
HETATM    3  C   UNL     1      43.517 -19.453   2.215  1.00  0.00     0.218 C 
HETATM    4  O   UNL     1      44.482 -18.991   1.616  1.00  0.00    -0.274 OA
HETATM    5  H   UNL     1      41.995 -19.193   3.587  1.00  0.00     0.163 HD
BRANCH   3   6
HETATM    6  C   UNL     1      43.161 -20.925   2.133  1.00  0.00     0.098 C 
HETATM    7  C   UNL     1      44.334 -21.804   1.741  1.00  0.00     0.014 C 
ENDBRANCH   3   6
ENDBRANCH   1   2
BRANCH   1   8
HETATM    8  C   UNL     1      41.866 -16.465   2.713  1.00  0.00     0.005 A 
HETATM    9  C   UNL     1      41.884 -16.158   1.345  1.00  0.00     0.103 A 
HETATM   10  C   UNL     1      40.921 -15.357   0.729  1.00  0.00     0.100 A 
HETATM   11  C   UNL     1      39.884 -14.835   1.524  1.00  0.00    -0.004 A 
HETATM   12  N   UNL     1      41.025 -15.104  -0.595  1.00  0.00    -0.257 NA
HETATM   13  C   UNL     1      39.839 -15.125   2.897  1.00  0.00     0.014 A 
HETATM   14  C   UNL     1      38.928 -14.023   0.900  1.00  0.00     0.015 A 
HETATM   15  C   UNL     1      40.821 -15.927   3.484  1.00  0.00     0.013 A 
HETATM   16  C   UNL     1      39.028 -13.757  -0.461  1.00  0.00     0.020 A 
HETATM   17  C   UNL     1      40.083 -14.315  -1.158  1.00  0.00     0.117 A 
BRANCH   9  18
HETATM   18  O   UNL     1      42.903 -16.642   0.555  1.00  0.00    -0.358 OA
HETATM   19  H   UNL     1      43.306 -15.838   0.162  1.00  0.00     0.218 HD
ENDBRANCH   9  18
ENDBRANCH   1   8
BRANCH   1  20
HETATM   20  C   UNL     1      43.080 -17.039   4.854  1.00  0.00    -0.031 A 
HETATM   21  C   UNL     1      43.585 -15.835   5.376  1.00  0.00     0.009 A 
HETATM   22  C   UNL     1      43.692 -15.644   6.757  1.00  0.00     0.001 A 
HETATM   23  C   UNL     1      43.300 -16.649   7.636  1.00  0.00     0.000 A 
HETATM   24  C   UNL     1      42.793 -17.846   7.140  1.00  0.00     0.001 A 
HETATM   25  C   UNL     1      42.680 -18.038   5.762  1.00  0.00     0.009 A 
ENDBRANCH   1  20
TORSDOF 5
ENDMDL
MODEL 3
REMARK VINA RESULT:      -7.4      2.096      4.078
REMARK  5 active torsions:
REMARK  status: ('A' for Active; 'I' for Inactive)
REMARK    1  A    between atoms: C_2  and  C_3 
REMARK       I    between atoms: C_3  and  N_4 
REMARK    2  A    between atoms: N_4  and  C_5 
REMARK    3  A    between atoms: C_5  and  C_6 
REMARK    4  A    between atoms: C_5  and  C_17 
REMARK    5  A    between atoms: C_7  and  O_8 
ROOT
HETATM    1  C   UNL     1      43.837 -17.984   3.435  1.00  0.00     0.154 C 
ENDROOT
BRANCH   1   2
HETATM    2  N   UNL     1      43.776 -19.386   3.033  1.00  0.00    -0.348 N 
HETATM    3  C   UNL     1      44.663 -20.325   3.501  1.00  0.00     0.218 C 
HETATM    4  O   UNL     1      45.599 -20.073   4.252  1.00  0.00    -0.274 OA
HETATM    5  H   UNL     1      42.976 -19.683   2.499  1.00  0.00     0.163 HD
BRANCH   3   6
HETATM    6  C   UNL     1      44.357 -21.744   3.063  1.00  0.00     0.098 C 
HETATM    7  C   UNL     1      43.863 -21.836   1.630  1.00  0.00     0.014 C 
ENDBRANCH   3   6
ENDBRANCH   1   2
BRANCH   1   8
HETATM    8  C   UNL     1      43.040 -17.142   2.444  1.00  0.00     0.005 A 
HETATM    9  C   UNL     1      43.107 -15.740   2.457  1.00  0.00     0.103 A 
HETATM   10  C   UNL     1      42.370 -14.933   1.589  1.00  0.00     0.100 A 
HETATM   11  C   UNL     1      41.522 -15.559   0.658  1.00  0.00    -0.004 A 
HETATM   12  N   UNL     1      42.488 -13.590   1.681  1.00  0.00    -0.257 NA
HETATM   13  C   UNL     1      41.434 -16.960   0.620  1.00  0.00     0.014 A 
HETATM   14  C   UNL     1      40.777 -14.742  -0.202  1.00  0.00     0.015 A 
HETATM   15  C   UNL     1      42.182 -17.740   1.507  1.00  0.00     0.013 A 
HETATM   16  C   UNL     1      40.892 -13.359  -0.113  1.00  0.00     0.020 A 
HETATM   17  C   UNL     1      41.752 -12.836   0.835  1.00  0.00     0.117 A 
BRANCH   9  18
HETATM   18  O   UNL     1      43.915 -15.109   3.375  1.00  0.00    -0.358 OA
HETATM   19  H   UNL     1      43.288 -14.723   4.024  1.00  0.00     0.218 HD
ENDBRANCH   9  18
ENDBRANCH   1   8
BRANCH   1  20
HETATM   20  C   UNL     1      43.361 -17.756   4.874  1.00  0.00    -0.031 A 
HETATM   21  C   UNL     1      42.005 -17.742   5.243  1.00  0.00     0.009 A 
HETATM   22  C   UNL     1      41.626 -17.508   6.568  1.00  0.00     0.001 A 
HETATM   23  C   UNL     1      42.593 -17.283   7.544  1.00  0.00     0.000 A 
HETATM   24  C   UNL     1      43.941 -17.298   7.201  1.00  0.00     0.001 A 
HETATM   25  C   UNL     1      44.322 -17.536   5.880  1.00  0.00     0.009 A 
ENDBRANCH   1  20
TORSDOF 5
ENDMDL
MODEL 4
REMARK VINA RESULT:      -7.4      1.558      2.093
REMARK  5 active torsions:
REMARK  status: ('A' for Active; 'I' for Inactive)
REMARK    1  A    between atoms: C_2  and  C_3 
REMARK       I    between atoms: C_3  and  N_4 
REMARK    2  A    between atoms: N_4  and  C_5 
REMARK    3  A    between atoms: C_5  and  C_6 
REMARK    4  A    between atoms: C_5  and  C_17 
REMARK    5  A    between atoms: C_7  and  O_8 
ROOT
HETATM    1  C   UNL     1      42.262 -17.300   4.416  1.00  0.00     0.154 C 
ENDROOT
BRANCH   1   2
HETATM    2  N   UNL     1      43.054 -16.485   5.332  1.00  0.00    -0.348 N 
HETATM    3  C   UNL     1      42.920 -16.570   6.696  1.00  0.00     0.218 C 
HETATM    4  O   UNL     1      42.109 -17.294   7.264  1.00  0.00    -0.274 OA
HETATM    5  H   UNL     1      43.807 -15.943   4.941  1.00  0.00     0.163 HD
BRANCH   3   6
HETATM    6  C   UNL     1      43.917 -15.733   7.474  1.00  0.00     0.098 C 
HETATM    7  C   UNL     1      44.494 -14.585   6.666  1.00  0.00     0.014 C 
ENDBRANCH   3   6
ENDBRANCH   1   2
BRANCH   1   8
HETATM    8  C   UNL     1      41.652 -16.403   3.344  1.00  0.00     0.005 A 
HETATM    9  C   UNL     1      42.338 -15.283   2.851  1.00  0.00     0.103 A 
HETATM   10  C   UNL     1      41.803 -14.419   1.894  1.00  0.00     0.100 A 
HETATM   11  C   UNL     1      40.513 -14.690   1.403  1.00  0.00    -0.004 A 
HETATM   12  N   UNL     1      42.533 -13.358   1.485  1.00  0.00    -0.257 NA
HETATM   13  C   UNL     1      39.800 -15.804   1.877  1.00  0.00     0.014 A 
HETATM   14  C   UNL     1      39.978 -13.813   0.450  1.00  0.00     0.015 A 
HETATM   15  C   UNL     1      40.363 -16.646   2.839  1.00  0.00     0.013 A 
HETATM   16  C   UNL     1      40.722 -12.717   0.025  1.00  0.00     0.020 A 
HETATM   17  C   UNL     1      41.981 -12.534   0.566  1.00  0.00     0.117 A 
BRANCH   9  18
HETATM   18  O   UNL     1      43.594 -14.990   3.335  1.00  0.00    -0.358 OA
HETATM   19  H   UNL     1      43.894 -15.828   3.749  1.00  0.00     0.218 HD
ENDBRANCH   9  18
ENDBRANCH   1   8
BRANCH   1  20
HETATM   20  C   UNL     1      43.065 -18.448   3.795  1.00  0.00    -0.031 A 
HETATM   21  C   UNL     1      44.004 -19.208   4.514  1.00  0.00     0.009 A 
HETATM   22  C   UNL     1      44.724 -20.231   3.891  1.00  0.00     0.001 A 
HETATM   23  C   UNL     1      44.521 -20.511   2.543  1.00  0.00     0.000 A 
HETATM   24  C   UNL     1      43.592 -19.774   1.814  1.00  0.00     0.001 A 
HETATM   25  C   UNL     1      42.868 -18.756   2.435  1.00  0.00     0.009 A 
ENDBRANCH   1  20
TORSDOF 5
ENDMDL
MODEL 5
REMARK VINA RESULT:      -7.3      2.149      5.789
REMARK  5 active torsions:
REMARK  status: ('A' for Active; 'I' for Inactive)
REMARK    1  A    between atoms: C_2  and  C_3 
REMARK       I    between atoms: C_3  and  N_4 
REMARK    2  A    between atoms: N_4  and  C_5 
REMARK    3  A    between atoms: C_5  and  C_6 
REMARK    4  A    between atoms: C_5  and  C_17 
REMARK    5  A    between atoms: C_7  and  O_8 
ROOT
HETATM    1  C   UNL     1      43.424 -15.914   3.704  1.00  0.00     0.154 C 
ENDROOT
BRANCH   1   2
HETATM    2  N   UNL     1      43.540 -15.918   5.159  1.00  0.00    -0.348 N 
HETATM    3  C   UNL     1      43.991 -14.829   5.864  1.00  0.00     0.218 C 
HETATM    4  O   UNL     1      44.373 -13.784   5.346  1.00  0.00    -0.274 OA
HETATM    5  H   UNL     1      43.150 -16.703   5.655  1.00  0.00     0.163 HD
BRANCH   3   6
HETATM    6  C   UNL     1      43.921 -14.989   7.370  1.00  0.00     0.098 C 
HETATM    7  C   UNL     1      43.488 -16.378   7.806  1.00  0.00     0.014 C 
ENDBRANCH   3   6
ENDBRANCH   1   2
BRANCH   1   8
HETATM    8  C   UNL     1      43.468 -17.351   3.192  1.00  0.00     0.005 A 
HETATM    9  C   UNL     1      44.056 -18.377   3.946  1.00  0.00     0.103 A 
HETATM   10  C   UNL     1      44.145 -19.697   3.501  1.00  0.00     0.100 A 
HETATM   11  C   UNL     1      43.616 -20.007   2.234  1.00  0.00    -0.004 A 
HETATM   12  N   UNL     1      44.738 -20.619   4.290  1.00  0.00    -0.257 NA
HETATM   13  C   UNL     1      43.021 -19.001   1.456  1.00  0.00     0.014 A 
HETATM   14  C   UNL     1      43.719 -21.332   1.789  1.00  0.00     0.015 A 
HETATM   15  C   UNL     1      42.953 -17.688   1.929  1.00  0.00     0.013 A 
HETATM   16  C   UNL     1      44.330 -22.286   2.595  1.00  0.00     0.020 A 
HETATM   17  C   UNL     1      44.819 -21.885   3.825  1.00  0.00     0.117 A 
BRANCH   9  18
HETATM   18  O   UNL     1      44.597 -18.088   5.179  1.00  0.00    -0.358 OA
HETATM   19  H   UNL     1      44.000 -17.403   5.549  1.00  0.00     0.218 HD
ENDBRANCH   9  18
ENDBRANCH   1   8
BRANCH   1  20
HETATM   20  C   UNL     1      42.173 -15.181   3.208  1.00  0.00    -0.031 A 
HETATM   21  C   UNL     1      40.877 -15.467   3.673  1.00  0.00     0.009 A 
HETATM   22  C   UNL     1      39.769 -14.780   3.170  1.00  0.00     0.001 A 
HETATM   23  C   UNL     1      39.934 -13.801   2.195  1.00  0.00     0.000 A 
HETATM   24  C   UNL     1      41.208 -13.499   1.724  1.00  0.00     0.001 A 
HETATM   25  C   UNL     1      42.317 -14.179   2.228  1.00  0.00     0.009 A 
ENDBRANCH   1  20
TORSDOF 5
ENDMDL
MODEL 6
REMARK VINA RESULT:      -7.1      2.313      6.642
REMARK  5 active torsions:
REMARK  status: ('A' for Active; 'I' for Inactive)
REMARK    1  A    between atoms: C_2  and  C_3 
REMARK       I    between atoms: C_3  and  N_4 
REMARK    2  A    between atoms: N_4  and  C_5 
REMARK    3  A    between atoms: C_5  and  C_6 
REMARK    4  A    between atoms: C_5  and  C_17 
REMARK    5  A    between atoms: C_7  and  O_8 
ROOT
HETATM    1  C   UNL     1      41.290 -15.718   2.729  1.00  0.00     0.154 C 
ENDROOT
BRANCH   1   2
HETATM    2  N   UNL     1      41.674 -15.208   1.416  1.00  0.00    -0.348 N 
HETATM    3  C   UNL     1      40.758 -14.707   0.524  1.00  0.00     0.218 C 
HETATM    4  O   UNL     1      39.548 -14.679   0.723  1.00  0.00    -0.274 OA
HETATM    5  H   UNL     1      42.658 -15.107   1.226  1.00  0.00     0.163 HD
BRANCH   3   6
HETATM    6  C   UNL     1      41.371 -14.114  -0.730  1.00  0.00     0.098 C 
HETATM    7  C   UNL     1      40.355 -13.431  -1.628  1.00  0.00     0.014 C 
ENDBRANCH   3   6
ENDBRANCH   1   2
BRANCH   1   8
HETATM    8  C   UNL     1      42.223 -16.861   3.118  1.00  0.00     0.005 A 
HETATM    9  C   UNL     1      42.319 -18.023   2.338  1.00  0.00     0.103 A 
HETATM   10  C   UNL     1      43.136 -19.103   2.675  1.00  0.00     0.100 A 
HETATM   11  C   UNL     1      43.897 -19.017   3.855  1.00  0.00    -0.004 A 
HETATM   12  N   UNL     1      43.158 -20.188   1.869  1.00  0.00    -0.257 NA
HETATM   13  C   UNL     1      43.822 -17.867   4.657  1.00  0.00     0.014 A 
HETATM   14  C   UNL     1      44.707 -20.110   4.192  1.00  0.00     0.015 A 
HETATM   15  C   UNL     1      42.991 -16.804   4.293  1.00  0.00     0.013 A 
HETATM   16  C   UNL     1      44.733 -21.230   3.369  1.00  0.00     0.020 A 
HETATM   17  C   UNL     1      43.949 -21.222   2.231  1.00  0.00     0.117 A 
BRANCH   9  18
HETATM   18  O   UNL     1      41.565 -18.134   1.191  1.00  0.00    -0.358 OA
HETATM   19  H   UNL     1      40.645 -18.233   1.516  1.00  0.00     0.218 HD
ENDBRANCH   9  18
ENDBRANCH   1   8
BRANCH   1  20
HETATM   20  C   UNL     1      41.260 -14.628   3.806  1.00  0.00    -0.031 A 
HETATM   21  C   UNL     1      42.159 -13.548   3.833  1.00  0.00     0.009 A 
HETATM   22  C   UNL     1      42.100 -12.593   4.852  1.00  0.00     0.001 A 
HETATM   23  C   UNL     1      41.145 -12.701   5.860  1.00  0.00     0.000 A 
HETATM   24  C   UNL     1      40.242 -13.760   5.848  1.00  0.00     0.001 A 
HETATM   25  C   UNL     1      40.296 -14.712   4.829  1.00  0.00     0.009 A 
ENDBRANCH   1  20
TORSDOF 5
ENDMDL
MODEL 7
REMARK VINA RESULT:      -7.0      2.890      7.426
REMARK  5 active torsions:
REMARK  status: ('A' for Active; 'I' for Inactive)
REMARK    1  A    between atoms: C_2  and  C_3 
REMARK       I    between atoms: C_3  and  N_4 
REMARK    2  A    between atoms: N_4  and  C_5 
REMARK    3  A    between atoms: C_5  and  C_6 
REMARK    4  A    between atoms: C_5  and  C_17 
REMARK    5  A    between atoms: C_7  and  O_8 
ROOT
HETATM    1  C   UNL     1      40.144 -14.165  -0.392  1.00  0.00     0.154 C 
ENDROOT
BRANCH   1   2
HETATM    2  N   UNL     1      39.553 -14.798  -1.566  1.00  0.00    -0.348 N 
HETATM    3  C   UNL     1      38.441 -14.292  -2.195  1.00  0.00     0.218 C 
HETATM    4  O   UNL     1      37.825 -13.303  -1.812  1.00  0.00    -0.274 OA
HETATM    5  H   UNL     1      40.063 -15.554  -1.995  1.00  0.00     0.163 HD
BRANCH   3   6
HETATM    6  C   UNL     1      38.058 -15.023  -3.467  1.00  0.00     0.098 C 
HETATM    7  C   UNL     1      39.161 -15.920  -3.999  1.00  0.00     0.014 C 
ENDBRANCH   3   6
ENDBRANCH   1   2
BRANCH   1   8
HETATM    8  C   UNL     1      40.729 -15.240   0.518  1.00  0.00     0.005 A 
HETATM    9  C   UNL     1      40.543 -15.201   1.908  1.00  0.00     0.103 A 
HETATM   10  C   UNL     1      41.088 -16.147   2.778  1.00  0.00     0.100 A 
HETATM   11  C   UNL     1      41.861 -17.187   2.229  1.00  0.00    -0.004 A 
HETATM   12  N   UNL     1      40.865 -16.025   4.105  1.00  0.00    -0.257 NA
HETATM   13  C   UNL     1      42.065 -17.252   0.841  1.00  0.00     0.014 A 
HETATM   14  C   UNL     1      42.414 -18.126   3.110  1.00  0.00     0.015 A 
HETATM   15  C   UNL     1      41.509 -16.286  -0.002  1.00  0.00     0.013 A 
HETATM   16  C   UNL     1      42.190 -18.006   4.477  1.00  0.00     0.020 A 
HETATM   17  C   UNL     1      41.418 -16.950   4.922  1.00  0.00     0.117 A 
BRANCH   9  18
HETATM   18  O   UNL     1      39.807 -14.179   2.466  1.00  0.00    -0.358 OA
HETATM   19  H   UNL     1      39.807 -14.379   3.427  1.00  0.00     0.218 HD
ENDBRANCH   9  18
ENDBRANCH   1   8
BRANCH   1  20
HETATM   20  C   UNL     1      41.190 -13.103  -0.750  1.00  0.00    -0.031 A 
HETATM   21  C   UNL     1      41.486 -12.004   0.074  1.00  0.00     0.009 A 
HETATM   22  C   UNL     1      42.435 -11.054  -0.313  1.00  0.00     0.001 A 
HETATM   23  C   UNL     1      43.103 -11.185  -1.528  1.00  0.00     0.000 A 
HETATM   24  C   UNL     1      42.829 -12.269  -2.356  1.00  0.00     0.001 A 
HETATM   25  C   UNL     1      41.885 -13.221  -1.970  1.00  0.00     0.009 A 
ENDBRANCH   1  20
TORSDOF 5
ENDMDL
MODEL 8
REMARK VINA RESULT:      -7.0      2.323      6.069
REMARK  5 active torsions:
REMARK  status: ('A' for Active; 'I' for Inactive)
REMARK    1  A    between atoms: C_2  and  C_3 
REMARK       I    between atoms: C_3  and  N_4 
REMARK    2  A    between atoms: N_4  and  C_5 
REMARK    3  A    between atoms: C_5  and  C_6 
REMARK    4  A    between atoms: C_5  and  C_17 
REMARK    5  A    between atoms: C_7  and  O_8 
ROOT
HETATM    1  C   UNL     1      43.524 -16.321   3.813  1.00  0.00     0.154 C 
ENDROOT
BRANCH   1   2
HETATM    2  N   UNL     1      43.220 -15.384   4.891  1.00  0.00    -0.348 N 
HETATM    3  C   UNL     1      43.514 -14.045   4.807  1.00  0.00     0.218 C 
HETATM    4  O   UNL     1      44.088 -13.525   3.856  1.00  0.00    -0.274 OA
HETATM    5  H   UNL     1      42.660 -15.722   5.657  1.00  0.00     0.163 HD
BRANCH   3   6
HETATM    6  C   UNL     1      43.007 -13.222   5.976  1.00  0.00     0.098 C 
HETATM    7  C   UNL     1      41.547 -12.830   5.844  1.00  0.00     0.014 C 
ENDBRANCH   3   6
ENDBRANCH   1   2
BRANCH   1   8
HETATM    8  C   UNL     1      43.781 -17.703   4.406  1.00  0.00     0.005 A 
HETATM    9  C   UNL     1      44.117 -18.795   3.592  1.00  0.00     0.103 A 
HETATM   10  C   UNL     1      44.328 -20.082   4.090  1.00  0.00     0.100 A 
HETATM   11  C   UNL     1      44.198 -20.287   5.476  1.00  0.00    -0.004 A 
HETATM   12  N   UNL     1      44.638 -21.077   3.231  1.00  0.00    -0.257 NA
HETATM   13  C   UNL     1      43.863 -19.213   6.316  1.00  0.00     0.014 A 
HETATM   14  C   UNL     1      44.401 -21.584   5.967  1.00  0.00     0.015 A 
HETATM   15  C   UNL     1      43.653 -17.938   5.785  1.00  0.00     0.013 A 
HETATM   16  C   UNL     1      44.718 -22.614   5.089  1.00  0.00     0.020 A 
HETATM   17  C   UNL     1      44.824 -22.314   3.743  1.00  0.00     0.117 A 
BRANCH   9  18
HETATM   18  O   UNL     1      44.229 -18.618   2.231  1.00  0.00    -0.358 OA
HETATM   19  H   UNL     1      45.164 -18.842   2.035  1.00  0.00     0.218 HD
ENDBRANCH   9  18
ENDBRANCH   1   8
BRANCH   1  20
HETATM   20  C   UNL     1      42.433 -16.366   2.738  1.00  0.00    -0.031 A 
HETATM   21  C   UNL     1      41.154 -16.906   2.961  1.00  0.00     0.009 A 
HETATM   22  C   UNL     1      40.204 -16.941   1.937  1.00  0.00     0.001 A 
HETATM   23  C   UNL     1      40.513 -16.440   0.675  1.00  0.00     0.000 A 
HETATM   24  C   UNL     1      41.772 -15.896   0.435  1.00  0.00     0.001 A 
HETATM   25  C   UNL     1      42.721 -15.856   1.457  1.00  0.00     0.009 A 
ENDBRANCH   1  20
TORSDOF 5
ENDMDL
MODEL 9
REMARK VINA RESULT:      -7.0      1.842      4.119
REMARK  5 active torsions:
REMARK  status: ('A' for Active; 'I' for Inactive)
REMARK    1  A    between atoms: C_2  and  C_3 
REMARK       I    between atoms: C_3  and  N_4 
REMARK    2  A    between atoms: N_4  and  C_5 
REMARK    3  A    between atoms: C_5  and  C_6 
REMARK    4  A    between atoms: C_5  and  C_17 
REMARK    5  A    between atoms: C_7  and  O_8 
ROOT
HETATM    1  C   UNL     1      43.573 -17.023   3.824  1.00  0.00     0.154 C 
ENDROOT
BRANCH   1   2
HETATM    2  N   UNL     1      43.150 -18.292   3.240  1.00  0.00    -0.348 N 
HETATM    3  C   UNL     1      43.571 -18.709   2.000  1.00  0.00     0.218 C 
HETATM    4  O   UNL     1      44.295 -18.049   1.262  1.00  0.00    -0.274 OA
HETATM    5  H   UNL     1      42.638 -18.929   3.829  1.00  0.00     0.163 HD
BRANCH   3   6
HETATM    6  C   UNL     1      43.120 -20.107   1.627  1.00  0.00     0.098 C 
HETATM    7  C   UNL     1      44.035 -21.195   2.159  1.00  0.00     0.014 C 
ENDBRANCH   3   6
ENDBRANCH   1   2
BRANCH   1   8
HETATM    8  C   UNL     1      42.742 -15.892   3.226  1.00  0.00     0.005 A 
HETATM    9  C   UNL     1      41.362 -16.032   3.017  1.00  0.00     0.103 A 
HETATM   10  C   UNL     1      40.572 -15.034   2.444  1.00  0.00     0.100 A 
HETATM   11  C   UNL     1      41.195 -13.832   2.060  1.00  0.00    -0.004 A 
HETATM   12  N   UNL     1      39.251 -15.260   2.271  1.00  0.00    -0.257 NA
HETATM   13  C   UNL     1      42.575 -13.663   2.256  1.00  0.00     0.014 A 
HETATM   14  C   UNL     1      40.397 -12.840   1.475  1.00  0.00     0.015 A 
HETATM   15  C   UNL     1      43.339 -14.684   2.829  1.00  0.00     0.013 A 
HETATM   16  C   UNL     1      39.037 -13.065   1.292  1.00  0.00     0.020 A 
HETATM   17  C   UNL     1      38.516 -14.278   1.702  1.00  0.00     0.117 A 
BRANCH   9  18
HETATM   18  O   UNL     1      40.738 -17.208   3.368  1.00  0.00    -0.358 OA
HETATM   19  H   UNL     1      40.400 -17.042   4.274  1.00  0.00     0.218 HD
ENDBRANCH   9  18
ENDBRANCH   1   8
BRANCH   1  20
HETATM   20  C   UNL     1      43.503 -17.020   5.355  1.00  0.00    -0.031 A 
HETATM   21  C   UNL     1      43.085 -18.131   6.109  1.00  0.00     0.009 A 
HETATM   22  C   UNL     1      43.021 -18.066   7.504  1.00  0.00     0.001 A 
HETATM   23  C   UNL     1      43.370 -16.893   8.167  1.00  0.00     0.000 A 
HETATM   24  C   UNL     1      43.791 -15.783   7.440  1.00  0.00     0.001 A 
HETATM   25  C   UNL     1      43.861 -15.848   6.048  1.00  0.00     0.009 A 
ENDBRANCH   1  20
TORSDOF 5
ENDMDL
MODEL 10
REMARK VINA RESULT:      -7.0      3.096      5.217
REMARK  5 active torsions:
REMARK  status: ('A' for Active; 'I' for Inactive)
REMARK    1  A    between atoms: C_2  and  C_3 
REMARK       I    between atoms: C_3  and  N_4 
REMARK    2  A    between atoms: N_4  and  C_5 
REMARK    3  A    between atoms: C_5  and  C_6 
REMARK    4  A    between atoms: C_5  and  C_17 
REMARK    5  A    between atoms: C_7  and  O_8 
ROOT
HETATM    1  C   UNL     1      42.389 -15.509   1.692  1.00  0.00     0.154 C 
ENDROOT
BRANCH   1   2
HETATM    2  N   UNL     1      41.542 -15.696   0.518  1.00  0.00    -0.348 N 
HETATM    3  C   UNL     1      41.444 -14.753  -0.476  1.00  0.00     0.218 C 
HETATM    4  O   UNL     1      42.014 -13.667  -0.453  1.00  0.00    -0.274 OA
HETATM    5  H   UNL     1      41.125 -16.603   0.383  1.00  0.00     0.163 HD
BRANCH   3   6
HETATM    6  C   UNL     1      40.612 -15.187  -1.667  1.00  0.00     0.098 C 
HETATM    7  C   UNL     1      41.326 -15.009  -2.995  1.00  0.00     0.014 C 
ENDBRANCH   3   6
ENDBRANCH   1   2
BRANCH   1   8
HETATM    8  C   UNL     1      41.602 -14.764   2.766  1.00  0.00     0.005 A 
HETATM    9  C   UNL     1      41.856 -13.415   3.054  1.00  0.00     0.103 A 
HETATM   10  C   UNL     1      41.181 -12.706   4.050  1.00  0.00     0.100 A 
HETATM   11  C   UNL     1      40.200 -13.382   4.796  1.00  0.00    -0.004 A 
HETATM   12  N   UNL     1      41.500 -11.411   4.265  1.00  0.00    -0.257 NA
HETATM   13  C   UNL     1      39.922 -14.733   4.531  1.00  0.00     0.014 A 
HETATM   14  C   UNL     1      39.534 -12.668   5.801  1.00  0.00     0.015 A 
HETATM   15  C   UNL     1      40.619 -15.416   3.530  1.00  0.00     0.013 A 
HETATM   16  C   UNL     1      39.857 -11.335   6.030  1.00  0.00     0.020 A 
HETATM   17  C   UNL     1      40.837 -10.757   5.245  1.00  0.00     0.117 A 
BRANCH   9  18
HETATM   18  O   UNL     1      42.828 -12.742   2.347  1.00  0.00    -0.358 OA
HETATM   19  H   UNL     1      42.589 -12.891   1.407  1.00  0.00     0.218 HD
ENDBRANCH   9  18
ENDBRANCH   1   8
BRANCH   1  20
HETATM   20  C   UNL     1      42.960 -16.826   2.229  1.00  0.00    -0.031 A 
HETATM   21  C   UNL     1      43.470 -16.970   3.532  1.00  0.00     0.009 A 
HETATM   22  C   UNL     1      43.999 -18.190   3.962  1.00  0.00     0.001 A 
HETATM   23  C   UNL     1      44.030 -19.283   3.101  1.00  0.00     0.000 A 
HETATM   24  C   UNL     1      43.526 -19.164   1.810  1.00  0.00     0.001 A 
HETATM   25  C   UNL     1      42.992 -17.948   1.379  1.00  0.00     0.009 A 
ENDBRANCH   1  20
TORSDOF 5
ENDMDL
