MODEL 1
REMARK VINA RESULT:      -8.6      0.000      0.000
REMARK  4 active torsions:
REMARK  status: ('A' for Active; 'I' for Inactive)
REMARK    1  A    between atoms: C_7  and  C_8 
REMARK    2  A    between atoms: C_8  and  N_9 
REMARK    3  A    between atoms: N_9  and  C_10 
REMARK    4  A    between atoms: N_16  and  C_17 
ROOT
HETATM    1  C   UNL     1      43.682 -16.152   6.885  1.00  0.00     0.141 A 
HETATM    2  N   UNL     1      44.598 -15.152   6.855  1.00  0.00    -0.224 NA
HETATM    3  C   UNL     1      44.235 -13.954   6.353  1.00  0.00     0.237 A 
HETATM    4  N   UNL     1      43.052 -13.603   5.837  1.00  0.00    -0.221 NA
HETATM    5  C   UNL     1      42.163 -14.618   5.851  1.00  0.00     0.186 A 
HETATM    6  C   UNL     1      42.413 -15.887   6.349  1.00  0.00     0.077 A 
HETATM    7  N   UNL     1      40.849 -14.623   5.391  1.00  0.00    -0.041 N 
HETATM    8  N   UNL     1      40.259 -15.853   5.585  1.00  0.00    -0.162 NA
HETATM    9  C   UNL     1      41.214 -16.592   6.146  1.00  0.00     0.159 A 
ENDROOT
BRANCH   1  10
HETATM   10  N   UNL     1      44.019 -17.396   7.399  1.00  0.00    -0.367 N 
HETATM   11  H   UNL     1      43.990 -17.460   8.408  1.00  0.00     0.161 HD
BRANCH  10  12
HETATM   12  C   UNL     1      45.133 -18.121   6.793  1.00  0.00     0.199 C 
BRANCH  12  13
HETATM   13  C   UNL     1      44.806 -18.867   5.540  1.00  0.00     0.123 A 
HETATM   14  N   UNL     1      44.989 -20.224   5.451  1.00  0.00    -0.341 N 
HETATM   15  C   UNL     1      44.594 -20.634   4.205  1.00  0.00     0.063 A 
HETATM   16  H   UNL     1      45.370 -20.794   6.195  1.00  0.00     0.167 HD
HETATM   17  C   UNL     1      44.188 -19.464   3.571  1.00  0.00     0.091 A 
HETATM   18  C   UNL     1      44.564 -21.891   3.599  1.00  0.00     0.032 A 
HETATM   19  C   UNL     1      43.724 -19.515   2.241  1.00  0.00    -0.031 A 
HETATM   20  N   UNL     1      44.320 -18.383   4.414  1.00  0.00    -0.231 NA
HETATM   21  C   UNL     1      43.281 -18.300   1.481  1.00  0.00     0.050 C 
HETATM   22  C   UNL     1      43.687 -20.780   1.617  1.00  0.00     0.009 A 
HETATM   23  C   UNL     1      44.097 -21.938   2.284  1.00  0.00     0.003 A 
ENDBRANCH  12  13
ENDBRANCH  10  12
ENDBRANCH   1  10
BRANCH   7  24
HETATM   24  C   UNL     1      40.124 -13.537   4.785  1.00  0.00     0.750 A 
HETATM   25  N   UNL     1      39.899 -13.563   3.454  1.00  0.00    -0.073 NA
HETATM   26  C   UNL     1      39.216 -12.528   2.928  1.00  0.00     0.138 A 
HETATM   27  C   UNL     1      38.750 -11.471   3.671  1.00  0.00     0.040 A 
HETATM   28  C   UNL     1      39.024 -11.526   5.014  1.00  0.00     0.138 A 
HETATM   29  N   UNL     1      39.701 -12.534   5.592  1.00  0.00    -0.073 NA
ENDBRANCH   7  24
TORSDOF 4
ENDMDL
MODEL 2
REMARK VINA RESULT:      -8.5      2.209      4.432
REMARK  4 active torsions:
REMARK  status: ('A' for Active; 'I' for Inactive)
REMARK    1  A    between atoms: C_7  and  C_8 
REMARK    2  A    between atoms: C_8  and  N_9 
REMARK    3  A    between atoms: N_9  and  C_10 
REMARK    4  A    between atoms: N_16  and  C_17 
ROOT
HETATM    1  C   UNL     1      42.357 -15.106   4.600  1.00  0.00     0.141 A 
HETATM    2  N   UNL     1      41.626 -14.042   4.182  1.00  0.00    -0.224 NA
HETATM    3  C   UNL     1      41.778 -12.861   4.815  1.00  0.00     0.237 A 
HETATM    4  N   UNL     1      42.569 -12.583   5.857  1.00  0.00    -0.221 NA
HETATM    5  C   UNL     1      43.268 -13.658   6.275  1.00  0.00     0.186 A 
HETATM    6  C   UNL     1      43.206 -14.919   5.702  1.00  0.00     0.077 A 
HETATM    7  N   UNL     1      44.173 -13.746   7.329  1.00  0.00    -0.041 N 
HETATM    8  N   UNL     1      44.687 -15.020   7.439  1.00  0.00    -0.162 NA
HETATM    9  C   UNL     1      44.087 -15.702   6.465  1.00  0.00     0.159 A 
ENDROOT
BRANCH   1  10
HETATM   10  N   UNL     1      42.230 -16.335   3.969  1.00  0.00    -0.367 N 
HETATM   11  H   UNL     1      41.785 -17.053   4.525  1.00  0.00     0.161 HD
BRANCH  10  12
HETATM   12  C   UNL     1      43.345 -16.821   3.160  1.00  0.00     0.199 C 
BRANCH  12  13
HETATM   13  C   UNL     1      43.708 -18.256   3.365  1.00  0.00     0.123 A 
HETATM   14  N   UNL     1      44.048 -18.735   4.606  1.00  0.00    -0.341 N 
HETATM   15  C   UNL     1      44.314 -20.074   4.497  1.00  0.00     0.063 A 
HETATM   16  H   UNL     1      44.101 -18.162   5.438  1.00  0.00     0.167 HD
HETATM   17  C   UNL     1      44.129 -20.352   3.146  1.00  0.00     0.091 A 
HETATM   18  C   UNL     1      44.694 -21.032   5.437  1.00  0.00     0.032 A 
HETATM   19  C   UNL     1      44.335 -21.661   2.668  1.00  0.00    -0.031 A 
HETATM   20  N   UNL     1      43.748 -19.217   2.463  1.00  0.00    -0.231 NA
HETATM   21  C   UNL     1      44.171 -22.041   1.226  1.00  0.00     0.050 C 
HETATM   22  C   UNL     1      44.718 -22.640   3.608  1.00  0.00     0.009 A 
HETATM   23  C   UNL     1      44.891 -22.330   4.960  1.00  0.00     0.003 A 
ENDBRANCH  12  13
ENDBRANCH  10  12
ENDBRANCH   1  10
BRANCH   7  24
HETATM   24  C   UNL     1      44.578 -12.699   8.230  1.00  0.00     0.750 A 
HETATM   25  N   UNL     1      43.632 -12.045   8.940  1.00  0.00    -0.073 NA
HETATM   26  C   UNL     1      44.054 -11.074   9.772  1.00  0.00     0.138 A 
HETATM   27  C   UNL     1      45.375 -10.729   9.928  1.00  0.00     0.040 A 
HETATM   28  C   UNL     1      46.265 -11.444   9.169  1.00  0.00     0.138 A 
HETATM   29  N   UNL     1      45.901 -12.423   8.322  1.00  0.00    -0.073 NA
ENDBRANCH   7  24
TORSDOF 4
ENDMDL
MODEL 3
REMARK VINA RESULT:      -8.5      2.656      3.350
REMARK  4 active torsions:
REMARK  status: ('A' for Active; 'I' for Inactive)
REMARK    1  A    between atoms: C_7  and  C_8 
REMARK    2  A    between atoms: C_8  and  N_9 
REMARK    3  A    between atoms: N_9  and  C_10 
REMARK    4  A    between atoms: N_16  and  C_17 
ROOT
HETATM    1  C   UNL     1      42.831 -15.519   4.936  1.00  0.00     0.141 A 
HETATM    2  N   UNL     1      43.553 -14.378   4.806  1.00  0.00    -0.224 NA
HETATM    3  C   UNL     1      43.408 -13.643   3.684  1.00  0.00     0.237 A 
HETATM    4  N   UNL     1      42.633 -13.902   2.626  1.00  0.00    -0.221 NA
HETATM    5  C   UNL     1      41.943 -15.053   2.762  1.00  0.00     0.186 A 
HETATM    6  C   UNL     1      41.999 -15.888   3.868  1.00  0.00     0.077 A 
HETATM    7  N   UNL     1      41.054 -15.641   1.866  1.00  0.00    -0.041 N 
HETATM    8  N   UNL     1      40.544 -16.818   2.371  1.00  0.00    -0.162 NA
HETATM    9  C   UNL     1      41.131 -16.948   3.559  1.00  0.00     0.159 A 
ENDROOT
BRANCH   1  10
HETATM   10  N   UNL     1      42.951 -16.298   6.078  1.00  0.00    -0.367 N 
HETATM   11  H   UNL     1      42.586 -15.875   6.921  1.00  0.00     0.161 HD
BRANCH  10  12
HETATM   12  C   UNL     1      44.189 -17.047   6.283  1.00  0.00     0.199 C 
BRANCH  12  13
HETATM   13  C   UNL     1      44.277 -18.351   5.557  1.00  0.00     0.123 A 
HETATM   14  N   UNL     1      44.537 -19.521   6.224  1.00  0.00    -0.341 N 
HETATM   15  C   UNL     1      44.542 -20.547   5.317  1.00  0.00     0.063 A 
HETATM   16  H   UNL     1      44.709 -19.579   7.220  1.00  0.00     0.167 HD
HETATM   17  C   UNL     1      44.289 -19.927   4.097  1.00  0.00     0.091 A 
HETATM   18  C   UNL     1      44.747 -21.919   5.457  1.00  0.00     0.032 A 
HETATM   19  C   UNL     1      44.236 -20.698   2.919  1.00  0.00    -0.031 A 
HETATM   20  N   UNL     1      44.120 -18.570   4.266  1.00  0.00    -0.231 NA
HETATM   21  C   UNL     1      43.982 -20.107   1.564  1.00  0.00     0.050 C 
HETATM   22  C   UNL     1      44.440 -22.088   3.047  1.00  0.00     0.009 A 
HETATM   23  C   UNL     1      44.687 -22.682   4.288  1.00  0.00     0.003 A 
ENDBRANCH  12  13
ENDBRANCH  10  12
ENDBRANCH   1  10
BRANCH   7  24
HETATM   24  C   UNL     1      40.661 -15.154   0.570  1.00  0.00     0.750 A 
HETATM   25  N   UNL     1      39.715 -14.193   0.491  1.00  0.00    -0.073 NA
HETATM   26  C   UNL     1      39.379 -13.764  -0.740  1.00  0.00     0.138 A 
HETATM   27  C   UNL     1      39.943 -14.252  -1.894  1.00  0.00     0.040 A 
HETATM   28  C   UNL     1      40.894 -15.226  -1.720  1.00  0.00     0.138 A 
HETATM   29  N   UNL     1      41.269 -15.691  -0.515  1.00  0.00    -0.073 NA
ENDBRANCH   7  24
TORSDOF 4
ENDMDL
MODEL 4
REMARK VINA RESULT:      -8.5      3.528      8.608
REMARK  4 active torsions:
REMARK  status: ('A' for Active; 'I' for Inactive)
REMARK    1  A    between atoms: C_7  and  C_8 
REMARK    2  A    between atoms: C_8  and  N_9 
REMARK    3  A    between atoms: N_9  and  C_10 
REMARK    4  A    between atoms: N_16  and  C_17 
ROOT
HETATM    1  C   UNL     1      41.913 -13.784   5.395  1.00  0.00     0.141 A 
HETATM    2  N   UNL     1      42.764 -13.156   4.546  1.00  0.00    -0.224 NA
HETATM    3  C   UNL     1      43.490 -13.900   3.687  1.00  0.00     0.237 A 
HETATM    4  N   UNL     1      43.506 -15.231   3.562  1.00  0.00    -0.221 NA
HETATM    5  C   UNL     1      42.673 -15.840   4.432  1.00  0.00     0.186 A 
HETATM    6  C   UNL     1      41.870 -15.186   5.354  1.00  0.00     0.077 A 
HETATM    7  N   UNL     1      42.438 -17.202   4.597  1.00  0.00    -0.041 N 
HETATM    8  N   UNL     1      41.510 -17.431   5.590  1.00  0.00    -0.162 NA
HETATM    9  C   UNL     1      41.195 -16.215   6.032  1.00  0.00     0.159 A 
ENDROOT
BRANCH   1  10
HETATM   10  N   UNL     1      41.146 -13.050   6.289  1.00  0.00    -0.367 N 
HETATM   11  H   UNL     1      40.156 -13.254   6.266  1.00  0.00     0.161 HD
BRANCH  10  12
HETATM   12  C   UNL     1      41.454 -11.634   6.471  1.00  0.00     0.199 C 
BRANCH  12  13
HETATM   13  C   UNL     1      41.996 -11.262   7.813  1.00  0.00     0.123 A 
HETATM   14  N   UNL     1      41.166 -10.872   8.834  1.00  0.00    -0.341 N 
HETATM   15  C   UNL     1      41.930 -10.612   9.940  1.00  0.00     0.063 A 
HETATM   16  H   UNL     1      40.161 -10.786   8.744  1.00  0.00     0.167 HD
HETATM   17  C   UNL     1      43.235 -10.852   9.520  1.00  0.00     0.091 A 
HETATM   18  C   UNL     1      41.599 -10.194  11.228  1.00  0.00     0.032 A 
HETATM   19  C   UNL     1      44.303 -10.665  10.419  1.00  0.00    -0.031 A 
HETATM   20  N   UNL     1      43.255 -11.260   8.204  1.00  0.00    -0.231 NA
HETATM   21  C   UNL     1      45.738 -10.888  10.043  1.00  0.00     0.050 C 
HETATM   22  C   UNL     1      43.982 -10.244  11.726  1.00  0.00     0.009 A 
HETATM   23  C   UNL     1      42.660 -10.016  12.119  1.00  0.00     0.003 A 
ENDBRANCH  12  13
ENDBRANCH  10  12
ENDBRANCH   1  10
BRANCH   7  24
HETATM   24  C   UNL     1      43.036 -18.292   3.871  1.00  0.00     0.750 A 
HETATM   25  N   UNL     1      44.012 -19.015   4.463  1.00  0.00    -0.073 NA
HETATM   26  C   UNL     1      44.543 -20.026   3.749  1.00  0.00     0.138 A 
HETATM   27  C   UNL     1      44.144 -20.346   2.474  1.00  0.00     0.040 A 
HETATM   28  C   UNL     1      43.149 -19.560   1.951  1.00  0.00     0.138 A 
HETATM   29  N   UNL     1      42.583 -18.538   2.618  1.00  0.00    -0.073 NA
ENDBRANCH   7  24
TORSDOF 4
ENDMDL
MODEL 5
REMARK VINA RESULT:      -8.4      5.095      6.879
REMARK  4 active torsions:
REMARK  status: ('A' for Active; 'I' for Inactive)
REMARK    1  A    between atoms: C_7  and  C_8 
REMARK    2  A    between atoms: C_8  and  N_9 
REMARK    3  A    between atoms: N_9  and  C_10 
REMARK    4  A    between atoms: N_16  and  C_17 
ROOT
HETATM    1  C   UNL     1      41.310 -15.384  -0.169  1.00  0.00     0.141 A 
HETATM    2  N   UNL     1      41.609 -14.453   0.771  1.00  0.00    -0.224 NA
HETATM    3  C   UNL     1      41.719 -13.163   0.394  1.00  0.00     0.237 A 
HETATM    4  N   UNL     1      41.591 -12.651  -0.834  1.00  0.00    -0.221 NA
HETATM    5  C   UNL     1      41.321 -13.595  -1.759  1.00  0.00     0.186 A 
HETATM    6  C   UNL     1      41.173 -14.948  -1.495  1.00  0.00     0.077 A 
HETATM    7  N   UNL     1      41.133 -13.435  -3.130  1.00  0.00    -0.041 N 
HETATM    8  N   UNL     1      40.870 -14.642  -3.740  1.00  0.00    -0.162 NA
HETATM    9  C   UNL     1      40.910 -15.529  -2.747  1.00  0.00     0.159 A 
ENDROOT
BRANCH   1  10
HETATM   10  N   UNL     1      41.184 -16.721   0.183  1.00  0.00    -0.367 N 
HETATM   11  H   UNL     1      40.664 -17.286  -0.476  1.00  0.00     0.161 HD
BRANCH  10  12
HETATM   12  C   UNL     1      40.918 -17.050   1.581  1.00  0.00     0.199 C 
BRANCH  12  13
HETATM   13  C   UNL     1      41.947 -17.907   2.245  1.00  0.00     0.123 A 
HETATM   14  N   UNL     1      42.491 -17.559   3.455  1.00  0.00    -0.341 N 
HETATM   15  C   UNL     1      43.384 -18.529   3.825  1.00  0.00     0.063 A 
HETATM   16  H   UNL     1      42.262 -16.709   3.956  1.00  0.00     0.167 HD
HETATM   17  C   UNL     1      43.347 -19.446   2.779  1.00  0.00     0.091 A 
HETATM   18  C   UNL     1      44.198 -18.672   4.949  1.00  0.00     0.032 A 
HETATM   19  C   UNL     1      44.170 -20.589   2.823  1.00  0.00    -0.031 A 
HETATM   20  N   UNL     1      42.448 -19.048   1.814  1.00  0.00    -0.231 NA
HETATM   21  C   UNL     1      44.201 -21.618   1.732  1.00  0.00     0.050 C 
HETATM   22  C   UNL     1      44.998 -20.747   3.954  1.00  0.00     0.009 A 
HETATM   23  C   UNL     1      45.008 -19.810   4.992  1.00  0.00     0.003 A 
ENDBRANCH  12  13
ENDBRANCH  10  12
ENDBRANCH   1  10
BRANCH   7  24
HETATM   24  C   UNL     1      41.188 -12.213  -3.888  1.00  0.00     0.750 A 
HETATM   25  N   UNL     1      42.394 -11.709  -4.231  1.00  0.00    -0.073 NA
HETATM   26  C   UNL     1      42.399 -10.565  -4.941  1.00  0.00     0.138 A 
HETATM   27  C   UNL     1      41.257  -9.904  -5.324  1.00  0.00     0.040 A 
HETATM   28  C   UNL     1      40.079 -10.486  -4.934  1.00  0.00     0.138 A 
HETATM   29  N   UNL     1      40.014 -11.627  -4.224  1.00  0.00    -0.073 NA
ENDBRANCH   7  24
TORSDOF 4
ENDMDL
MODEL 6
REMARK VINA RESULT:      -8.3      2.228      3.330
REMARK  4 active torsions:
REMARK  status: ('A' for Active; 'I' for Inactive)
REMARK    1  A    between atoms: C_7  and  C_8 
REMARK    2  A    between atoms: C_8  and  N_9 
REMARK    3  A    between atoms: N_9  and  C_10 
REMARK    4  A    between atoms: N_16  and  C_17 
ROOT
HETATM    1  C   UNL     1      41.849 -15.531   4.957  1.00  0.00     0.141 A 
HETATM    2  N   UNL     1      42.010 -14.251   5.376  1.00  0.00    -0.224 NA
HETATM    3  C   UNL     1      41.446 -13.258   4.660  1.00  0.00     0.237 A 
HETATM    4  N   UNL     1      40.734 -13.359   3.532  1.00  0.00    -0.221 NA
HETATM    5  C   UNL     1      40.607 -14.636   3.117  1.00  0.00     0.186 A 
HETATM    6  C   UNL     1      41.131 -15.741   3.770  1.00  0.00     0.077 A 
HETATM    7  N   UNL     1      39.948 -15.117   1.988  1.00  0.00    -0.041 N 
HETATM    8  N   UNL     1      40.036 -16.490   1.909  1.00  0.00    -0.162 NA
HETATM    9  C   UNL     1      40.754 -16.837   2.975  1.00  0.00     0.159 A 
ENDROOT
BRANCH   1  10
HETATM   10  N   UNL     1      42.412 -16.579   5.671  1.00  0.00    -0.367 N 
HETATM   11  H   UNL     1      42.197 -16.582   6.660  1.00  0.00     0.161 HD
BRANCH  10  12
HETATM   12  C   UNL     1      43.784 -16.973   5.364  1.00  0.00     0.199 C 
BRANCH  12  13
HETATM   13  C   UNL     1      43.933 -18.285   4.663  1.00  0.00     0.123 A 
HETATM   14  N   UNL     1      43.598 -18.428   3.340  1.00  0.00    -0.341 N 
HETATM   15  C   UNL     1      43.852 -19.720   2.965  1.00  0.00     0.063 A 
HETATM   16  H   UNL     1      43.213 -17.685   2.771  1.00  0.00     0.167 HD
HETATM   17  C   UNL     1      44.334 -20.325   4.122  1.00  0.00     0.091 A 
HETATM   18  C   UNL     1      43.699 -20.389   1.751  1.00  0.00     0.032 A 
HETATM   19  C   UNL     1      44.689 -21.688   4.101  1.00  0.00    -0.031 A 
HETATM   20  N   UNL     1      44.384 -19.420   5.159  1.00  0.00    -0.231 NA
HETATM   21  C   UNL     1      45.204 -22.419   5.306  1.00  0.00     0.050 C 
HETATM   22  C   UNL     1      44.541 -22.376   2.879  1.00  0.00     0.009 A 
HETATM   23  C   UNL     1      44.059 -21.739   1.732  1.00  0.00     0.003 A 
ENDBRANCH  12  13
ENDBRANCH  10  12
ENDBRANCH   1  10
BRANCH   7  24
HETATM   24  C   UNL     1      39.243 -14.357   0.990  1.00  0.00     0.750 A 
HETATM   25  N   UNL     1      39.848 -14.112  -0.193  1.00  0.00    -0.073 NA
HETATM   26  C   UNL     1      39.153 -13.399  -1.100  1.00  0.00     0.138 A 
HETATM   27  C   UNL     1      37.884 -12.919  -0.877  1.00  0.00     0.040 A 
HETATM   28  C   UNL     1      37.348 -13.214   0.350  1.00  0.00     0.138 A 
HETATM   29  N   UNL     1      37.997 -13.922   1.292  1.00  0.00    -0.073 NA
ENDBRANCH   7  24
TORSDOF 4
ENDMDL
MODEL 7
REMARK VINA RESULT:      -8.3      2.697      3.879
REMARK  4 active torsions:
REMARK  status: ('A' for Active; 'I' for Inactive)
REMARK    1  A    between atoms: C_7  and  C_8 
REMARK    2  A    between atoms: C_8  and  N_9 
REMARK    3  A    between atoms: N_9  and  C_10 
REMARK    4  A    between atoms: N_16  and  C_17 
ROOT
HETATM    1  C   UNL     1      41.834 -14.568   5.184  1.00  0.00     0.141 A 
HETATM    2  N   UNL     1      43.171 -14.421   5.356  1.00  0.00    -0.224 NA
HETATM    3  C   UNL     1      43.908 -13.937   4.335  1.00  0.00     0.237 A 
HETATM    4  N   UNL     1      43.490 -13.585   3.115  1.00  0.00    -0.221 NA
HETATM    5  C   UNL     1      42.163 -13.763   2.954  1.00  0.00     0.186 A 
HETATM    6  C   UNL     1      41.300 -14.242   3.928  1.00  0.00     0.077 A 
HETATM    7  N   UNL     1      41.387 -13.516   1.824  1.00  0.00    -0.041 N 
HETATM    8  N   UNL     1      40.062 -13.821   2.053  1.00  0.00    -0.162 NA
HETATM    9  C   UNL     1      40.039 -14.261   3.310  1.00  0.00     0.159 A 
ENDROOT
BRANCH   1  10
HETATM   10  N   UNL     1      41.044 -15.059   6.214  1.00  0.00    -0.367 N 
HETATM   11  H   UNL     1      41.271 -14.698   7.131  1.00  0.00     0.161 HD
BRANCH  10  12
HETATM   12  C   UNL     1      40.694 -16.477   6.208  1.00  0.00     0.199 C 
BRANCH  12  13
HETATM   13  C   UNL     1      41.700 -17.382   5.574  1.00  0.00     0.123 A 
HETATM   14  N   UNL     1      42.675 -17.998   6.319  1.00  0.00    -0.341 N 
HETATM   15  C   UNL     1      43.435 -18.772   5.484  1.00  0.00     0.063 A 
HETATM   16  H   UNL     1      42.793 -17.865   7.315  1.00  0.00     0.167 HD
HETATM   17  C   UNL     1      42.875 -18.573   4.225  1.00  0.00     0.091 A 
HETATM   18  C   UNL     1      44.534 -19.599   5.717  1.00  0.00     0.032 A 
HETATM   19  C   UNL     1      43.429 -19.221   3.104  1.00  0.00    -0.031 A 
HETATM   20  N   UNL     1      41.799 -17.716   4.302  1.00  0.00    -0.231 NA
HETATM   21  C   UNL     1      42.894 -19.050   1.712  1.00  0.00     0.050 C 
HETATM   22  C   UNL     1      44.540 -20.061   3.326  1.00  0.00     0.009 A 
HETATM   23  C   UNL     1      45.077 -20.245   4.603  1.00  0.00     0.003 A 
ENDBRANCH  12  13
ENDBRANCH  10  12
ENDBRANCH   1  10
BRANCH   7  24
HETATM   24  C   UNL     1      41.825 -13.011   0.550  1.00  0.00     0.750 A 
HETATM   25  N   UNL     1      42.327 -11.758   0.480  1.00  0.00    -0.073 NA
HETATM   26  C   UNL     1      42.727 -11.325  -0.731  1.00  0.00     0.138 A 
HETATM   27  C   UNL     1      42.648 -12.085  -1.872  1.00  0.00     0.040 A 
HETATM   28  C   UNL     1      42.126 -13.343  -1.710  1.00  0.00     0.138 A 
HETATM   29  N   UNL     1      41.711 -13.827  -0.525  1.00  0.00    -0.073 NA
ENDBRANCH   7  24
TORSDOF 4
ENDMDL
MODEL 8
REMARK VINA RESULT:      -8.3      4.714      6.633
REMARK  4 active torsions:
REMARK  status: ('A' for Active; 'I' for Inactive)
REMARK    1  A    between atoms: C_7  and  C_8 
REMARK    2  A    between atoms: C_8  and  N_9 
REMARK    3  A    between atoms: N_9  and  C_10 
REMARK    4  A    between atoms: N_16  and  C_17 
ROOT
HETATM    1  C   UNL     1      41.348 -15.616  -0.017  1.00  0.00     0.141 A 
HETATM    2  N   UNL     1      40.737 -14.981   1.015  1.00  0.00    -0.224 NA
HETATM    3  C   UNL     1      39.646 -14.230   0.760  1.00  0.00     0.237 A 
HETATM    4  N   UNL     1      39.067 -13.996  -0.422  1.00  0.00    -0.221 NA
HETATM    5  C   UNL     1      39.704 -14.614  -1.439  1.00  0.00     0.186 A 
HETATM    6  C   UNL     1      40.825 -15.418  -1.303  1.00  0.00     0.077 A 
HETATM    7  N   UNL     1      39.395 -14.590  -2.796  1.00  0.00    -0.041 N 
HETATM    8  N   UNL     1      40.282 -15.354  -3.523  1.00  0.00    -0.162 NA
HETATM    9  C   UNL     1      41.130 -15.828  -2.612  1.00  0.00     0.159 A 
ENDROOT
BRANCH   1  10
HETATM   10  N   UNL     1      42.470 -16.400   0.209  1.00  0.00    -0.367 N 
HETATM   11  H   UNL     1      42.399 -17.350  -0.129  1.00  0.00     0.161 HD
BRANCH  10  12
HETATM   12  C   UNL     1      43.156 -16.280   1.494  1.00  0.00     0.199 C 
BRANCH  12  13
HETATM   13  C   UNL     1      43.544 -17.573   2.137  1.00  0.00     0.123 A 
HETATM   14  N   UNL     1      43.924 -17.627   3.454  1.00  0.00    -0.341 N 
HETATM   15  C   UNL     1      44.204 -18.929   3.772  1.00  0.00     0.063 A 
HETATM   16  H   UNL     1      43.993 -16.817   4.057  1.00  0.00     0.167 HD
HETATM   17  C   UNL     1      43.984 -19.626   2.588  1.00  0.00     0.091 A 
HETATM   18  C   UNL     1      44.622 -19.534   4.957  1.00  0.00     0.032 A 
HETATM   19  C   UNL     1      44.193 -21.019   2.548  1.00  0.00    -0.031 A 
HETATM   20  N   UNL     1      43.570 -18.772   1.589  1.00  0.00    -0.231 NA
HETATM   21  C   UNL     1      43.993 -21.842   1.310  1.00  0.00     0.050 C 
HETATM   22  C   UNL     1      44.615 -21.644   3.740  1.00  0.00     0.009 A 
HETATM   23  C   UNL     1      44.822 -20.916   4.915  1.00  0.00     0.003 A 
ENDBRANCH  12  13
ENDBRANCH  10  12
ENDBRANCH   1  10
BRANCH   7  24
HETATM   24  C   UNL     1      38.313 -13.890  -3.439  1.00  0.00     0.750 A 
HETATM   25  N   UNL     1      38.329 -12.540  -3.462  1.00  0.00    -0.073 NA
HETATM   26  C   UNL     1      37.299 -11.926  -4.075  1.00  0.00     0.138 A 
HETATM   27  C   UNL     1      36.257 -12.599  -4.666  1.00  0.00     0.040 A 
HETATM   28  C   UNL     1      36.322 -13.967  -4.595  1.00  0.00     0.138 A 
HETATM   29  N   UNL     1      37.326 -14.632  -3.996  1.00  0.00    -0.073 NA
ENDBRANCH   7  24
TORSDOF 4
ENDMDL
MODEL 9
REMARK VINA RESULT:      -8.2      3.398      7.639
REMARK  4 active torsions:
REMARK  status: ('A' for Active; 'I' for Inactive)
REMARK    1  A    between atoms: C_7  and  C_8 
REMARK    2  A    between atoms: C_8  and  N_9 
REMARK    3  A    between atoms: N_9  and  C_10 
REMARK    4  A    between atoms: N_16  and  C_17 
ROOT
HETATM    1  C   UNL     1      41.750 -15.486   4.010  1.00  0.00     0.141 A 
HETATM    2  N   UNL     1      40.998 -15.975   5.028  1.00  0.00    -0.224 NA
HETATM    3  C   UNL     1      41.114 -17.280   5.352  1.00  0.00     0.237 A 
HETATM    4  N   UNL     1      41.886 -18.205   4.773  1.00  0.00    -0.221 NA
HETATM    5  C   UNL     1      42.606 -17.706   3.747  1.00  0.00     0.186 A 
HETATM    6  C   UNL     1      42.581 -16.385   3.326  1.00  0.00     0.077 A 
HETATM    7  N   UNL     1      43.502 -18.371   2.914  1.00  0.00    -0.041 N 
HETATM    8  N   UNL     1      44.045 -17.514   1.982  1.00  0.00    -0.162 NA
HETATM    9  C   UNL     1      43.473 -16.340   2.241  1.00  0.00     0.159 A 
ENDROOT
BRANCH   1  10
HETATM   10  N   UNL     1      41.659 -14.148   3.652  1.00  0.00    -0.367 N 
HETATM   11  H   UNL     1      41.832 -13.495   4.405  1.00  0.00     0.161 HD
BRANCH  10  12
HETATM   12  C   UNL     1      40.584 -13.740   2.751  1.00  0.00     0.199 C 
BRANCH  12  13
HETATM   13  C   UNL     1      40.936 -13.729   1.298  1.00  0.00     0.123 A 
HETATM   14  N   UNL     1      40.546 -14.746   0.463  1.00  0.00    -0.341 N 
HETATM   15  C   UNL     1      40.989 -14.464  -0.801  1.00  0.00     0.063 A 
HETATM   16  H   UNL     1      40.032 -15.563   0.768  1.00  0.00     0.167 HD
HETATM   17  C   UNL     1      41.662 -13.253  -0.667  1.00  0.00     0.091 A 
HETATM   18  C   UNL     1      40.866 -15.148  -2.010  1.00  0.00     0.032 A 
HETATM   19  C   UNL     1      42.269 -12.663  -1.793  1.00  0.00    -0.031 A 
HETATM   20  N   UNL     1      41.612 -12.811   0.637  1.00  0.00    -0.231 NA
HETATM   21  C   UNL     1      43.024 -11.368  -1.731  1.00  0.00     0.050 C 
HETATM   22  C   UNL     1      42.151 -13.344  -3.022  1.00  0.00     0.009 A 
HETATM   23  C   UNL     1      41.464 -14.556  -3.126  1.00  0.00     0.003 A 
ENDBRANCH  12  13
ENDBRANCH  10  12
ENDBRANCH   1  10
BRANCH   7  24
HETATM   24  C   UNL     1      43.870 -19.762   2.951  1.00  0.00     0.750 A 
HETATM   25  N   UNL     1      43.605 -20.538   1.878  1.00  0.00    -0.073 NA
HETATM   26  C   UNL     1      43.969 -21.833   1.954  1.00  0.00     0.138 A 
HETATM   27  C   UNL     1      44.583 -22.385   3.051  1.00  0.00     0.040 A 
HETATM   28  C   UNL     1      44.813 -21.525   4.095  1.00  0.00     0.138 A 
HETATM   29  N   UNL     1      44.472 -20.224   4.073  1.00  0.00    -0.073 NA
ENDBRANCH   7  24
TORSDOF 4
ENDMDL
MODEL 10
REMARK VINA RESULT:      -8.2      3.042      4.447
REMARK  4 active torsions:
REMARK  status: ('A' for Active; 'I' for Inactive)
REMARK    1  A    between atoms: C_7  and  C_8 
REMARK    2  A    between atoms: C_8  and  N_9 
REMARK    3  A    between atoms: N_9  and  C_10 
REMARK    4  A    between atoms: N_16  and  C_17 
ROOT
HETATM    1  C   UNL     1      41.732 -15.994   3.603  1.00  0.00     0.141 A 
HETATM    2  N   UNL     1      40.848 -16.890   3.095  1.00  0.00    -0.224 NA
HETATM    3  C   UNL     1      40.290 -16.641   1.893  1.00  0.00     0.237 A 
HETATM    4  N   UNL     1      40.477 -15.578   1.104  1.00  0.00    -0.221 NA
HETATM    5  C   UNL     1      41.338 -14.686   1.637  1.00  0.00     0.186 A 
HETATM    6  C   UNL     1      41.983 -14.833   2.856  1.00  0.00     0.077 A 
HETATM    7  N   UNL     1      41.761 -13.469   1.109  1.00  0.00    -0.041 N 
HETATM    8  N   UNL     1      42.653 -12.843   1.952  1.00  0.00    -0.162 NA
HETATM    9  C   UNL     1      42.760 -13.671   2.990  1.00  0.00     0.159 A 
ENDROOT
BRANCH   1  10
HETATM   10  N   UNL     1      42.329 -16.220   4.835  1.00  0.00    -0.367 N 
HETATM   11  H   UNL     1      42.152 -15.506   5.529  1.00  0.00     0.161 HD
BRANCH  10  12
HETATM   12  C   UNL     1      43.693 -16.744   4.861  1.00  0.00     0.199 C 
BRANCH  12  13
HETATM   13  C   UNL     1      43.861 -18.120   4.302  1.00  0.00     0.123 A 
HETATM   14  N   UNL     1      43.535 -18.404   3.000  1.00  0.00    -0.341 N 
HETATM   15  C   UNL     1      43.807 -19.725   2.763  1.00  0.00     0.063 A 
HETATM   16  H   UNL     1      43.145 -17.730   2.354  1.00  0.00     0.167 HD
HETATM   17  C   UNL     1      44.289 -20.200   3.979  1.00  0.00     0.091 A 
HETATM   18  C   UNL     1      43.669 -20.519   1.624  1.00  0.00     0.032 A 
HETATM   19  C   UNL     1      44.661 -21.554   4.102  1.00  0.00    -0.031 A 
HETATM   20  N   UNL     1      44.322 -19.191   4.916  1.00  0.00    -0.231 NA
HETATM   21  C   UNL     1      45.177 -22.148   5.379  1.00  0.00     0.050 C 
HETATM   22  C   UNL     1      44.528 -22.367   2.958  1.00  0.00     0.009 A 
HETATM   23  C   UNL     1      44.045 -21.859   1.749  1.00  0.00     0.003 A 
ENDBRANCH  12  13
ENDBRANCH  10  12
ENDBRANCH   1  10
BRANCH   7  24
HETATM   24  C   UNL     1      41.372 -12.870  -0.141  1.00  0.00     0.750 A 
HETATM   25  N   UNL     1      40.191 -12.219  -0.215  1.00  0.00    -0.073 NA
HETATM   26  C   UNL     1      39.867 -11.672  -1.402  1.00  0.00     0.138 A 
HETATM   27  C   UNL     1      40.668 -11.746  -2.516  1.00  0.00     0.040 A 
HETATM   28  C   UNL     1      41.848 -12.425  -2.350  1.00  0.00     0.138 A 
HETATM   29  N   UNL     1      42.222 -12.991  -1.189  1.00  0.00    -0.073 NA
ENDBRANCH   7  24
TORSDOF 4
ENDMDL
