MODEL 1
REMARK VINA RESULT:      -9.7      0.000      0.000
REMARK  5 active torsions:
REMARK  status: ('A' for Active; 'I' for Inactive)
REMARK    1  A    between atoms: C_2  and  O_3 
REMARK    2  A    between atoms: O_3  and  C_4 
REMARK       I    between atoms: N_10  and  C_11 
REMARK    3  A    between atoms: C_11  and  C_13 
REMARK    4  A    between atoms: C_13  and  C_14 
REMARK    5  A    between atoms: C_17  and  C_20 
ROOT
HETATM    1  C   UNL     1      41.894 -13.087   5.989  1.00  0.00    -0.049 A 
HETATM    2  C   UNL     1      40.922 -14.083   5.807  1.00  0.00     0.008 A 
HETATM    3  C   UNL     1      41.287 -15.430   5.774  1.00  0.00     0.014 A 
HETATM    4  C   UNL     1      42.627 -15.787   5.947  1.00  0.00    -0.005 A 
HETATM    5  C   UNL     1      43.608 -14.806   6.098  1.00  0.00     0.014 A 
HETATM    6  C   UNL     1      43.241 -13.461   6.126  1.00  0.00     0.008 A 
ENDROOT
BRANCH   1   7
HETATM    7  C   UNL     1      41.495 -11.627   6.058  1.00  0.00     0.141 C 
BRANCH   7   8
HETATM    8  C   UNL     1      40.296 -11.349   6.950  1.00  0.00     0.228 C 
HETATM    9  N   UNL     1      40.502 -11.048   8.286  1.00  0.00    -0.317 N 
HETATM   10  C   UNL     1      39.326 -10.811   9.138  1.00  0.00     0.137 A 
HETATM   11  C   UNL     1      41.664 -10.876   9.065  1.00  0.00     0.046 A 
HETATM   12  C   UNL     1      39.818 -10.535  10.557  1.00  0.00     0.061 A 
HETATM   13  C   UNL     1      41.301 -10.567  10.379  1.00  0.00    -0.029 A 
HETATM   14  C   UNL     1      42.248 -10.337  11.367  1.00  0.00     0.012 A 
HETATM   15  C   UNL     1      43.598 -10.412  11.029  1.00  0.00     0.037 A 
HETATM   16  C   UNL     1      43.981 -10.717   9.717  1.00  0.00     0.070 A 
HETATM   17  C   UNL     1      43.006 -10.954   8.732  1.00  0.00     0.067 A 
HETATM   18  O   UNL     1      39.144 -11.390   6.501  1.00  0.00    -0.273 OA
BRANCH  16  19
HETATM   19  O   UNL     1      45.271 -10.816   9.264  1.00  0.00    -0.351 OA
BRANCH  19  20
HETATM   20  C   UNL     1      45.728 -12.111   8.876  1.00  0.00     0.171 C 
HETATM   21  C   UNL     1      46.937 -11.930   7.976  1.00  0.00     0.034 C 
ENDBRANCH  19  20
ENDBRANCH  16  19
ENDBRANCH   7   8
ENDBRANCH   1   7
BRANCH   4  22
HETATM   22  C   UNL     1      43.030 -17.213   5.941  1.00  0.00     0.098 A 
HETATM   23  N   UNL     1      43.041 -17.827   7.088  1.00  0.00    -0.170 NA
HETATM   24  N   UNL     1      43.445 -19.125   7.124  1.00  0.00    -0.242 N 
HETATM   25  C   UNL     1      43.894 -19.863   6.057  1.00  0.00     0.272 A 
HETATM   26  H   UNL     1      43.464 -19.566   8.037  1.00  0.00     0.192 HD
HETATM   27  O   UNL     1      44.293 -21.016   6.176  1.00  0.00    -0.266 OA
HETATM   28  C   UNL     1      43.851 -19.197   4.746  1.00  0.00     0.046 A 
HETATM   29  C   UNL     1      44.233 -19.893   3.590  1.00  0.00     0.018 A 
HETATM   30  C   UNL     1      43.398 -17.882   4.666  1.00  0.00     0.011 A 
HETATM   31  C   UNL     1      44.144 -19.271   2.346  1.00  0.00     0.001 A 
HETATM   32  C   UNL     1      43.663 -17.966   2.255  1.00  0.00     0.001 A 
HETATM   33  C   UNL     1      43.283 -17.273   3.409  1.00  0.00     0.015 A 
ENDBRANCH   4  22
TORSDOF 5
ENDMDL
MODEL 2
REMARK VINA RESULT:      -9.1      5.556      8.341
REMARK  5 active torsions:
REMARK  status: ('A' for Active; 'I' for Inactive)
REMARK    1  A    between atoms: C_2  and  O_3 
REMARK    2  A    between atoms: O_3  and  C_4 
REMARK       I    between atoms: N_10  and  C_11 
REMARK    3  A    between atoms: C_11  and  C_13 
REMARK    4  A    between atoms: C_13  and  C_14 
REMARK    5  A    between atoms: C_17  and  C_20 
ROOT
HETATM    1  C   UNL     1      40.334 -15.355   1.270  1.00  0.00    -0.049 A 
HETATM    2  C   UNL     1      40.128 -15.912   2.541  1.00  0.00     0.008 A 
HETATM    3  C   UNL     1      40.932 -16.958   2.995  1.00  0.00     0.014 A 
HETATM    4  C   UNL     1      41.965 -17.437   2.183  1.00  0.00    -0.005 A 
HETATM    5  C   UNL     1      42.163 -16.914   0.905  1.00  0.00     0.014 A 
HETATM    6  C   UNL     1      41.354 -15.871   0.453  1.00  0.00     0.008 A 
ENDROOT
BRANCH   1   7
HETATM    7  C   UNL     1      39.483 -14.196   0.790  1.00  0.00     0.141 C 
BRANCH   7   8
HETATM    8  C   UNL     1      40.022 -12.827   1.169  1.00  0.00     0.228 C 
HETATM    9  N   UNL     1      40.783 -12.121   0.253  1.00  0.00    -0.317 N 
HETATM   10  C   UNL     1      41.319 -10.810   0.652  1.00  0.00     0.137 A 
HETATM   11  C   UNL     1      41.166 -12.377  -1.079  1.00  0.00     0.046 A 
HETATM   12  C   UNL     1      42.140 -10.260  -0.512  1.00  0.00     0.061 A 
HETATM   13  C   UNL     1      41.941 -11.315  -1.553  1.00  0.00    -0.029 A 
HETATM   14  C   UNL     1      42.450 -11.295  -2.844  1.00  0.00     0.012 A 
HETATM   15  C   UNL     1      42.170 -12.368  -3.688  1.00  0.00     0.037 A 
HETATM   16  C   UNL     1      41.392 -13.440  -3.232  1.00  0.00     0.070 A 
HETATM   17  C   UNL     1      40.892 -13.444  -1.919  1.00  0.00     0.067 A 
HETATM   18  O   UNL     1      39.792 -12.337   2.282  1.00  0.00    -0.273 OA
BRANCH  16  19
HETATM   19  O   UNL     1      41.049 -14.546  -3.967  1.00  0.00    -0.351 OA
BRANCH  19  20
HETATM   20  C   UNL     1      40.486 -15.649  -3.259  1.00  0.00     0.171 C 
HETATM   21  C   UNL     1      39.234 -16.089  -3.997  1.00  0.00     0.034 C 
ENDBRANCH  19  20
ENDBRANCH  16  19
ENDBRANCH   7   8
ENDBRANCH   1   7
BRANCH   4  22
HETATM   22  C   UNL     1      42.846 -18.530   2.658  1.00  0.00     0.098 A 
HETATM   23  N   UNL     1      42.964 -19.569   1.884  1.00  0.00    -0.170 NA
HETATM   24  N   UNL     1      43.731 -20.609   2.309  1.00  0.00    -0.242 N 
HETATM   25  C   UNL     1      44.378 -20.697   3.517  1.00  0.00     0.272 A 
HETATM   26  H   UNL     1      43.783 -21.413   1.692  1.00  0.00     0.192 HD
HETATM   27  O   UNL     1      45.011 -21.692   3.853  1.00  0.00    -0.266 OA
HETATM   28  C   UNL     1      44.287 -19.515   4.387  1.00  0.00     0.046 A 
HETATM   29  C   UNL     1      44.965 -19.491   5.614  1.00  0.00     0.018 A 
HETATM   30  C   UNL     1      43.547 -18.414   3.963  1.00  0.00     0.011 A 
HETATM   31  C   UNL     1      44.914 -18.349   6.412  1.00  0.00     0.001 A 
HETATM   32  C   UNL     1      44.200 -17.232   5.979  1.00  0.00     0.001 A 
HETATM   33  C   UNL     1      43.524 -17.258   4.755  1.00  0.00     0.015 A 
ENDBRANCH   4  22
TORSDOF 5
ENDMDL
MODEL 3
REMARK VINA RESULT:      -9.0      1.428      2.303
REMARK  5 active torsions:
REMARK  status: ('A' for Active; 'I' for Inactive)
REMARK    1  A    between atoms: C_2  and  O_3 
REMARK    2  A    between atoms: O_3  and  C_4 
REMARK       I    between atoms: N_10  and  C_11 
REMARK    3  A    between atoms: C_11  and  C_13 
REMARK    4  A    between atoms: C_13  and  C_14 
REMARK    5  A    between atoms: C_17  and  C_20 
ROOT
HETATM    1  C   UNL     1      41.818 -12.404   6.123  1.00  0.00    -0.049 A 
HETATM    2  C   UNL     1      43.147 -12.821   6.299  1.00  0.00     0.008 A 
HETATM    3  C   UNL     1      43.548 -14.095   5.896  1.00  0.00     0.014 A 
HETATM    4  C   UNL     1      42.622 -14.952   5.293  1.00  0.00    -0.005 A 
HETATM    5  C   UNL     1      41.291 -14.563   5.140  1.00  0.00     0.014 A 
HETATM    6  C   UNL     1      40.893 -13.290   5.548  1.00  0.00     0.008 A 
ENDROOT
BRANCH   1   7
HETATM    7  C   UNL     1      41.390 -11.008   6.529  1.00  0.00     0.141 C 
BRANCH   7   8
HETATM    8  C   UNL     1      40.319 -10.972   7.608  1.00  0.00     0.228 C 
HETATM    9  N   UNL     1      40.700 -10.947   8.939  1.00  0.00    -0.317 N 
HETATM   10  C   UNL     1      39.647 -10.942   9.966  1.00  0.00     0.137 A 
HETATM   11  C   UNL     1      41.954 -10.892   9.579  1.00  0.00     0.046 A 
HETATM   12  C   UNL     1      40.321 -10.946  11.336  1.00  0.00     0.061 A 
HETATM   13  C   UNL     1      41.768 -10.878  10.965  1.00  0.00    -0.029 A 
HETATM   14  C   UNL     1      42.836 -10.818  11.849  1.00  0.00     0.012 A 
HETATM   15  C   UNL     1      44.129 -10.764  11.330  1.00  0.00     0.037 A 
HETATM   16  C   UNL     1      44.335 -10.774   9.945  1.00  0.00     0.070 A 
HETATM   17  C   UNL     1      43.240 -10.842   9.067  1.00  0.00     0.067 A 
HETATM   18  O   UNL     1      39.118 -10.968   7.312  1.00  0.00    -0.273 OA
BRANCH  16  19
HETATM   19  O   UNL     1      45.553 -10.722   9.319  1.00  0.00    -0.351 OA
BRANCH  19  20
HETATM   20  C   UNL     1      46.034 -11.928   8.727  1.00  0.00     0.171 C 
HETATM   21  C   UNL     1      47.299 -11.599   7.956  1.00  0.00     0.034 C 
ENDBRANCH  19  20
ENDBRANCH  16  19
ENDBRANCH   7   8
ENDBRANCH   1   7
BRANCH   4  22
HETATM   22  C   UNL     1      43.036 -16.300   4.836  1.00  0.00     0.098 A 
HETATM   23  N   UNL     1      43.125 -16.484   3.551  1.00  0.00    -0.170 NA
HETATM   24  N   UNL     1      43.461 -17.721   3.096  1.00  0.00    -0.242 N 
HETATM   25  C   UNL     1      43.683 -18.834   3.868  1.00  0.00     0.272 A 
HETATM   26  H   UNL     1      43.499 -17.836   2.088  1.00  0.00     0.192 HD
HETATM   27  O   UNL     1      43.931 -19.933   3.382  1.00  0.00    -0.266 OA
HETATM   28  C   UNL     1      43.625 -18.635   5.324  1.00  0.00     0.046 A 
HETATM   29  C   UNL     1      43.896 -19.702   6.192  1.00  0.00     0.018 A 
HETATM   30  C   UNL     1      43.328 -17.369   5.825  1.00  0.00     0.011 A 
HETATM   31  C   UNL     1      43.886 -19.494   7.570  1.00  0.00     0.001 A 
HETATM   32  C   UNL     1      43.620 -18.223   8.078  1.00  0.00     0.001 A 
HETATM   33  C   UNL     1      43.349 -17.160   7.211  1.00  0.00     0.015 A 
ENDBRANCH   4  22
TORSDOF 5
ENDMDL
MODEL 4
REMARK VINA RESULT:      -8.9      2.499      3.333
REMARK  5 active torsions:
REMARK  status: ('A' for Active; 'I' for Inactive)
REMARK    1  A    between atoms: C_2  and  O_3 
REMARK    2  A    between atoms: O_3  and  C_4 
REMARK       I    between atoms: N_10  and  C_11 
REMARK    3  A    between atoms: C_11  and  C_13 
REMARK    4  A    between atoms: C_13  and  C_14 
REMARK    5  A    between atoms: C_17  and  C_20 
ROOT
HETATM    1  C   UNL     1      40.553 -11.173   6.595  1.00  0.00    -0.049 A 
HETATM    2  C   UNL     1      41.416 -11.188   5.489  1.00  0.00     0.008 A 
HETATM    3  C   UNL     1      41.452 -12.289   4.633  1.00  0.00     0.014 A 
HETATM    4  C   UNL     1      40.604 -13.376   4.871  1.00  0.00    -0.005 A 
HETATM    5  C   UNL     1      39.763 -13.389   5.983  1.00  0.00     0.014 A 
HETATM    6  C   UNL     1      39.733 -12.287   6.839  1.00  0.00     0.008 A 
ENDROOT
BRANCH   1   7
HETATM    7  C   UNL     1      40.489  -9.963   7.506  1.00  0.00     0.141 C 
BRANCH   7   8
HETATM    8  C   UNL     1      39.715 -10.191   8.794  1.00  0.00     0.228 C 
HETATM    9  N   UNL     1      40.401 -10.562   9.938  1.00  0.00    -0.317 N 
HETATM   10  C   UNL     1      39.629 -10.806  11.166  1.00  0.00     0.137 A 
HETATM   11  C   UNL     1      41.769 -10.746  10.222  1.00  0.00     0.046 A 
HETATM   12  C   UNL     1      40.604 -11.229  12.263  1.00  0.00     0.061 A 
HETATM   13  C   UNL     1      41.919 -11.120  11.561  1.00  0.00    -0.029 A 
HETATM   14  C   UNL     1      43.166 -11.360  12.121  1.00  0.00     0.012 A 
HETATM   15  C   UNL     1      44.297 -11.215  11.319  1.00  0.00     0.037 A 
HETATM   16  C   UNL     1      44.166 -10.838   9.977  1.00  0.00     0.070 A 
HETATM   17  C   UNL     1      42.894 -10.606   9.427  1.00  0.00     0.067 A 
HETATM   18  O   UNL     1      38.486 -10.052   8.832  1.00  0.00    -0.273 OA
BRANCH  16  19
HETATM   19  O   UNL     1      45.200 -10.661   9.093  1.00  0.00    -0.351 OA
BRANCH  19  20
HETATM   20  C   UNL     1      46.026 -11.793   8.822  1.00  0.00     0.171 C 
HETATM   21  C   UNL     1      45.161 -12.859   8.175  1.00  0.00     0.034 C 
ENDBRANCH  19  20
ENDBRANCH  16  19
ENDBRANCH   7   8
ENDBRANCH   1   7
BRANCH   4  22
HETATM   22  C   UNL     1      40.610 -14.544   3.958  1.00  0.00     0.098 A 
HETATM   23  N   UNL     1      39.756 -14.529   2.977  1.00  0.00    -0.170 NA
HETATM   24  N   UNL     1      39.705 -15.604   2.146  1.00  0.00    -0.242 N 
HETATM   25  C   UNL     1      40.452 -16.750   2.260  1.00  0.00     0.272 A 
HETATM   26  H   UNL     1      39.013 -15.570   1.405  1.00  0.00     0.192 HD
HETATM   27  O   UNL     1      40.314 -17.703   1.500  1.00  0.00    -0.266 OA
HETATM   28  C   UNL     1      41.450 -16.768   3.340  1.00  0.00     0.046 A 
HETATM   29  C   UNL     1      42.298 -17.874   3.496  1.00  0.00     0.018 A 
HETATM   30  C   UNL     1      41.560 -15.664   4.182  1.00  0.00     0.011 A 
HETATM   31  C   UNL     1      43.273 -17.863   4.492  1.00  0.00     0.001 A 
HETATM   32  C   UNL     1      43.409 -16.749   5.319  1.00  0.00     0.001 A 
HETATM   33  C   UNL     1      42.562 -15.647   5.162  1.00  0.00     0.015 A 
ENDBRANCH   4  22
TORSDOF 5
ENDMDL
MODEL 5
REMARK VINA RESULT:      -8.8      5.379      7.771
REMARK  5 active torsions:
REMARK  status: ('A' for Active; 'I' for Inactive)
REMARK    1  A    between atoms: C_2  and  O_3 
REMARK    2  A    between atoms: O_3  and  C_4 
REMARK       I    between atoms: N_10  and  C_11 
REMARK    3  A    between atoms: C_11  and  C_13 
REMARK    4  A    between atoms: C_13  and  C_14 
REMARK    5  A    between atoms: C_17  and  C_20 
ROOT
HETATM    1  C   UNL     1      40.438 -13.562   2.347  1.00  0.00    -0.049 A 
HETATM    2  C   UNL     1      41.834 -13.513   2.214  1.00  0.00     0.008 A 
HETATM    3  C   UNL     1      42.648 -14.350   2.979  1.00  0.00     0.014 A 
HETATM    4  C   UNL     1      42.064 -15.257   3.868  1.00  0.00    -0.005 A 
HETATM    5  C   UNL     1      40.679 -15.295   4.034  1.00  0.00     0.014 A 
HETATM    6  C   UNL     1      39.869 -14.455   3.271  1.00  0.00     0.008 A 
ENDROOT
BRANCH   1   7
HETATM    7  C   UNL     1      39.552 -12.678   1.493  1.00  0.00     0.141 C 
BRANCH   7   8
HETATM    8  C   UNL     1      38.821 -13.414   0.382  1.00  0.00     0.228 C 
HETATM    9  N   UNL     1      39.346 -13.399  -0.900  1.00  0.00    -0.317 N 
HETATM   10  C   UNL     1      38.607 -14.093  -1.965  1.00  0.00     0.137 A 
HETATM   11  C   UNL     1      40.525 -12.857  -1.449  1.00  0.00     0.046 A 
HETATM   12  C   UNL     1      39.371 -13.902  -3.274  1.00  0.00     0.061 A 
HETATM   13  C   UNL     1      40.574 -13.141  -2.817  1.00  0.00    -0.029 A 
HETATM   14  C   UNL     1      41.633 -12.733  -3.614  1.00  0.00     0.012 A 
HETATM   15  C   UNL     1      42.678 -12.024  -3.024  1.00  0.00     0.037 A 
HETATM   16  C   UNL     1      42.649 -11.732  -1.655  1.00  0.00     0.070 A 
HETATM   17  C   UNL     1      41.563 -12.149  -0.866  1.00  0.00     0.067 A 
HETATM   18  O   UNL     1      37.766 -14.021   0.606  1.00  0.00    -0.273 OA
BRANCH  16  19
HETATM   19  O   UNL     1      43.614 -11.047  -0.964  1.00  0.00    -0.351 OA
BRANCH  19  20
HETATM   20  C   UNL     1      43.878  -9.705  -1.368  1.00  0.00     0.171 C 
HETATM   21  C   UNL     1      43.273  -8.776  -0.332  1.00  0.00     0.034 C 
ENDBRANCH  19  20
ENDBRANCH  16  19
ENDBRANCH   7   8
ENDBRANCH   1   7
BRANCH   4  22
HETATM   22  C   UNL     1      42.911 -16.171   4.670  1.00  0.00     0.098 A 
HETATM   23  N   UNL     1      43.262 -15.761   5.854  1.00  0.00    -0.170 NA
HETATM   24  N   UNL     1      44.074 -16.556   6.601  1.00  0.00    -0.242 N 
HETATM   25  C   UNL     1      44.609 -17.759   6.211  1.00  0.00     0.272 A 
HETATM   26  H   UNL     1      44.347 -16.196   7.509  1.00  0.00     0.192 HD
HETATM   27  O   UNL     1      45.379 -18.397   6.921  1.00  0.00    -0.266 OA
HETATM   28  C   UNL     1      44.192 -18.256   4.891  1.00  0.00     0.046 A 
HETATM   29  C   UNL     1      44.641 -19.503   4.434  1.00  0.00     0.018 A 
HETATM   30  C   UNL     1      43.324 -17.487   4.119  1.00  0.00     0.011 A 
HETATM   31  C   UNL     1      44.203 -19.989   3.203  1.00  0.00     0.001 A 
HETATM   32  C   UNL     1      43.310 -19.238   2.439  1.00  0.00     0.001 A 
HETATM   33  C   UNL     1      42.864 -17.994   2.896  1.00  0.00     0.015 A 
ENDBRANCH   4  22
TORSDOF 5
ENDMDL
MODEL 6
REMARK VINA RESULT:      -8.8      5.333      7.747
REMARK  5 active torsions:
REMARK  status: ('A' for Active; 'I' for Inactive)
REMARK    1  A    between atoms: C_2  and  O_3 
REMARK    2  A    between atoms: O_3  and  C_4 
REMARK       I    between atoms: N_10  and  C_11 
REMARK    3  A    between atoms: C_11  and  C_13 
REMARK    4  A    between atoms: C_13  and  C_14 
REMARK    5  A    between atoms: C_17  and  C_20 
ROOT
HETATM    1  C   UNL     1      40.442 -15.051   0.582  1.00  0.00    -0.049 A 
HETATM    2  C   UNL     1      39.810 -15.683   1.663  1.00  0.00     0.008 A 
HETATM    3  C   UNL     1      40.560 -16.367   2.621  1.00  0.00     0.014 A 
HETATM    4  C   UNL     1      41.953 -16.401   2.512  1.00  0.00    -0.005 A 
HETATM    5  C   UNL     1      42.594 -15.804   1.426  1.00  0.00     0.014 A 
HETATM    6  C   UNL     1      41.841 -15.125   0.468  1.00  0.00     0.008 A 
ENDROOT
BRANCH   1   7
HETATM    7  C   UNL     1      39.632 -14.279  -0.440  1.00  0.00     0.141 C 
BRANCH   7   8
HETATM    8  C   UNL     1      40.242 -14.254  -1.831  1.00  0.00     0.228 C 
HETATM    9  N   UNL     1      40.979 -13.151  -2.228  1.00  0.00    -0.317 N 
HETATM   10  C   UNL     1      41.536 -13.136  -3.589  1.00  0.00     0.137 A 
HETATM   11  C   UNL     1      41.370 -11.969  -1.568  1.00  0.00     0.046 A 
HETATM   12  C   UNL     1      42.269 -11.811  -3.786  1.00  0.00     0.061 A 
HETATM   13  C   UNL     1      42.127 -11.180  -2.439  1.00  0.00    -0.029 A 
HETATM   14  C   UNL     1      42.653  -9.955  -2.051  1.00  0.00     0.012 A 
HETATM   15  C   UNL     1      42.419  -9.510  -0.751  1.00  0.00     0.037 A 
HETATM   16  C   UNL     1      41.666 -10.289   0.137  1.00  0.00     0.070 A 
HETATM   17  C   UNL     1      41.136 -11.523  -0.278  1.00  0.00     0.067 A 
HETATM   18  O   UNL     1      40.087 -15.202  -2.613  1.00  0.00    -0.273 OA
BRANCH  16  19
HETATM   19  O   UNL     1      41.373  -9.961   1.435  1.00  0.00    -0.351 OA
BRANCH  19  20
HETATM   20  C   UNL     1      40.367 -10.731   2.092  1.00  0.00     0.171 C 
HETATM   21  C   UNL     1      40.936 -11.215   3.413  1.00  0.00     0.034 C 
ENDBRANCH  19  20
ENDBRANCH  16  19
ENDBRANCH   7   8
ENDBRANCH   1   7
BRANCH   4  22
HETATM   22  C   UNL     1      42.768 -17.101   3.533  1.00  0.00     0.098 A 
HETATM   23  N   UNL     1      42.966 -16.477   4.657  1.00  0.00    -0.170 NA
HETATM   24  N   UNL     1      43.745 -17.072   5.600  1.00  0.00    -0.242 N 
HETATM   25  C   UNL     1      44.392 -18.276   5.472  1.00  0.00     0.272 A 
HETATM   26  H   UNL     1      43.898 -16.548   6.455  1.00  0.00     0.192 HD
HETATM   27  O   UNL     1      45.122 -18.727   6.349  1.00  0.00    -0.266 OA
HETATM   28  C   UNL     1      44.147 -19.014   4.224  1.00  0.00     0.046 A 
HETATM   29  C   UNL     1      44.718 -20.279   4.030  1.00  0.00     0.018 A 
HETATM   30  C   UNL     1      43.317 -18.453   3.255  1.00  0.00     0.011 A 
HETATM   31  C   UNL     1      44.443 -20.993   2.865  1.00  0.00     0.001 A 
HETATM   32  C   UNL     1      43.589 -20.451   1.905  1.00  0.00     0.001 A 
HETATM   33  C   UNL     1      43.020 -19.189   2.099  1.00  0.00     0.015 A 
ENDBRANCH   4  22
TORSDOF 5
ENDMDL
MODEL 7
REMARK VINA RESULT:      -8.7      6.015      9.322
REMARK  5 active torsions:
REMARK  status: ('A' for Active; 'I' for Inactive)
REMARK    1  A    between atoms: C_2  and  O_3 
REMARK    2  A    between atoms: O_3  and  C_4 
REMARK       I    between atoms: N_10  and  C_11 
REMARK    3  A    between atoms: C_11  and  C_13 
REMARK    4  A    between atoms: C_13  and  C_14 
REMARK    5  A    between atoms: C_17  and  C_20 
ROOT
HETATM    1  C   UNL     1      40.642 -15.632   1.668  1.00  0.00    -0.049 A 
HETATM    2  C   UNL     1      39.619 -14.684   1.508  1.00  0.00     0.008 A 
HETATM    3  C   UNL     1      39.607 -13.836   0.400  1.00  0.00     0.014 A 
HETATM    4  C   UNL     1      40.611 -13.948  -0.566  1.00  0.00    -0.005 A 
HETATM    5  C   UNL     1      41.651 -14.863  -0.405  1.00  0.00     0.014 A 
HETATM    6  C   UNL     1      41.662 -15.707   0.706  1.00  0.00     0.008 A 
ENDROOT
BRANCH   1   7
HETATM    7  C   UNL     1      40.637 -16.577   2.853  1.00  0.00     0.141 C 
BRANCH   7   8
HETATM    8  C   UNL     1      40.926 -15.907   4.187  1.00  0.00     0.228 C 
HETATM    9  N   UNL     1      41.960 -16.385   4.974  1.00  0.00    -0.317 N 
HETATM   10  C   UNL     1      42.203 -15.741   6.274  1.00  0.00     0.137 A 
HETATM   11  C   UNL     1      42.919 -17.400   4.788  1.00  0.00     0.046 A 
HETATM   12  C   UNL     1      43.363 -16.466   6.953  1.00  0.00     0.061 A 
HETATM   13  C   UNL     1      43.752 -17.463   5.909  1.00  0.00    -0.029 A 
HETATM   14  C   UNL     1      44.797 -18.372   5.998  1.00  0.00     0.012 A 
HETATM   15  C   UNL     1      45.020 -19.239   4.929  1.00  0.00     0.037 A 
HETATM   16  C   UNL     1      44.199 -19.188   3.796  1.00  0.00     0.070 A 
HETATM   17  C   UNL     1      43.141 -18.265   3.730  1.00  0.00     0.067 A 
HETATM   18  O   UNL     1      40.249 -14.948   4.578  1.00  0.00    -0.273 OA
BRANCH  16  19
HETATM   19  O   UNL     1      44.320 -19.983   2.686  1.00  0.00    -0.351 OA
BRANCH  19  20
HETATM   20  C   UNL     1      44.375 -21.393   2.897  1.00  0.00     0.171 C 
HETATM   21  C   UNL     1      44.247 -22.074   1.547  1.00  0.00     0.034 C 
ENDBRANCH  19  20
ENDBRANCH  16  19
ENDBRANCH   7   8
ENDBRANCH   1   7
BRANCH   4  22
HETATM   22  C   UNL     1      40.601 -13.072  -1.762  1.00  0.00     0.098 A 
HETATM   23  N   UNL     1      39.736 -13.355  -2.692  1.00  0.00    -0.170 NA
HETATM   24  N   UNL     1      39.728 -12.598  -3.821  1.00  0.00    -0.242 N 
HETATM   25  C   UNL     1      40.585 -11.564  -4.108  1.00  0.00     0.272 A 
HETATM   26  H   UNL     1      39.057 -12.860  -4.536  1.00  0.00     0.192 HD
HETATM   27  O   UNL     1      40.552 -10.958  -5.174  1.00  0.00    -0.266 OA
HETATM   28  C   UNL     1      41.544 -11.205  -3.052  1.00  0.00     0.046 A 
HETATM   29  C   UNL     1      42.419 -10.125  -3.233  1.00  0.00     0.018 A 
HETATM   30  C   UNL     1      41.548 -11.932  -1.863  1.00  0.00     0.011 A 
HETATM   31  C   UNL     1      43.291  -9.761  -2.208  1.00  0.00     0.001 A 
HETATM   32  C   UNL     1      43.279 -10.464  -1.005  1.00  0.00     0.001 A 
HETATM   33  C   UNL     1      42.407 -11.542  -0.826  1.00  0.00     0.015 A 
ENDBRANCH   4  22
TORSDOF 5
ENDMDL
MODEL 8
REMARK VINA RESULT:      -8.7      1.744      2.311
REMARK  5 active torsions:
REMARK  status: ('A' for Active; 'I' for Inactive)
REMARK    1  A    between atoms: C_2  and  O_3 
REMARK    2  A    between atoms: O_3  and  C_4 
REMARK       I    between atoms: N_10  and  C_11 
REMARK    3  A    between atoms: C_11  and  C_13 
REMARK    4  A    between atoms: C_13  and  C_14 
REMARK    5  A    between atoms: C_17  and  C_20 
ROOT
HETATM    1  C   UNL     1      40.956 -11.891   6.571  1.00  0.00    -0.049 A 
HETATM    2  C   UNL     1      39.925 -12.823   6.379  1.00  0.00     0.008 A 
HETATM    3  C   UNL     1      40.190 -14.060   5.788  1.00  0.00     0.014 A 
HETATM    4  C   UNL     1      41.497 -14.377   5.407  1.00  0.00    -0.005 A 
HETATM    5  C   UNL     1      42.526 -13.449   5.564  1.00  0.00     0.014 A 
HETATM    6  C   UNL     1      42.257 -12.212   6.150  1.00  0.00     0.008 A 
ENDROOT
BRANCH   1   7
HETATM    7  C   UNL     1      40.676 -10.562   7.244  1.00  0.00     0.141 C 
BRANCH   7   8
HETATM    8  C   UNL     1      39.872 -10.669   8.529  1.00  0.00     0.228 C 
HETATM    9  N   UNL     1      40.538 -10.828   9.733  1.00  0.00    -0.317 N 
HETATM   10  C   UNL     1      39.739 -10.960  10.961  1.00  0.00     0.137 A 
HETATM   11  C   UNL     1      41.904 -10.867  10.078  1.00  0.00     0.046 A 
HETATM   12  C   UNL     1      40.699 -11.154  12.132  1.00  0.00     0.061 A 
HETATM   13  C   UNL     1      42.029 -11.042  11.459  1.00  0.00    -0.029 A 
HETATM   14  C   UNL     1      43.268 -11.108  12.082  1.00  0.00     0.012 A 
HETATM   15  C   UNL     1      44.415 -10.989  11.299  1.00  0.00     0.037 A 
HETATM   16  C   UNL     1      44.309 -10.810   9.914  1.00  0.00     0.070 A 
HETATM   17  C   UNL     1      43.045 -10.753   9.302  1.00  0.00     0.067 A 
HETATM   18  O   UNL     1      38.636 -10.620   8.513  1.00  0.00    -0.273 OA
BRANCH  16  19
HETATM   19  O   UNL     1      45.360 -10.678   9.044  1.00  0.00    -0.351 OA
BRANCH  19  20
HETATM   20  C   UNL     1      46.297 -11.753   8.985  1.00  0.00     0.171 C 
HETATM   21  C   UNL     1      45.793 -12.757   7.964  1.00  0.00     0.034 C 
ENDBRANCH  19  20
ENDBRANCH  16  19
ENDBRANCH   7   8
ENDBRANCH   1   7
BRANCH   4  22
HETATM   22  C   UNL     1      41.802 -15.695   4.801  1.00  0.00     0.098 A 
HETATM   23  N   UNL     1      42.258 -16.617   5.596  1.00  0.00    -0.170 NA
HETATM   24  N   UNL     1      42.587 -17.825   5.066  1.00  0.00    -0.242 N 
HETATM   25  C   UNL     1      42.526 -18.170   3.738  1.00  0.00     0.272 A 
HETATM   26  H   UNL     1      42.962 -18.514   5.710  1.00  0.00     0.192 HD
HETATM   27  O   UNL     1      42.891 -19.265   3.325  1.00  0.00    -0.266 OA
HETATM   28  C   UNL     1      41.976 -17.152   2.830  1.00  0.00     0.046 A 
HETATM   29  C   UNL     1      41.820 -17.436   1.466  1.00  0.00     0.018 A 
HETATM   30  C   UNL     1      41.585 -15.919   3.348  1.00  0.00     0.011 A 
HETATM   31  C   UNL     1      41.254 -16.484   0.620  1.00  0.00     0.001 A 
HETATM   32  C   UNL     1      40.832 -15.260   1.137  1.00  0.00     0.001 A 
HETATM   33  C   UNL     1      40.989 -14.977   2.498  1.00  0.00     0.015 A 
ENDBRANCH   4  22
TORSDOF 5
ENDMDL
MODEL 9
REMARK VINA RESULT:      -8.7      4.963      7.981
REMARK  5 active torsions:
REMARK  status: ('A' for Active; 'I' for Inactive)
REMARK    1  A    between atoms: C_2  and  O_3 
REMARK    2  A    between atoms: O_3  and  C_4 
REMARK       I    between atoms: N_10  and  C_11 
REMARK    3  A    between atoms: C_11  and  C_13 
REMARK    4  A    between atoms: C_13  and  C_14 
REMARK    5  A    between atoms: C_17  and  C_20 
ROOT
HETATM    1  C   UNL     1      40.651 -13.925   2.573  1.00  0.00    -0.049 A 
HETATM    2  C   UNL     1      41.951 -13.784   3.083  1.00  0.00     0.008 A 
HETATM    3  C   UNL     1      42.562 -14.838   3.764  1.00  0.00     0.014 A 
HETATM    4  C   UNL     1      41.879 -16.048   3.919  1.00  0.00    -0.005 A 
HETATM    5  C   UNL     1      40.575 -16.192   3.445  1.00  0.00     0.014 A 
HETATM    6  C   UNL     1      39.966 -15.135   2.768  1.00  0.00     0.008 A 
ENDROOT
BRANCH   1   7
HETATM    7  C   UNL     1      40.000 -12.793   1.804  1.00  0.00     0.141 C 
BRANCH   7   8
HETATM    8  C   UNL     1      40.932 -11.636   1.487  1.00  0.00     0.228 C 
HETATM    9  N   UNL     1      41.618 -11.629   0.284  1.00  0.00    -0.317 N 
HETATM   10  C   UNL     1      42.538 -10.514   0.011  1.00  0.00     0.137 A 
HETATM   11  C   UNL     1      41.615 -12.493  -0.829  1.00  0.00     0.046 A 
HETATM   12  C   UNL     1      43.186 -10.757  -1.350  1.00  0.00     0.061 A 
HETATM   13  C   UNL     1      42.502 -12.009  -1.795  1.00  0.00    -0.029 A 
HETATM   14  C   UNL     1      42.696 -12.660  -3.006  1.00  0.00     0.012 A 
HETATM   15  C   UNL     1      41.976 -13.826  -3.260  1.00  0.00     0.037 A 
HETATM   16  C   UNL     1      41.080 -14.324  -2.305  1.00  0.00     0.070 A 
HETATM   17  C   UNL     1      40.904 -13.654  -1.082  1.00  0.00     0.067 A 
HETATM   18  O   UNL     1      41.088 -10.705   2.287  1.00  0.00    -0.273 OA
BRANCH  16  19
HETATM   19  O   UNL     1      40.317 -15.454  -2.440  1.00  0.00    -0.351 OA
BRANCH  19  20
HETATM   20  C   UNL     1      39.552 -15.586  -3.638  1.00  0.00     0.171 C 
HETATM   21  C   UNL     1      38.227 -14.876  -3.428  1.00  0.00     0.034 C 
ENDBRANCH  19  20
ENDBRANCH  16  19
ENDBRANCH   7   8
ENDBRANCH   1   7
BRANCH   4  22
HETATM   22  C   UNL     1      42.522 -17.186   4.618  1.00  0.00     0.098 A 
HETATM   23  N   UNL     1      42.489 -17.173   5.918  1.00  0.00    -0.170 NA
HETATM   24  N   UNL     1      43.106 -18.181   6.592  1.00  0.00    -0.242 N 
HETATM   25  C   UNL     1      43.812 -19.216   6.031  1.00  0.00     0.272 A 
HETATM   26  H   UNL     1      43.081 -18.128   7.605  1.00  0.00     0.192 HD
HETATM   27  O   UNL     1      44.388 -20.062   6.706  1.00  0.00    -0.266 OA
HETATM   28  C   UNL     1      43.826 -19.268   4.561  1.00  0.00     0.046 A 
HETATM   29  C   UNL     1      44.473 -20.321   3.900  1.00  0.00     0.018 A 
HETATM   30  C   UNL     1      43.165 -18.276   3.839  1.00  0.00     0.011 A 
HETATM   31  C   UNL     1      44.441 -20.390   2.508  1.00  0.00     0.001 A 
HETATM   32  C   UNL     1      43.756 -19.418   1.781  1.00  0.00     0.001 A 
HETATM   33  C   UNL     1      43.112 -18.367   2.442  1.00  0.00     0.015 A 
ENDBRANCH   4  22
TORSDOF 5
ENDMDL
MODEL 10
REMARK VINA RESULT:      -8.5      4.093      6.236
REMARK  5 active torsions:
REMARK  status: ('A' for Active; 'I' for Inactive)
REMARK    1  A    between atoms: C_2  and  O_3 
REMARK    2  A    between atoms: O_3  and  C_4 
REMARK       I    between atoms: N_10  and  C_11 
REMARK    3  A    between atoms: C_11  and  C_13 
REMARK    4  A    between atoms: C_13  and  C_14 
REMARK    5  A    between atoms: C_17  and  C_20 
ROOT
HETATM    1  C   UNL     1      40.467 -15.476   0.823  1.00  0.00    -0.049 A 
HETATM    2  C   UNL     1      40.018 -16.162   1.962  1.00  0.00     0.008 A 
HETATM    3  C   UNL     1      40.843 -17.089   2.602  1.00  0.00     0.014 A 
HETATM    4  C   UNL     1      42.133 -17.317   2.114  1.00  0.00    -0.005 A 
HETATM    5  C   UNL     1      42.582 -16.665   0.965  1.00  0.00     0.014 A 
HETATM    6  C   UNL     1      41.753 -15.743   0.326  1.00  0.00     0.008 A 
ENDROOT
BRANCH   1   7
HETATM    7  C   UNL     1      39.584 -14.446   0.149  1.00  0.00     0.141 C 
BRANCH   7   8
HETATM    8  C   UNL     1      40.345 -13.298  -0.496  1.00  0.00     0.228 C 
HETATM    9  N   UNL     1      40.620 -12.165   0.250  1.00  0.00    -0.317 N 
HETATM   10  C   UNL     1      41.331 -11.055  -0.403  1.00  0.00     0.137 A 
HETATM   11  C   UNL     1      40.383 -11.819   1.596  1.00  0.00     0.046 A 
HETATM   12  C   UNL     1      41.481  -9.925   0.614  1.00  0.00     0.061 A 
HETATM   13  C   UNL     1      40.880 -10.535   1.839  1.00  0.00    -0.029 A 
HETATM   14  C   UNL     1      40.791  -9.938   3.089  1.00  0.00     0.012 A 
HETATM   15  C   UNL     1      40.192 -10.650   4.127  1.00  0.00     0.037 A 
HETATM   16  C   UNL     1      39.692 -11.938   3.903  1.00  0.00     0.070 A 
HETATM   17  C   UNL     1      39.785 -12.522   2.628  1.00  0.00     0.067 A 
HETATM   18  O   UNL     1      40.716 -13.363  -1.675  1.00  0.00    -0.273 OA
BRANCH  16  19
HETATM   19  O   UNL     1      39.087 -12.734   4.841  1.00  0.00    -0.351 OA
BRANCH  19  20
HETATM   20  C   UNL     1      39.915 -13.276   5.869  1.00  0.00     0.171 C 
HETATM   21  C   UNL     1      40.221 -14.719   5.511  1.00  0.00     0.034 C 
ENDBRANCH  19  20
ENDBRANCH  16  19
ENDBRANCH   7   8
ENDBRANCH   1   7
BRANCH   4  22
HETATM   22  C   UNL     1      43.032 -18.278   2.795  1.00  0.00     0.098 A 
HETATM   23  N   UNL     1      43.291 -19.388   2.167  1.00  0.00    -0.170 NA
HETATM   24  N   UNL     1      44.079 -20.311   2.781  1.00  0.00    -0.242 N 
HETATM   25  C   UNL     1      44.611 -20.209   4.043  1.00  0.00     0.272 A 
HETATM   26  H   UNL     1      44.242 -21.174   2.274  1.00  0.00     0.192 HD
HETATM   27  O   UNL     1      45.271 -21.109   4.552  1.00  0.00    -0.266 OA
HETATM   28  C   UNL     1      44.361 -18.945   4.751  1.00  0.00     0.046 A 
HETATM   29  C   UNL     1      44.914 -18.728   6.021  1.00  0.00     0.018 A 
HETATM   30  C   UNL     1      43.596 -17.959   4.132  1.00  0.00     0.011 A 
HETATM   31  C   UNL     1      44.713 -17.509   6.666  1.00  0.00     0.001 A 
HETATM   32  C   UNL     1      43.974 -16.507   6.039  1.00  0.00     0.001 A 
HETATM   33  C   UNL     1      43.422 -16.724   4.772  1.00  0.00     0.015 A 
ENDBRANCH   4  22
TORSDOF 5
ENDMDL
