MODEL 1
REMARK VINA RESULT:      -8.0      0.000      0.000
REMARK  9 active torsions:
REMARK  status: ('A' for Active; 'I' for Inactive)
REMARK    1  A    between atoms: C_6  and  C_7 
REMARK    2  A    between atoms: C_7  and  C_8 
REMARK    3  A    between atoms: C_11  and  N_12 
REMARK       I    between atoms: N_12  and  C_13 
REMARK       I    between atoms: C_13  and  N_14 
REMARK    4  A    between atoms: N_14  and  C_15 
REMARK    5  A    between atoms: C_15  and  C_16 
REMARK    6  A    between atoms: C_16  and  C_17 
REMARK    7  A    between atoms: C_16  and  C_19 
REMARK    8  A    between atoms: C_17  and  O_18 
REMARK    9  A    between atoms: C_19  and  C_20 
ROOT
HETATM    1  N   UNL     1      40.605 -16.305   3.709  1.00  0.00    -0.309 N 
HETATM    2  C   UNL     1      41.357 -16.825   4.711  1.00  0.00     0.320 C 
HETATM    3  N   UNL     1      42.696 -16.964   4.524  1.00  0.00    -0.342 N 
HETATM    4  O   UNL     1      40.799 -17.122   5.767  1.00  0.00    -0.247 OA
HETATM    5  H   UNL     1      39.668 -16.126   4.050  1.00  0.00     0.170 HD
HETATM    6  H   UNL     1      43.114 -16.245   3.941  1.00  0.00     0.164 HD
ENDROOT
BRANCH   1   7
HETATM    7  C   UNL     1      40.826 -16.035   2.349  1.00  0.00     0.036 A 
HETATM    8  C   UNL     1      41.199 -16.976   1.390  1.00  0.00     0.030 A 
HETATM    9  C   UNL     1      41.369 -16.599   0.051  1.00  0.00     0.010 A 
HETATM   10  C   UNL     1      41.149 -15.275  -0.356  1.00  0.00    -0.051 A 
HETATM   11  C   UNL     1      40.753 -14.335   0.600  1.00  0.00     0.010 A 
HETATM   12  C   UNL     1      40.594 -14.714   1.935  1.00  0.00     0.030 A 
BRANCH  10  13
HETATM   13  C   UNL     1      41.261 -14.887  -1.813  1.00  0.00     0.118 C 
BRANCH  13  14
HETATM   14  C   UNL     1      40.057 -15.209  -2.633  1.00  0.00     0.126 A 
HETATM   15  N   UNL     1      39.884 -16.375  -3.327  1.00  0.00    -0.263 N 
HETATM   16  N   UNL     1      38.714 -16.390  -3.982  1.00  0.00    -0.158 NA
HETATM   17  H   UNL     1      40.506 -17.174  -3.395  1.00  0.00     0.190 HD
HETATM   18  C   UNL     1      38.206 -15.199  -3.652  1.00  0.00     0.144 A 
HETATM   19  C   UNL     1      36.891 -14.732  -4.131  1.00  0.00     0.095 C 
HETATM   20  N   UNL     1      38.998 -14.448  -2.824  1.00  0.00    -0.217 NA
ENDBRANCH  13  14
ENDBRANCH  10  13
ENDBRANCH   1   7
BRANCH   3  21
HETATM   21  C   UNL     1      43.521 -17.392   5.637  1.00  0.00     0.131 C 
BRANCH  21  22
HETATM   22  C   UNL     1      43.696 -18.915   5.748  1.00  0.00     0.033 C 
BRANCH  22  23
HETATM   23  C   UNL     1      43.770 -19.362   7.215  1.00  0.00     0.170 C 
BRANCH  23  24
HETATM   24  O   UNL     1      43.340 -18.335   8.102  1.00  0.00    -0.400 OA
HETATM   25  H   UNL     1      43.605 -18.624   8.996  1.00  0.00     0.209 HD
ENDBRANCH  23  24
ENDBRANCH  22  23
BRANCH  22  26
HETATM   26  C   UNL     1      44.896 -19.380   4.905  1.00  0.00     0.073 C 
BRANCH  26  27
HETATM   27  C   UNL     1      44.466 -20.152   3.709  1.00  0.00     0.053 A 
HETATM   28  O   UNL     1      44.793 -21.475   3.684  1.00  0.00    -0.327 OA
HETATM   29  C   UNL     1      44.296 -21.980   2.525  1.00  0.00     0.142 A 
HETATM   30  C   UNL     1      43.658 -20.998   1.804  1.00  0.00     0.027 A 
HETATM   31  C   UNL     1      43.769 -19.813   2.569  1.00  0.00     0.034 A 
ENDBRANCH  26  27
ENDBRANCH  22  26
ENDBRANCH  21  22
ENDBRANCH   3  21
TORSDOF 9
ENDMDL
MODEL 2
REMARK VINA RESULT:      -7.9      6.552      9.697
REMARK  9 active torsions:
REMARK  status: ('A' for Active; 'I' for Inactive)
REMARK    1  A    between atoms: C_6  and  C_7 
REMARK    2  A    between atoms: C_7  and  C_8 
REMARK    3  A    between atoms: C_11  and  N_12 
REMARK       I    between atoms: N_12  and  C_13 
REMARK       I    between atoms: C_13  and  N_14 
REMARK    4  A    between atoms: N_14  and  C_15 
REMARK    5  A    between atoms: C_15  and  C_16 
REMARK    6  A    between atoms: C_16  and  C_17 
REMARK    7  A    between atoms: C_16  and  C_19 
REMARK    8  A    between atoms: C_17  and  O_18 
REMARK    9  A    between atoms: C_19  and  C_20 
ROOT
HETATM    1  N   UNL     1      45.222 -13.485   7.326  1.00  0.00    -0.309 N 
HETATM    2  C   UNL     1      45.283 -12.750   8.464  1.00  0.00     0.320 C 
HETATM    3  N   UNL     1      44.294 -12.884   9.387  1.00  0.00    -0.342 N 
HETATM    4  O   UNL     1      46.251 -12.009   8.631  1.00  0.00    -0.247 OA
HETATM    5  H   UNL     1      46.093 -13.389   6.817  1.00  0.00     0.170 HD
HETATM    6  H   UNL     1      43.902 -13.819   9.447  1.00  0.00     0.164 HD
ENDROOT
BRANCH   1   7
HETATM    7  C   UNL     1      44.231 -14.264   6.706  1.00  0.00     0.036 A 
HETATM    8  C   UNL     1      43.273 -13.787   5.813  1.00  0.00     0.030 A 
HETATM    9  C   UNL     1      42.344 -14.661   5.233  1.00  0.00     0.010 A 
HETATM   10  C   UNL     1      42.370 -16.033   5.523  1.00  0.00    -0.051 A 
HETATM   11  C   UNL     1      43.344 -16.516   6.401  1.00  0.00     0.010 A 
HETATM   12  C   UNL     1      44.262 -15.639   6.984  1.00  0.00     0.030 A 
BRANCH  10  13
HETATM   13  C   UNL     1      41.413 -16.984   4.840  1.00  0.00     0.118 C 
BRANCH  13  14
HETATM   14  C   UNL     1      42.003 -17.737   3.694  1.00  0.00     0.126 A 
HETATM   15  N   UNL     1      41.835 -17.397   2.379  1.00  0.00    -0.263 N 
HETATM   16  N   UNL     1      42.469 -18.254   1.564  1.00  0.00    -0.158 NA
HETATM   17  H   UNL     1      41.317 -16.620   1.983  1.00  0.00     0.190 HD
HETATM   18  C   UNL     1      43.013 -19.105   2.440  1.00  0.00     0.144 A 
HETATM   19  C   UNL     1      43.837 -20.257   2.026  1.00  0.00     0.095 C 
HETATM   20  N   UNL     1      42.752 -18.819   3.754  1.00  0.00    -0.217 NA
ENDBRANCH  13  14
ENDBRANCH  10  13
ENDBRANCH   1   7
BRANCH   3  21
HETATM   21  C   UNL     1      44.424 -12.203  10.661  1.00  0.00     0.131 C 
BRANCH  21  22
HETATM   22  C   UNL     1      43.369 -11.113  10.906  1.00  0.00     0.033 C 
BRANCH  22  23
HETATM   23  C   UNL     1      42.819 -10.561   9.583  1.00  0.00     0.170 C 
BRANCH  23  24
HETATM   24  O   UNL     1      41.698 -11.308   9.124  1.00  0.00    -0.400 OA
HETATM   25  H   UNL     1      42.026 -11.860   8.388  1.00  0.00     0.209 HD
ENDBRANCH  23  24
ENDBRANCH  22  23
BRANCH  22  26
HETATM   26  C   UNL     1      43.928 -10.024  11.838  1.00  0.00     0.073 C 
BRANCH  26  27
HETATM   27  C   UNL     1      43.114  -9.882  13.074  1.00  0.00     0.053 A 
HETATM   28  O   UNL     1      41.956 -10.599  13.130  1.00  0.00    -0.327 OA
HETATM   29  C   UNL     1      41.388 -10.334  14.336  1.00  0.00     0.142 A 
HETATM   30  C   UNL     1      42.165  -9.456  15.053  1.00  0.00     0.027 A 
HETATM   31  C   UNL     1      43.282  -9.160  14.237  1.00  0.00     0.034 A 
ENDBRANCH  26  27
ENDBRANCH  22  26
ENDBRANCH  21  22
ENDBRANCH   3  21
TORSDOF 9
ENDMDL
MODEL 3
REMARK VINA RESULT:      -7.8      5.504      8.598
REMARK  9 active torsions:
REMARK  status: ('A' for Active; 'I' for Inactive)
REMARK    1  A    between atoms: C_6  and  C_7 
REMARK    2  A    between atoms: C_7  and  C_8 
REMARK    3  A    between atoms: C_11  and  N_12 
REMARK       I    between atoms: N_12  and  C_13 
REMARK       I    between atoms: C_13  and  N_14 
REMARK    4  A    between atoms: N_14  and  C_15 
REMARK    5  A    between atoms: C_15  and  C_16 
REMARK    6  A    between atoms: C_16  and  C_17 
REMARK    7  A    between atoms: C_16  and  C_19 
REMARK    8  A    between atoms: C_17  and  O_18 
REMARK    9  A    between atoms: C_19  and  C_20 
ROOT
HETATM    1  N   UNL     1      40.056 -13.889   5.555  1.00  0.00    -0.309 N 
HETATM    2  C   UNL     1      39.982 -12.741   6.274  1.00  0.00     0.320 C 
HETATM    3  N   UNL     1      41.123 -12.214   6.791  1.00  0.00    -0.342 N 
HETATM    4  O   UNL     1      38.883 -12.203   6.404  1.00  0.00    -0.247 OA
HETATM    5  H   UNL     1      39.160 -14.070   5.117  1.00  0.00     0.170 HD
HETATM    6  H   UNL     1      41.949 -12.364   6.219  1.00  0.00     0.164 HD
ENDROOT
BRANCH   1   7
HETATM    7  C   UNL     1      41.046 -14.864   5.352  1.00  0.00     0.036 A 
HETATM    8  C   UNL     1      42.232 -14.672   4.644  1.00  0.00     0.030 A 
HETATM    9  C   UNL     1      43.165 -15.711   4.524  1.00  0.00     0.010 A 
HETATM   10  C   UNL     1      42.936 -16.955   5.129  1.00  0.00    -0.051 A 
HETATM   11  C   UNL     1      41.758 -17.141   5.859  1.00  0.00     0.010 A 
HETATM   12  C   UNL     1      40.827 -16.106   5.967  1.00  0.00     0.030 A 
BRANCH  10  13
HETATM   13  C   UNL     1      43.977 -18.049   5.060  1.00  0.00     0.118 C 
BRANCH  13  14
HETATM   14  C   UNL     1      43.837 -18.962   3.887  1.00  0.00     0.126 A 
HETATM   15  N   UNL     1      43.036 -18.712   2.806  1.00  0.00    -0.263 N 
HETATM   16  N   UNL     1      43.098 -19.706   1.907  1.00  0.00    -0.158 NA
HETATM   17  H   UNL     1      42.442 -17.910   2.625  1.00  0.00     0.190 HD
HETATM   18  C   UNL     1      43.958 -20.545   2.494  1.00  0.00     0.144 A 
HETATM   19  C   UNL     1      44.370 -21.823   1.880  1.00  0.00     0.095 C 
HETATM   20  N   UNL     1      44.434 -20.122   3.707  1.00  0.00    -0.217 NA
ENDBRANCH  13  14
ENDBRANCH  10  13
ENDBRANCH   1   7
BRANCH   3  21
HETATM   21  C   UNL     1      41.068 -10.921   7.443  1.00  0.00     0.131 C 
BRANCH  21  22
HETATM   22  C   UNL     1      41.172 -10.979   8.975  1.00  0.00     0.033 C 
BRANCH  22  23
HETATM   23  C   UNL     1      39.785 -10.908   9.631  1.00  0.00     0.170 C 
BRANCH  23  24
HETATM   24  O   UNL     1      39.021 -12.082   9.376  1.00  0.00    -0.400 OA
HETATM   25  H   UNL     1      39.085 -12.625  10.185  1.00  0.00     0.209 HD
ENDBRANCH  23  24
ENDBRANCH  22  23
BRANCH  22  26
HETATM   26  C   UNL     1      42.146  -9.905   9.490  1.00  0.00     0.073 C 
BRANCH  26  27
HETATM   27  C   UNL     1      43.461 -10.486   9.867  1.00  0.00     0.053 A 
HETATM   28  O   UNL     1      44.200 -11.033   8.861  1.00  0.00    -0.327 OA
HETATM   29  C   UNL     1      45.353 -11.485   9.421  1.00  0.00     0.142 A 
HETATM   30  C   UNL     1      45.361 -11.238  10.773  1.00  0.00     0.027 A 
HETATM   31  C   UNL     1      44.137 -10.594  11.064  1.00  0.00     0.034 A 
ENDBRANCH  26  27
ENDBRANCH  22  26
ENDBRANCH  21  22
ENDBRANCH   3  21
TORSDOF 9
ENDMDL
MODEL 4
REMARK VINA RESULT:      -7.7      3.347      8.039
REMARK  9 active torsions:
REMARK  status: ('A' for Active; 'I' for Inactive)
REMARK    1  A    between atoms: C_6  and  C_7 
REMARK    2  A    between atoms: C_7  and  C_8 
REMARK    3  A    between atoms: C_11  and  N_12 
REMARK       I    between atoms: N_12  and  C_13 
REMARK       I    between atoms: C_13  and  N_14 
REMARK    4  A    between atoms: N_14  and  C_15 
REMARK    5  A    between atoms: C_15  and  C_16 
REMARK    6  A    between atoms: C_16  and  C_17 
REMARK    7  A    between atoms: C_16  and  C_19 
REMARK    8  A    between atoms: C_17  and  O_18 
REMARK    9  A    between atoms: C_19  and  C_20 
ROOT
HETATM    1  N   UNL     1      41.377 -13.721   4.835  1.00  0.00    -0.309 N 
HETATM    2  C   UNL     1      41.067 -13.543   3.526  1.00  0.00     0.320 C 
HETATM    3  N   UNL     1      41.186 -14.595   2.673  1.00  0.00    -0.342 N 
HETATM    4  O   UNL     1      40.659 -12.440   3.166  1.00  0.00    -0.247 OA
HETATM    5  H   UNL     1      41.097 -12.902   5.361  1.00  0.00     0.170 HD
HETATM    6  H   UNL     1      40.980 -15.497   3.092  1.00  0.00     0.164 HD
ENDROOT
BRANCH   1   7
HETATM    7  C   UNL     1      42.029 -14.727   5.566  1.00  0.00     0.036 A 
HETATM    8  C   UNL     1      43.381 -14.730   5.903  1.00  0.00     0.030 A 
HETATM    9  C   UNL     1      43.923 -15.778   6.661  1.00  0.00     0.010 A 
HETATM   10  C   UNL     1      43.115 -16.832   7.110  1.00  0.00    -0.051 A 
HETATM   11  C   UNL     1      41.754 -16.818   6.792  1.00  0.00     0.010 A 
HETATM   12  C   UNL     1      41.221 -15.777   6.029  1.00  0.00     0.030 A 
BRANCH  10  13
HETATM   13  C   UNL     1      43.687 -17.922   7.988  1.00  0.00     0.118 C 
BRANCH  13  14
HETATM   14  C   UNL     1      43.868 -19.235   7.303  1.00  0.00     0.126 A 
HETATM   15  N   UNL     1      43.473 -20.438   7.823  1.00  0.00    -0.263 N 
HETATM   16  N   UNL     1      43.769 -21.452   6.996  1.00  0.00    -0.158 NA
HETATM   17  H   UNL     1      43.013 -20.630   8.706  1.00  0.00     0.190 HD
HETATM   18  C   UNL     1      44.348 -20.809   5.978  1.00  0.00     0.144 A 
HETATM   19  C   UNL     1      44.857 -21.506   4.780  1.00  0.00     0.095 C 
HETATM   20  N   UNL     1      44.425 -19.449   6.128  1.00  0.00    -0.217 NA
ENDBRANCH  13  14
ENDBRANCH  10  13
ENDBRANCH   1   7
BRANCH   3  21
HETATM   21  C   UNL     1      40.729 -14.447   1.305  1.00  0.00     0.131 C 
BRANCH  21  22
HETATM   22  C   UNL     1      41.591 -15.182   0.266  1.00  0.00     0.033 C 
BRANCH  22  23
HETATM   23  C   UNL     1      41.366 -14.618  -1.144  1.00  0.00     0.170 C 
BRANCH  23  24
HETATM   24  O   UNL     1      41.492 -15.625  -2.141  1.00  0.00    -0.400 OA
HETATM   25  H   UNL     1      41.873 -15.182  -2.924  1.00  0.00     0.209 HD
ENDBRANCH  23  24
ENDBRANCH  22  23
BRANCH  22  26
HETATM   26  C   UNL     1      41.366 -16.701   0.360  1.00  0.00     0.073 C 
BRANCH  26  27
HETATM   27  C   UNL     1      42.302 -17.340   1.322  1.00  0.00     0.053 A 
HETATM   28  O   UNL     1      41.833 -17.547   2.586  1.00  0.00    -0.327 OA
HETATM   29  C   UNL     1      42.834 -18.147   3.283  1.00  0.00     0.142 A 
HETATM   30  C   UNL     1      43.938 -18.325   2.484  1.00  0.00     0.027 A 
HETATM   31  C   UNL     1      43.597 -17.801   1.215  1.00  0.00     0.034 A 
ENDBRANCH  26  27
ENDBRANCH  22  26
ENDBRANCH  21  22
ENDBRANCH   3  21
TORSDOF 9
ENDMDL
MODEL 5
REMARK VINA RESULT:      -7.6      1.997      2.629
REMARK  9 active torsions:
REMARK  status: ('A' for Active; 'I' for Inactive)
REMARK    1  A    between atoms: C_6  and  C_7 
REMARK    2  A    between atoms: C_7  and  C_8 
REMARK    3  A    between atoms: C_11  and  N_12 
REMARK       I    between atoms: N_12  and  C_13 
REMARK       I    between atoms: C_13  and  N_14 
REMARK    4  A    between atoms: N_14  and  C_15 
REMARK    5  A    between atoms: C_15  and  C_16 
REMARK    6  A    between atoms: C_16  and  C_17 
REMARK    7  A    between atoms: C_16  and  C_19 
REMARK    8  A    between atoms: C_17  and  O_18 
REMARK    9  A    between atoms: C_19  and  C_20 
ROOT
HETATM    1  N   UNL     1      40.530 -16.017   4.390  1.00  0.00    -0.309 N 
HETATM    2  C   UNL     1      41.196 -16.702   5.353  1.00  0.00     0.320 C 
HETATM    3  N   UNL     1      42.452 -17.151   5.092  1.00  0.00    -0.342 N 
HETATM    4  O   UNL     1      40.645 -16.864   6.441  1.00  0.00    -0.247 OA
HETATM    5  H   UNL     1      39.682 -15.625   4.781  1.00  0.00     0.170 HD
HETATM    6  H   UNL     1      42.992 -16.547   4.479  1.00  0.00     0.164 HD
ENDROOT
BRANCH   1   7
HETATM    7  C   UNL     1      40.730 -15.801   3.016  1.00  0.00     0.036 A 
HETATM    8  C   UNL     1      41.840 -16.225   2.288  1.00  0.00     0.030 A 
HETATM    9  C   UNL     1      41.924 -15.975   0.911  1.00  0.00     0.010 A 
HETATM   10  C   UNL     1      40.889 -15.314   0.236  1.00  0.00    -0.051 A 
HETATM   11  C   UNL     1      39.765 -14.908   0.962  1.00  0.00     0.010 A 
HETATM   12  C   UNL     1      39.690 -15.151   2.335  1.00  0.00     0.030 A 
BRANCH  10  13
HETATM   13  C   UNL     1      40.950 -15.111  -1.261  1.00  0.00     0.118 C 
BRANCH  13  14
HETATM   14  C   UNL     1      41.728 -13.912  -1.691  1.00  0.00     0.126 A 
HETATM   15  N   UNL     1      42.282 -13.755  -2.932  1.00  0.00    -0.263 N 
HETATM   16  N   UNL     1      42.932 -12.587  -3.038  1.00  0.00    -0.158 NA
HETATM   17  H   UNL     1      42.254 -14.386  -3.727  1.00  0.00     0.190 HD
HETATM   18  C   UNL     1      42.744 -12.064  -1.822  1.00  0.00     0.144 A 
HETATM   19  C   UNL     1      43.277 -10.745  -1.429  1.00  0.00     0.095 C 
HETATM   20  N   UNL     1      42.008 -12.845  -0.970  1.00  0.00    -0.217 NA
ENDBRANCH  13  14
ENDBRANCH  10  13
ENDBRANCH   1   7
BRANCH   3  21
HETATM   21  C   UNL     1      43.216 -17.764   6.161  1.00  0.00     0.131 C 
BRANCH  21  22
HETATM   22  C   UNL     1      43.561 -19.243   5.925  1.00  0.00     0.033 C 
BRANCH  22  23
HETATM   23  C   UNL     1      43.707 -20.000   7.253  1.00  0.00     0.170 C 
BRANCH  23  24
HETATM   24  O   UNL     1      43.614 -21.408   7.070  1.00  0.00    -0.400 OA
HETATM   25  H   UNL     1      43.003 -21.729   7.762  1.00  0.00     0.209 HD
ENDBRANCH  23  24
ENDBRANCH  22  23
BRANCH  22  26
HETATM   26  C   UNL     1      44.792 -19.369   5.011  1.00  0.00     0.073 C 
BRANCH  26  27
HETATM   27  C   UNL     1      44.562 -20.333   3.902  1.00  0.00     0.053 A 
HETATM   28  O   UNL     1      44.771 -21.650   4.184  1.00  0.00    -0.327 OA
HETATM   29  C   UNL     1      44.492 -22.344   3.050  1.00  0.00     0.142 A 
HETATM   30  C   UNL     1      44.109 -21.489   2.043  1.00  0.00     0.027 A 
HETATM   31  C   UNL     1      44.157 -20.186   2.593  1.00  0.00     0.034 A 
ENDBRANCH  26  27
ENDBRANCH  22  26
ENDBRANCH  21  22
ENDBRANCH   3  21
TORSDOF 9
ENDMDL
MODEL 6
REMARK VINA RESULT:      -7.6      2.596      3.573
REMARK  9 active torsions:
REMARK  status: ('A' for Active; 'I' for Inactive)
REMARK    1  A    between atoms: C_6  and  C_7 
REMARK    2  A    between atoms: C_7  and  C_8 
REMARK    3  A    between atoms: C_11  and  N_12 
REMARK       I    between atoms: N_12  and  C_13 
REMARK       I    between atoms: C_13  and  N_14 
REMARK    4  A    between atoms: N_14  and  C_15 
REMARK    5  A    between atoms: C_15  and  C_16 
REMARK    6  A    between atoms: C_16  and  C_17 
REMARK    7  A    between atoms: C_16  and  C_19 
REMARK    8  A    between atoms: C_17  and  O_18 
REMARK    9  A    between atoms: C_19  and  C_20 
ROOT
HETATM    1  N   UNL     1      42.849 -15.449   6.976  1.00  0.00    -0.309 N 
HETATM    2  C   UNL     1      43.517 -16.611   7.182  1.00  0.00     0.320 C 
HETATM    3  N   UNL     1      43.977 -17.304   6.106  1.00  0.00    -0.342 N 
HETATM    4  O   UNL     1      43.709 -16.978   8.340  1.00  0.00    -0.247 OA
HETATM    5  H   UNL     1      42.706 -14.981   7.863  1.00  0.00     0.170 HD
HETATM    6  H   UNL     1      44.266 -16.722   5.326  1.00  0.00     0.164 HD
ENDROOT
BRANCH   1   7
HETATM    7  C   UNL     1      42.287 -14.819   5.853  1.00  0.00     0.036 A 
HETATM    8  C   UNL     1      40.950 -14.905   5.466  1.00  0.00     0.030 A 
HETATM    9  C   UNL     1      40.490 -14.213   4.337  1.00  0.00     0.010 A 
HETATM   10  C   UNL     1      41.358 -13.407   3.587  1.00  0.00    -0.051 A 
HETATM   11  C   UNL     1      42.693 -13.303   3.986  1.00  0.00     0.010 A 
HETATM   12  C   UNL     1      43.148 -14.002   5.107  1.00  0.00     0.030 A 
BRANCH  10  13
HETATM   13  C   UNL     1      40.843 -12.604   2.413  1.00  0.00     0.118 C 
BRANCH  13  14
HETATM   14  C   UNL     1      41.147 -13.198   1.078  1.00  0.00     0.126 A 
HETATM   15  N   UNL     1      41.979 -12.629   0.151  1.00  0.00    -0.263 N 
HETATM   16  N   UNL     1      42.061 -13.375  -0.960  1.00  0.00    -0.158 NA
HETATM   17  H   UNL     1      42.503 -11.763   0.213  1.00  0.00     0.190 HD
HETATM   18  C   UNL     1      41.253 -14.397  -0.659  1.00  0.00     0.144 A 
HETATM   19  C   UNL     1      41.008 -15.520  -1.584  1.00  0.00     0.095 C 
HETATM   20  N   UNL     1      40.678 -14.325   0.583  1.00  0.00    -0.217 NA
ENDBRANCH  13  14
ENDBRANCH  10  13
ENDBRANCH   1   7
BRANCH   3  21
HETATM   21  C   UNL     1      44.806 -18.474   6.326  1.00  0.00     0.131 C 
BRANCH  21  22
HETATM   22  C   UNL     1      44.183 -19.792   5.839  1.00  0.00     0.033 C 
BRANCH  22  23
HETATM   23  C   UNL     1      43.668 -20.633   7.016  1.00  0.00     0.170 C 
BRANCH  23  24
HETATM   24  O   UNL     1      43.708 -19.907   8.240  1.00  0.00    -0.400 OA
HETATM   25  H   UNL     1      44.586 -19.482   8.272  1.00  0.00     0.209 HD
ENDBRANCH  23  24
ENDBRANCH  22  23
BRANCH  22  26
HETATM   26  C   UNL     1      45.169 -20.549   4.932  1.00  0.00     0.073 C 
BRANCH  26  27
HETATM   27  C   UNL     1      44.560 -20.894   3.620  1.00  0.00     0.053 A 
HETATM   28  O   UNL     1      43.910 -19.891   2.964  1.00  0.00    -0.327 OA
HETATM   29  C   UNL     1      43.451 -20.417   1.799  1.00  0.00     0.142 A 
HETATM   30  C   UNL     1      43.794 -21.745   1.700  1.00  0.00     0.027 A 
HETATM   31  C   UNL     1      44.510 -22.056   2.880  1.00  0.00     0.034 A 
ENDBRANCH  26  27
ENDBRANCH  22  26
ENDBRANCH  21  22
ENDBRANCH   3  21
TORSDOF 9
ENDMDL
MODEL 7
REMARK VINA RESULT:      -7.6      3.923      7.487
REMARK  9 active torsions:
REMARK  status: ('A' for Active; 'I' for Inactive)
REMARK    1  A    between atoms: C_6  and  C_7 
REMARK    2  A    between atoms: C_7  and  C_8 
REMARK    3  A    between atoms: C_11  and  N_12 
REMARK       I    between atoms: N_12  and  C_13 
REMARK       I    between atoms: C_13  and  N_14 
REMARK    4  A    between atoms: N_14  and  C_15 
REMARK    5  A    between atoms: C_15  and  C_16 
REMARK    6  A    between atoms: C_16  and  C_17 
REMARK    7  A    between atoms: C_16  and  C_19 
REMARK    8  A    between atoms: C_17  and  O_18 
REMARK    9  A    between atoms: C_19  and  C_20 
ROOT
HETATM    1  N   UNL     1      40.610 -15.230   6.252  1.00  0.00    -0.309 N 
HETATM    2  C   UNL     1      40.124 -14.220   5.487  1.00  0.00     0.320 C 
HETATM    3  N   UNL     1      40.512 -14.134   4.187  1.00  0.00    -0.342 N 
HETATM    4  O   UNL     1      39.324 -13.436   5.995  1.00  0.00    -0.247 OA
HETATM    5  H   UNL     1      40.119 -15.248   7.137  1.00  0.00     0.170 HD
HETATM    6  H   UNL     1      40.677 -15.031   3.740  1.00  0.00     0.164 HD
ENDROOT
BRANCH   1   7
HETATM    7  C   UNL     1      41.642 -16.171   6.103  1.00  0.00     0.036 A 
HETATM    8  C   UNL     1      41.478 -17.483   5.660  1.00  0.00     0.030 A 
HETATM    9  C   UNL     1      42.586 -18.332   5.525  1.00  0.00     0.010 A 
HETATM   10  C   UNL     1      43.880 -17.875   5.813  1.00  0.00    -0.051 A 
HETATM   11  C   UNL     1      44.047 -16.553   6.236  1.00  0.00     0.010 A 
HETATM   12  C   UNL     1      42.939 -15.714   6.378  1.00  0.00     0.030 A 
BRANCH  10  13
HETATM   13  C   UNL     1      45.079 -18.770   5.597  1.00  0.00     0.118 C 
BRANCH  13  14
HETATM   14  C   UNL     1      44.824 -19.941   4.707  1.00  0.00     0.126 A 
HETATM   15  N   UNL     1      44.842 -21.244   5.123  1.00  0.00    -0.263 N 
HETATM   16  N   UNL     1      44.588 -22.088   4.111  1.00  0.00    -0.158 NA
HETATM   17  H   UNL     1      45.016 -21.615   6.052  1.00  0.00     0.190 HD
HETATM   18  C   UNL     1      44.422 -21.240   3.091  1.00  0.00     0.144 A 
HETATM   19  C   UNL     1      44.108 -21.692   1.721  1.00  0.00     0.095 C 
HETATM   20  N   UNL     1      44.556 -19.916   3.418  1.00  0.00    -0.217 NA
ENDBRANCH  13  14
ENDBRANCH  10  13
ENDBRANCH   1   7
BRANCH   3  21
HETATM   21  C   UNL     1      39.894 -13.139   3.333  1.00  0.00     0.131 C 
BRANCH  21  22
HETATM   22  C   UNL     1      39.716 -13.581   1.872  1.00  0.00     0.033 C 
BRANCH  22  23
HETATM   23  C   UNL     1      38.924 -14.893   1.779  1.00  0.00     0.170 C 
BRANCH  23  24
HETATM   24  O   UNL     1      37.730 -14.735   1.021  1.00  0.00    -0.400 OA
HETATM   25  H   UNL     1      37.329 -15.624   0.962  1.00  0.00     0.209 HD
ENDBRANCH  23  24
ENDBRANCH  22  23
BRANCH  22  26
HETATM   26  C   UNL     1      41.078 -13.637   1.158  1.00  0.00     0.073 C 
BRANCH  26  27
HETATM   27  C   UNL     1      41.667 -15.001   1.196  1.00  0.00     0.053 A 
HETATM   28  O   UNL     1      42.309 -15.358   2.345  1.00  0.00    -0.327 OA
HETATM   29  C   UNL     1      42.751 -16.631   2.169  1.00  0.00     0.142 A 
HETATM   30  C   UNL     1      42.403 -17.094   0.922  1.00  0.00     0.027 A 
HETATM   31  C   UNL     1      41.704 -16.039   0.290  1.00  0.00     0.034 A 
ENDBRANCH  26  27
ENDBRANCH  22  26
ENDBRANCH  21  22
ENDBRANCH   3  21
TORSDOF 9
ENDMDL
MODEL 8
REMARK VINA RESULT:      -7.5      3.795      7.677
REMARK  9 active torsions:
REMARK  status: ('A' for Active; 'I' for Inactive)
REMARK    1  A    between atoms: C_6  and  C_7 
REMARK    2  A    between atoms: C_7  and  C_8 
REMARK    3  A    between atoms: C_11  and  N_12 
REMARK       I    between atoms: N_12  and  C_13 
REMARK       I    between atoms: C_13  and  N_14 
REMARK    4  A    between atoms: N_14  and  C_15 
REMARK    5  A    between atoms: C_15  and  C_16 
REMARK    6  A    between atoms: C_16  and  C_17 
REMARK    7  A    between atoms: C_16  and  C_19 
REMARK    8  A    between atoms: C_17  and  O_18 
REMARK    9  A    between atoms: C_19  and  C_20 
ROOT
HETATM    1  N   UNL     1      40.293 -14.585   6.135  1.00  0.00    -0.309 N 
HETATM    2  C   UNL     1      39.764 -13.666   5.289  1.00  0.00     0.320 C 
HETATM    3  N   UNL     1      39.968 -13.809   3.953  1.00  0.00    -0.342 N 
HETATM    4  O   UNL     1      39.091 -12.752   5.764  1.00  0.00    -0.247 OA
HETATM    5  H   UNL     1      39.932 -14.429   7.069  1.00  0.00     0.170 HD
HETATM    6  H   UNL     1      40.015 -14.773   3.638  1.00  0.00     0.164 HD
ENDROOT
BRANCH   1   7
HETATM    7  C   UNL     1      41.237 -15.617   6.006  1.00  0.00     0.036 A 
HETATM    8  C   UNL     1      40.937 -16.974   5.903  1.00  0.00     0.030 A 
HETATM    9  C   UNL     1      41.961 -17.919   5.752  1.00  0.00     0.010 A 
HETATM   10  C   UNL     1      43.303 -17.519   5.682  1.00  0.00    -0.051 A 
HETATM   11  C   UNL     1      43.603 -16.156   5.763  1.00  0.00     0.010 A 
HETATM   12  C   UNL     1      42.580 -15.219   5.923  1.00  0.00     0.030 A 
BRANCH  10  13
HETATM   13  C   UNL     1      44.399 -18.534   5.446  1.00  0.00     0.118 C 
BRANCH  13  14
HETATM   14  C   UNL     1      44.301 -19.258   4.144  1.00  0.00     0.126 A 
HETATM   15  N   UNL     1      43.928 -18.675   2.963  1.00  0.00    -0.263 N 
HETATM   16  N   UNL     1      43.918 -19.563   1.958  1.00  0.00    -0.158 NA
HETATM   17  H   UNL     1      43.676 -17.709   2.781  1.00  0.00     0.190 HD
HETATM   18  C   UNL     1      44.295 -20.683   2.584  1.00  0.00     0.144 A 
HETATM   19  C   UNL     1      44.444 -21.975   1.888  1.00  0.00     0.095 C 
HETATM   20  N   UNL     1      44.541 -20.534   3.924  1.00  0.00    -0.217 NA
ENDBRANCH  13  14
ENDBRANCH  10  13
ENDBRANCH   1   7
BRANCH   3  21
HETATM   21  C   UNL     1      39.294 -12.908   3.038  1.00  0.00     0.131 C 
BRANCH  21  22
HETATM   22  C   UNL     1      39.282 -13.381   1.576  1.00  0.00     0.033 C 
BRANCH  22  23
HETATM   23  C   UNL     1      38.293 -14.538   1.372  1.00  0.00     0.170 C 
BRANCH  23  24
HETATM   24  O   UNL     1      38.750 -15.737   1.987  1.00  0.00    -0.400 OA
HETATM   25  H   UNL     1      39.007 -16.333   1.257  1.00  0.00     0.209 HD
ENDBRANCH  23  24
ENDBRANCH  22  23
BRANCH  22  26
HETATM   26  C   UNL     1      40.711 -13.708   1.106  1.00  0.00     0.073 C 
BRANCH  26  27
HETATM   27  C   UNL     1      40.729 -14.222  -0.290  1.00  0.00     0.053 A 
HETATM   28  O   UNL     1      40.274 -13.378  -1.258  1.00  0.00    -0.327 OA
HETATM   29  C   UNL     1      40.393 -14.036  -2.441  1.00  0.00     0.142 A 
HETATM   30  C   UNL     1      40.916 -15.292  -2.243  1.00  0.00     0.027 A 
HETATM   31  C   UNL     1      41.132 -15.415  -0.851  1.00  0.00     0.034 A 
ENDBRANCH  26  27
ENDBRANCH  22  26
ENDBRANCH  21  22
ENDBRANCH   3  21
TORSDOF 9
ENDMDL
MODEL 9
REMARK VINA RESULT:      -7.4      1.777      2.054
REMARK  9 active torsions:
REMARK  status: ('A' for Active; 'I' for Inactive)
REMARK    1  A    between atoms: C_6  and  C_7 
REMARK    2  A    between atoms: C_7  and  C_8 
REMARK    3  A    between atoms: C_11  and  N_12 
REMARK       I    between atoms: N_12  and  C_13 
REMARK       I    between atoms: C_13  and  N_14 
REMARK    4  A    between atoms: N_14  and  C_15 
REMARK    5  A    between atoms: C_15  and  C_16 
REMARK    6  A    between atoms: C_16  and  C_17 
REMARK    7  A    between atoms: C_16  and  C_19 
REMARK    8  A    between atoms: C_17  and  O_18 
REMARK    9  A    between atoms: C_19  and  C_20 
ROOT
HETATM    1  N   UNL     1      40.829 -14.410   4.427  1.00  0.00    -0.309 N 
HETATM    2  C   UNL     1      40.992 -15.581   5.091  1.00  0.00     0.320 C 
HETATM    3  N   UNL     1      41.315 -16.698   4.386  1.00  0.00    -0.342 N 
HETATM    4  O   UNL     1      40.872 -15.581   6.315  1.00  0.00    -0.247 OA
HETATM    5  H   UNL     1      40.742 -13.653   5.095  1.00  0.00     0.170 HD
HETATM    6  H   UNL     1      41.904 -16.525   3.577  1.00  0.00     0.164 HD
ENDROOT
BRANCH   1   7
HETATM    7  C   UNL     1      40.699 -14.052   3.075  1.00  0.00     0.036 A 
HETATM    8  C   UNL     1      39.496 -13.962   2.377  1.00  0.00     0.030 A 
HETATM    9  C   UNL     1      39.481 -13.571   1.032  1.00  0.00     0.010 A 
HETATM   10  C   UNL     1      40.670 -13.243   0.366  1.00  0.00    -0.051 A 
HETATM   11  C   UNL     1      41.876 -13.312   1.071  1.00  0.00     0.010 A 
HETATM   12  C   UNL     1      41.886 -13.712   2.409  1.00  0.00     0.030 A 
BRANCH  10  13
HETATM   13  C   UNL     1      40.644 -12.751  -1.064  1.00  0.00     0.118 C 
BRANCH  13  14
HETATM   14  C   UNL     1      40.553 -13.833  -2.088  1.00  0.00     0.126 A 
HETATM   15  N   UNL     1      41.633 -14.433  -2.676  1.00  0.00    -0.263 N 
HETATM   16  N   UNL     1      41.256 -15.364  -3.565  1.00  0.00    -0.158 NA
HETATM   17  H   UNL     1      42.621 -14.259  -2.521  1.00  0.00     0.190 HD
HETATM   18  C   UNL     1      39.924 -15.292  -3.481  1.00  0.00     0.144 A 
HETATM   19  C   UNL     1      39.026 -16.147  -4.282  1.00  0.00     0.095 C 
HETATM   20  N   UNL     1      39.456 -14.368  -2.584  1.00  0.00    -0.217 NA
ENDBRANCH  13  14
ENDBRANCH  10  13
ENDBRANCH   1   7
BRANCH   3  21
HETATM   21  C   UNL     1      41.622 -17.919   5.104  1.00  0.00     0.131 C 
BRANCH  21  22
HETATM   22  C   UNL     1      43.045 -18.450   4.872  1.00  0.00     0.033 C 
BRANCH  22  23
HETATM   23  C   UNL     1      44.073 -17.672   5.705  1.00  0.00     0.170 C 
BRANCH  23  24
HETATM   24  O   UNL     1      45.214 -18.466   6.011  1.00  0.00    -0.400 OA
HETATM   25  H   UNL     1      45.055 -18.834   6.902  1.00  0.00     0.209 HD
ENDBRANCH  23  24
ENDBRANCH  22  23
BRANCH  22  26
HETATM   26  C   UNL     1      43.370 -18.477   3.369  1.00  0.00     0.073 C 
BRANCH  26  27
HETATM   27  C   UNL     1      43.721 -19.845   2.903  1.00  0.00     0.053 A 
HETATM   28  O   UNL     1      44.506 -20.590   3.731  1.00  0.00    -0.327 OA
HETATM   29  C   UNL     1      44.687 -21.792   3.123  1.00  0.00     0.142 A 
HETATM   30  C   UNL     1      44.031 -21.826   1.915  1.00  0.00     0.027 A 
HETATM   31  C   UNL     1      43.407 -20.565   1.770  1.00  0.00     0.034 A 
ENDBRANCH  26  27
ENDBRANCH  22  26
ENDBRANCH  21  22
ENDBRANCH   3  21
TORSDOF 9
ENDMDL
MODEL 10
REMARK VINA RESULT:      -7.4      2.235      4.012
REMARK  9 active torsions:
REMARK  status: ('A' for Active; 'I' for Inactive)
REMARK    1  A    between atoms: C_6  and  C_7 
REMARK    2  A    between atoms: C_7  and  C_8 
REMARK    3  A    between atoms: C_11  and  N_12 
REMARK       I    between atoms: N_12  and  C_13 
REMARK       I    between atoms: C_13  and  N_14 
REMARK    4  A    between atoms: N_14  and  C_15 
REMARK    5  A    between atoms: C_15  and  C_16 
REMARK    6  A    between atoms: C_16  and  C_17 
REMARK    7  A    between atoms: C_16  and  C_19 
REMARK    8  A    between atoms: C_17  and  O_18 
REMARK    9  A    between atoms: C_19  and  C_20 
ROOT
HETATM    1  N   UNL     1      43.999 -19.458   2.562  1.00  0.00    -0.309 N 
HETATM    2  C   UNL     1      44.392 -19.767   3.823  1.00  0.00     0.320 C 
HETATM    3  N   UNL     1      43.743 -19.195   4.872  1.00  0.00    -0.342 N 
HETATM    4  O   UNL     1      45.304 -20.580   3.969  1.00  0.00    -0.247 OA
HETATM    5  H   UNL     1      44.469 -20.069   1.904  1.00  0.00     0.170 HD
HETATM    6  H   UNL     1      42.755 -19.026   4.710  1.00  0.00     0.164 HD
ENDROOT
BRANCH   1   7
HETATM    7  C   UNL     1      43.166 -18.476   2.000  1.00  0.00     0.036 A 
HETATM    8  C   UNL     1      41.817 -18.645   1.693  1.00  0.00     0.030 A 
HETATM    9  C   UNL     1      41.072 -17.586   1.156  1.00  0.00     0.010 A 
HETATM   10  C   UNL     1      41.661 -16.333   0.937  1.00  0.00    -0.051 A 
HETATM   11  C   UNL     1      43.008 -16.156   1.267  1.00  0.00     0.010 A 
HETATM   12  C   UNL     1      43.748 -17.217   1.792  1.00  0.00     0.030 A 
BRANCH  10  13
HETATM   13  C   UNL     1      40.836 -15.172   0.428  1.00  0.00     0.118 C 
BRANCH  13  14
HETATM   14  C   UNL     1      41.103 -14.802  -0.994  1.00  0.00     0.126 A 
HETATM   15  N   UNL     1      41.341 -15.704  -1.995  1.00  0.00    -0.263 N 
HETATM   16  N   UNL     1      41.558 -15.093  -3.168  1.00  0.00    -0.158 NA
HETATM   17  H   UNL     1      41.369 -16.718  -1.945  1.00  0.00     0.190 HD
HETATM   18  C   UNL     1      41.441 -13.805  -2.826  1.00  0.00     0.144 A 
HETATM   19  C   UNL     1      41.592 -12.705  -3.797  1.00  0.00     0.095 C 
HETATM   20  N   UNL     1      41.160 -13.588  -1.503  1.00  0.00    -0.217 NA
ENDBRANCH  13  14
ENDBRANCH  10  13
ENDBRANCH   1   7
BRANCH   3  21
HETATM   21  C   UNL     1      44.069 -19.623   6.218  1.00  0.00     0.131 C 
BRANCH  21  22
HETATM   22  C   UNL     1      44.470 -18.483   7.167  1.00  0.00     0.033 C 
BRANCH  22  23
HETATM   23  C   UNL     1      43.254 -17.938   7.930  1.00  0.00     0.170 C 
BRANCH  23  24
HETATM   24  O   UNL     1      43.591 -17.562   9.260  1.00  0.00    -0.400 OA
HETATM   25  H   UNL     1      43.723 -16.594   9.240  1.00  0.00     0.209 HD
ENDBRANCH  23  24
ENDBRANCH  22  23
BRANCH  22  26
HETATM   26  C   UNL     1      45.248 -17.397   6.403  1.00  0.00     0.073 C 
BRANCH  26  27
HETATM   27  C   UNL     1      44.421 -16.184   6.171  1.00  0.00     0.053 A 
HETATM   28  O   UNL     1      43.514 -16.247   5.156  1.00  0.00    -0.327 OA
HETATM   29  C   UNL     1      42.867 -15.051   5.132  1.00  0.00     0.142 A 
HETATM   30  C   UNL     1      43.351 -14.222   6.117  1.00  0.00     0.027 A 
HETATM   31  C   UNL     1      44.358 -14.952   6.788  1.00  0.00     0.034 A 
ENDBRANCH  26  27
ENDBRANCH  22  26
ENDBRANCH  21  22
ENDBRANCH   3  21
TORSDOF 9
ENDMDL
