MODEL 1
REMARK VINA RESULT:      -9.9      0.000      0.000
REMARK  5 active torsions:
REMARK  status: ('A' for Active; 'I' for Inactive)
REMARK    1  A    between atoms: C_4  and  C_5 
REMARK    2  A    between atoms: C_5  and  C_6 
REMARK       I    between atoms: C_6  and  N_7 
REMARK    3  A    between atoms: N_7  and  C_8 
REMARK    4  A    between atoms: C_8  and  C_9 
REMARK    5  A    between atoms: N_11  and  C_12 
ROOT
HETATM    1  C   UNL     1      43.836 -18.064   1.539  1.00  0.00     0.184 C 
ENDROOT
BRANCH   1   2
HETATM    2  N   UNL     1      43.170 -16.789   1.365  1.00  0.00    -0.354 N 
HETATM    3  C   UNL     1      41.817 -16.677   1.121  1.00  0.00     0.231 C 
HETATM    4  O   UNL     1      41.091 -17.665   1.032  1.00  0.00    -0.272 OA
HETATM    5  H   UNL     1      43.757 -15.965   1.310  1.00  0.00     0.162 HD
BRANCH   3   6
HETATM    6  C   UNL     1      41.285 -15.220   1.001  1.00  0.00     0.072 C 
HETATM    7  C   UNL     1      42.094 -14.356   2.011  1.00  0.00     0.050 C 
HETATM    8  C   UNL     1      41.462 -12.990   2.263  1.00  0.00     0.169 C 
HETATM    9  O   UNL     1      40.109 -13.122   2.684  1.00  0.00    -0.391 OA
HETATM   10  C   UNL     1      39.306 -13.772   1.703  1.00  0.00     0.169 C 
HETATM   11  C   UNL     1      39.806 -15.192   1.486  1.00  0.00     0.050 C 
BRANCH   6  12
HETATM   12  C   UNL     1      41.389 -14.780  -0.478  1.00  0.00    -0.040 A 
HETATM   13  C   UNL     1      40.954 -15.652  -1.496  1.00  0.00     0.008 A 
HETATM   14  C   UNL     1      41.039 -15.301  -2.845  1.00  0.00     0.001 A 
HETATM   15  C   UNL     1      41.579 -14.073  -3.212  1.00  0.00     0.000 A 
HETATM   16  C   UNL     1      42.041 -13.205  -2.230  1.00  0.00     0.001 A 
HETATM   17  C   UNL     1      41.953 -13.556  -0.878  1.00  0.00     0.008 A 
ENDBRANCH   6  12
ENDBRANCH   3   6
ENDBRANCH   1   2
BRANCH   1  18
HETATM   18  C   UNL     1      43.863 -18.384   3.029  1.00  0.00     0.084 A 
HETATM   19  N   UNL     1      43.584 -17.410   3.843  1.00  0.00    -0.171 NA
HETATM   20  N   UNL     1      43.571 -17.634   5.198  1.00  0.00    -0.229 N 
HETATM   21  C   UNL     1      43.923 -18.851   5.782  1.00  0.00     0.275 A 
HETATM   22  O   UNL     1      44.012 -19.035   6.994  1.00  0.00    -0.266 OA
HETATM   23  C   UNL     1      44.196 -19.970   4.863  1.00  0.00     0.046 A 
HETATM   24  C   UNL     1      44.167 -19.757   3.489  1.00  0.00     0.008 A 
HETATM   25  C   UNL     1      44.483 -21.242   5.379  1.00  0.00     0.018 A 
HETATM   26  C   UNL     1      44.422 -20.828   2.623  1.00  0.00     0.014 A 
HETATM   27  C   UNL     1      44.704 -22.097   3.137  1.00  0.00     0.001 A 
HETATM   28  C   UNL     1      44.737 -22.305   4.514  1.00  0.00     0.001 A 
BRANCH  20  29
HETATM   29  C   UNL     1      43.386 -16.471   6.067  1.00  0.00     0.114 C 
HETATM   30  C   UNL     1      44.720 -15.882   6.532  1.00  0.00     0.027 C 
HETATM   31  C   UNL     1      44.335 -14.486   6.989  1.00  0.00     0.002 C 
HETATM   32  C   UNL     1      43.357 -14.023   5.919  1.00  0.00     0.002 C 
HETATM   33  C   UNL     1      42.620 -15.283   5.459  1.00  0.00     0.027 C 
ENDBRANCH  20  29
ENDBRANCH   1  18
TORSDOF 5
ENDMDL
MODEL 2
REMARK VINA RESULT:      -9.4      1.766      2.456
REMARK  5 active torsions:
REMARK  status: ('A' for Active; 'I' for Inactive)
REMARK    1  A    between atoms: C_4  and  C_5 
REMARK    2  A    between atoms: C_5  and  C_6 
REMARK       I    between atoms: C_6  and  N_7 
REMARK    3  A    between atoms: N_7  and  C_8 
REMARK    4  A    between atoms: C_8  and  C_9 
REMARK    5  A    between atoms: N_11  and  C_12 
ROOT
HETATM    1  C   UNL     1      41.014 -17.430   1.271  1.00  0.00     0.184 C 
ENDROOT
BRANCH   1   2
HETATM    2  N   UNL     1      40.563 -16.067   1.073  1.00  0.00    -0.354 N 
HETATM    3  C   UNL     1      40.773 -15.371  -0.099  1.00  0.00     0.231 C 
HETATM    4  O   UNL     1      41.365 -15.873  -1.053  1.00  0.00    -0.272 OA
HETATM    5  H   UNL     1      40.183 -15.584   1.879  1.00  0.00     0.162 HD
BRANCH   3   6
HETATM    6  C   UNL     1      40.182 -13.933  -0.129  1.00  0.00     0.072 C 
HETATM    7  C   UNL     1      40.183 -13.411   1.336  1.00  0.00     0.050 C 
HETATM    8  C   UNL     1      39.322 -12.164   1.523  1.00  0.00     0.169 C 
HETATM    9  O   UNL     1      37.992 -12.389   1.071  1.00  0.00    -0.391 OA
HETATM   10  C   UNL     1      37.948 -12.716  -0.316  1.00  0.00     0.169 C 
HETATM   11  C   UNL     1      38.689 -14.021  -0.562  1.00  0.00     0.050 C 
BRANCH   6  12
HETATM   12  C   UNL     1      40.998 -13.087  -1.135  1.00  0.00    -0.040 A 
HETATM   13  C   UNL     1      42.138 -12.386  -0.691  1.00  0.00     0.008 A 
HETATM   14  C   UNL     1      42.898 -11.603  -1.562  1.00  0.00     0.001 A 
HETATM   15  C   UNL     1      42.528 -11.486  -2.897  1.00  0.00     0.000 A 
HETATM   16  C   UNL     1      41.393 -12.145  -3.355  1.00  0.00     0.001 A 
HETATM   17  C   UNL     1      40.633 -12.933  -2.484  1.00  0.00     0.008 A 
ENDBRANCH   6  12
ENDBRANCH   3   6
ENDBRANCH   1   2
BRANCH   1  18
HETATM   18  C   UNL     1      41.821 -17.478   2.563  1.00  0.00     0.084 A 
HETATM   19  N   UNL     1      41.588 -16.542   3.435  1.00  0.00    -0.171 NA
HETATM   20  N   UNL     1      42.266 -16.536   4.629  1.00  0.00    -0.229 N 
HETATM   21  C   UNL     1      43.274 -17.447   4.948  1.00  0.00     0.275 A 
HETATM   22  O   UNL     1      43.956 -17.392   5.969  1.00  0.00    -0.266 OA
HETATM   23  C   UNL     1      43.511 -18.536   3.983  1.00  0.00     0.046 A 
HETATM   24  C   UNL     1      42.794 -18.569   2.792  1.00  0.00     0.008 A 
HETATM   25  C   UNL     1      44.456 -19.530   4.271  1.00  0.00     0.018 A 
HETATM   26  C   UNL     1      43.020 -19.611   1.884  1.00  0.00     0.014 A 
HETATM   27  C   UNL     1      43.960 -20.605   2.173  1.00  0.00     0.001 A 
HETATM   28  C   UNL     1      44.679 -20.565   3.365  1.00  0.00     0.001 A 
BRANCH  20  29
HETATM   29  C   UNL     1      42.063 -15.385   5.508  1.00  0.00     0.114 C 
HETATM   30  C   UNL     1      42.666 -14.103   4.929  1.00  0.00     0.027 C 
HETATM   31  C   UNL     1      41.961 -13.010   5.712  1.00  0.00     0.002 C 
HETATM   32  C   UNL     1      40.521 -13.497   5.777  1.00  0.00     0.002 C 
HETATM   33  C   UNL     1      40.602 -15.025   5.829  1.00  0.00     0.027 C 
ENDBRANCH  20  29
ENDBRANCH   1  18
TORSDOF 5
ENDMDL
MODEL 3
REMARK VINA RESULT:      -9.3      1.831      2.783
REMARK  5 active torsions:
REMARK  status: ('A' for Active; 'I' for Inactive)
REMARK    1  A    between atoms: C_4  and  C_5 
REMARK    2  A    between atoms: C_5  and  C_6 
REMARK       I    between atoms: C_6  and  N_7 
REMARK    3  A    between atoms: N_7  and  C_8 
REMARK    4  A    between atoms: C_8  and  C_9 
REMARK    5  A    between atoms: N_11  and  C_12 
ROOT
HETATM    1  C   UNL     1      42.055 -17.311   0.994  1.00  0.00     0.184 C 
ENDROOT
BRANCH   1   2
HETATM    2  N   UNL     1      41.897 -15.882   0.807  1.00  0.00    -0.354 N 
HETATM    3  C   UNL     1      41.382 -15.329  -0.346  1.00  0.00     0.231 C 
HETATM    4  O   UNL     1      41.027 -16.026  -1.295  1.00  0.00    -0.272 OA
HETATM    5  H   UNL     1      42.293 -15.277   1.517  1.00  0.00     0.162 HD
BRANCH   3   6
HETATM    6  C   UNL     1      41.258 -13.779  -0.339  1.00  0.00     0.072 C 
HETATM    7  C   UNL     1      42.055 -13.254  -1.568  1.00  0.00     0.050 C 
HETATM    8  C   UNL     1      42.321 -11.752  -1.505  1.00  0.00     0.169 C 
HETATM    9  O   UNL     1      42.976 -11.398  -0.292  1.00  0.00    -0.391 OA
HETATM   10  C   UNL     1      42.192 -11.726   0.852  1.00  0.00     0.169 C 
HETATM   11  C   UNL     1      41.988 -13.231   0.923  1.00  0.00     0.050 C 
BRANCH   6  12
HETATM   12  C   UNL     1      39.757 -13.406  -0.314  1.00  0.00    -0.040 A 
HETATM   13  C   UNL     1      38.989 -13.686   0.834  1.00  0.00     0.008 A 
HETATM   14  C   UNL     1      37.628 -13.376   0.896  1.00  0.00     0.001 A 
HETATM   15  C   UNL     1      36.996 -12.794  -0.197  1.00  0.00     0.000 A 
HETATM   16  C   UNL     1      37.724 -12.532  -1.352  1.00  0.00     0.001 A 
HETATM   17  C   UNL     1      39.088 -12.839  -1.413  1.00  0.00     0.008 A 
ENDBRANCH   6  12
ENDBRANCH   3   6
ENDBRANCH   1   2
BRANCH   1  18
HETATM   18  C   UNL     1      42.619 -17.545   2.391  1.00  0.00     0.084 A 
HETATM   19  N   UNL     1      42.424 -16.604   3.267  1.00  0.00    -0.171 NA
HETATM   20  N   UNL     1      42.888 -16.758   4.550  1.00  0.00    -0.229 N 
HETATM   21  C   UNL     1      43.643 -17.853   4.970  1.00  0.00     0.275 A 
HETATM   22  O   UNL     1      44.148 -17.957   6.086  1.00  0.00    -0.266 OA
HETATM   23  C   UNL     1      43.829 -18.943   3.995  1.00  0.00     0.046 A 
HETATM   24  C   UNL     1      43.322 -18.808   2.707  1.00  0.00     0.008 A 
HETATM   25  C   UNL     1      44.513 -20.107   4.370  1.00  0.00     0.018 A 
HETATM   26  C   UNL     1      43.496 -19.850   1.788  1.00  0.00     0.014 A 
HETATM   27  C   UNL     1      44.175 -21.013   2.163  1.00  0.00     0.001 A 
HETATM   28  C   UNL     1      44.685 -21.142   3.453  1.00  0.00     0.001 A 
BRANCH  20  29
HETATM   29  C   UNL     1      42.760 -15.613   5.451  1.00  0.00     0.114 C 
HETATM   30  C   UNL     1      43.386 -14.345   4.863  1.00  0.00     0.027 C 
HETATM   31  C   UNL     1      42.752 -13.238   5.686  1.00  0.00     0.002 C 
HETATM   32  C   UNL     1      41.299 -13.674   5.801  1.00  0.00     0.002 C 
HETATM   33  C   UNL     1      41.327 -15.204   5.832  1.00  0.00     0.027 C 
ENDBRANCH  20  29
ENDBRANCH   1  18
TORSDOF 5
ENDMDL
MODEL 4
REMARK VINA RESULT:      -9.2      2.045      3.596
REMARK  5 active torsions:
REMARK  status: ('A' for Active; 'I' for Inactive)
REMARK    1  A    between atoms: C_4  and  C_5 
REMARK    2  A    between atoms: C_5  and  C_6 
REMARK       I    between atoms: C_6  and  N_7 
REMARK    3  A    between atoms: N_7  and  C_8 
REMARK    4  A    between atoms: C_8  and  C_9 
REMARK    5  A    between atoms: N_11  and  C_12 
ROOT
HETATM    1  C   UNL     1      40.825 -17.423   1.471  1.00  0.00     0.184 C 
ENDROOT
BRANCH   1   2
HETATM    2  N   UNL     1      40.864 -16.095   0.893  1.00  0.00    -0.354 N 
HETATM    3  C   UNL     1      39.869 -15.161   1.093  1.00  0.00     0.231 C 
HETATM    4  O   UNL     1      38.878 -15.408   1.778  1.00  0.00    -0.272 OA
HETATM    5  H   UNL     1      41.602 -15.902   0.226  1.00  0.00     0.162 HD
BRANCH   3   6
HETATM    6  C   UNL     1      40.111 -13.781   0.418  1.00  0.00     0.072 C 
HETATM    7  C   UNL     1      39.664 -13.916  -1.066  1.00  0.00     0.050 C 
HETATM    8  C   UNL     1      40.158 -12.768  -1.942  1.00  0.00     0.169 C 
HETATM    9  O   UNL     1      41.571 -12.627  -1.854  1.00  0.00    -0.391 OA
HETATM   10  C   UNL     1      41.996 -12.343  -0.523  1.00  0.00     0.169 C 
HETATM   11  C   UNL     1      41.644 -13.507   0.391  1.00  0.00     0.050 C 
BRANCH   6  12
HETATM   12  C   UNL     1      39.371 -12.697   1.236  1.00  0.00    -0.040 A 
HETATM   13  C   UNL     1      39.962 -12.186   2.410  1.00  0.00     0.008 A 
HETATM   14  C   UNL     1      39.324 -11.215   3.185  1.00  0.00     0.001 A 
HETATM   15  C   UNL     1      38.071 -10.741   2.816  1.00  0.00     0.000 A 
HETATM   16  C   UNL     1      37.453 -11.248   1.678  1.00  0.00     0.001 A 
HETATM   17  C   UNL     1      38.093 -12.219   0.899  1.00  0.00     0.008 A 
ENDBRANCH   6  12
ENDBRANCH   3   6
ENDBRANCH   1   2
BRANCH   1  18
HETATM   18  C   UNL     1      41.712 -17.424   2.711  1.00  0.00     0.084 A 
HETATM   19  N   UNL     1      41.505 -16.481   3.581  1.00  0.00    -0.171 NA
HETATM   20  N   UNL     1      42.255 -16.435   4.730  1.00  0.00    -0.229 N 
HETATM   21  C   UNL     1      43.308 -17.310   5.000  1.00  0.00     0.275 A 
HETATM   22  O   UNL     1      44.050 -17.218   5.975  1.00  0.00    -0.266 OA
HETATM   23  C   UNL     1      43.518 -18.407   4.039  1.00  0.00     0.046 A 
HETATM   24  C   UNL     1      42.730 -18.482   2.895  1.00  0.00     0.008 A 
HETATM   25  C   UNL     1      44.509 -19.369   4.283  1.00  0.00     0.018 A 
HETATM   26  C   UNL     1      42.932 -19.533   1.991  1.00  0.00     0.014 A 
HETATM   27  C   UNL     1      43.917 -20.493   2.235  1.00  0.00     0.001 A 
HETATM   28  C   UNL     1      44.707 -20.411   3.379  1.00  0.00     0.001 A 
BRANCH  20  29
HETATM   29  C   UNL     1      42.072 -15.275   5.603  1.00  0.00     0.114 C 
HETATM   30  C   UNL     1      42.693 -14.006   5.014  1.00  0.00     0.027 C 
HETATM   31  C   UNL     1      42.007 -12.898   5.793  1.00  0.00     0.002 C 
HETATM   32  C   UNL     1      40.560 -13.362   5.864  1.00  0.00     0.002 C 
HETATM   33  C   UNL     1      40.617 -14.891   5.925  1.00  0.00     0.027 C 
ENDBRANCH  20  29
ENDBRANCH   1  18
TORSDOF 5
ENDMDL
MODEL 5
REMARK VINA RESULT:      -9.0      2.313      5.640
REMARK  5 active torsions:
REMARK  status: ('A' for Active; 'I' for Inactive)
REMARK    1  A    between atoms: C_4  and  C_5 
REMARK    2  A    between atoms: C_5  and  C_6 
REMARK       I    between atoms: C_6  and  N_7 
REMARK    3  A    between atoms: N_7  and  C_8 
REMARK    4  A    between atoms: C_8  and  C_9 
REMARK    5  A    between atoms: N_11  and  C_12 
ROOT
HETATM    1  C   UNL     1      39.195 -15.226   2.115  1.00  0.00     0.184 C 
ENDROOT
BRANCH   1   2
HETATM    2  N   UNL     1      39.601 -15.112   0.729  1.00  0.00    -0.354 N 
HETATM    3  C   UNL     1      39.565 -13.923   0.032  1.00  0.00     0.231 C 
HETATM    4  O   UNL     1      39.176 -12.879   0.554  1.00  0.00    -0.272 OA
HETATM    5  H   UNL     1      39.809 -15.974   0.236  1.00  0.00     0.162 HD
BRANCH   3   6
HETATM    6  C   UNL     1      40.077 -14.000  -1.435  1.00  0.00     0.072 C 
HETATM    7  C   UNL     1      38.828 -14.199  -2.341  1.00  0.00     0.050 C 
HETATM    8  C   UNL     1      39.188 -14.638  -3.758  1.00  0.00     0.169 C 
HETATM    9  O   UNL     1      39.990 -15.813  -3.742  1.00  0.00    -0.391 OA
HETATM   10  C   UNL     1      41.219 -15.610  -3.049  1.00  0.00     0.169 C 
HETATM   11  C   UNL     1      40.941 -15.285  -1.590  1.00  0.00     0.050 C 
BRANCH   6  12
HETATM   12  C   UNL     1      40.914 -12.733  -1.729  1.00  0.00    -0.040 A 
HETATM   13  C   UNL     1      42.224 -12.630  -1.220  1.00  0.00     0.008 A 
HETATM   14  C   UNL     1      43.012 -11.500  -1.453  1.00  0.00     0.001 A 
HETATM   15  C   UNL     1      42.502 -10.435  -2.186  1.00  0.00     0.000 A 
HETATM   16  C   UNL     1      41.203 -10.498  -2.677  1.00  0.00     0.001 A 
HETATM   17  C   UNL     1      40.415 -11.631  -2.447  1.00  0.00     0.008 A 
ENDBRANCH   6  12
ENDBRANCH   3   6
ENDBRANCH   1   2
BRANCH   1  18
HETATM   18  C   UNL     1      40.445 -15.134   2.983  1.00  0.00     0.084 A 
HETATM   19  N   UNL     1      41.372 -16.020   2.772  1.00  0.00    -0.171 NA
HETATM   20  N   UNL     1      42.532 -15.983   3.506  1.00  0.00    -0.229 N 
HETATM   21  C   UNL     1      42.758 -15.080   4.546  1.00  0.00     0.275 A 
HETATM   22  O   UNL     1      43.749 -15.100   5.274  1.00  0.00    -0.266 OA
HETATM   23  C   UNL     1      41.731 -14.046   4.759  1.00  0.00     0.046 A 
HETATM   24  C   UNL     1      40.573 -14.055   3.988  1.00  0.00     0.008 A 
HETATM   25  C   UNL     1      41.925 -13.060   5.736  1.00  0.00     0.018 A 
HETATM   26  C   UNL     1      39.605 -13.064   4.192  1.00  0.00     0.014 A 
HETATM   27  C   UNL     1      39.800 -12.078   5.164  1.00  0.00     0.001 A 
HETATM   28  C   UNL     1      40.958 -12.076   5.937  1.00  0.00     0.001 A 
BRANCH  20  29
HETATM   29  C   UNL     1      43.477 -17.084   3.321  1.00  0.00     0.114 C 
HETATM   30  C   UNL     1      43.017 -18.362   4.027  1.00  0.00     0.027 C 
HETATM   31  C   UNL     1      43.837 -19.443   3.343  1.00  0.00     0.002 C 
HETATM   32  C   UNL     1      43.795 -19.041   1.877  1.00  0.00     0.002 C 
HETATM   33  C   UNL     1      43.747 -17.511   1.868  1.00  0.00     0.027 C 
ENDBRANCH  20  29
ENDBRANCH   1  18
TORSDOF 5
ENDMDL
MODEL 6
REMARK VINA RESULT:      -9.0      2.334      5.369
REMARK  5 active torsions:
REMARK  status: ('A' for Active; 'I' for Inactive)
REMARK    1  A    between atoms: C_4  and  C_5 
REMARK    2  A    between atoms: C_5  and  C_6 
REMARK       I    between atoms: C_6  and  N_7 
REMARK    3  A    between atoms: N_7  and  C_8 
REMARK    4  A    between atoms: C_8  and  C_9 
REMARK    5  A    between atoms: N_11  and  C_12 
ROOT
HETATM    1  C   UNL     1      39.498 -15.483   1.934  1.00  0.00     0.184 C 
ENDROOT
BRANCH   1   2
HETATM    2  N   UNL     1      39.955 -14.998   0.647  1.00  0.00    -0.354 N 
HETATM    3  C   UNL     1      39.663 -13.736   0.173  1.00  0.00     0.231 C 
HETATM    4  O   UNL     1      38.986 -12.942   0.824  1.00  0.00    -0.272 OA
HETATM    5  H   UNL     1      40.408 -15.668   0.035  1.00  0.00     0.162 HD
BRANCH   3   6
HETATM    6  C   UNL     1      40.275 -13.392  -1.214  1.00  0.00     0.072 C 
HETATM    7  C   UNL     1      41.818 -13.543  -1.080  1.00  0.00     0.050 C 
HETATM    8  C   UNL     1      42.579 -12.909  -2.242  1.00  0.00     0.169 C 
HETATM    9  O   UNL     1      42.219 -11.542  -2.405  1.00  0.00    -0.391 OA
HETATM   10  C   UNL     1      40.831 -11.386  -2.688  1.00  0.00     0.169 C 
HETATM   11  C   UNL     1      40.006 -11.888  -1.514  1.00  0.00     0.050 C 
BRANCH   6  12
HETATM   12  C   UNL     1      39.611 -14.294  -2.281  1.00  0.00    -0.040 A 
HETATM   13  C   UNL     1      38.264 -14.080  -2.633  1.00  0.00     0.008 A 
HETATM   14  C   UNL     1      37.622 -14.878  -3.583  1.00  0.00     0.001 A 
HETATM   15  C   UNL     1      38.306 -15.923  -4.193  1.00  0.00     0.000 A 
HETATM   16  C   UNL     1      39.628 -16.173  -3.844  1.00  0.00     0.001 A 
HETATM   17  C   UNL     1      40.273 -15.373  -2.895  1.00  0.00     0.008 A 
ENDBRANCH   6  12
ENDBRANCH   3   6
ENDBRANCH   1   2
BRANCH   1  18
HETATM   18  C   UNL     1      40.669 -15.412   2.908  1.00  0.00     0.084 A 
HETATM   19  N   UNL     1      41.610 -16.296   2.757  1.00  0.00    -0.171 NA
HETATM   20  N   UNL     1      42.704 -16.278   3.587  1.00  0.00    -0.229 N 
HETATM   21  C   UNL     1      42.841 -15.399   4.663  1.00  0.00     0.275 A 
HETATM   22  O   UNL     1      43.765 -15.437   5.472  1.00  0.00    -0.266 OA
HETATM   23  C   UNL     1      41.799 -14.367   4.810  1.00  0.00     0.046 A 
HETATM   24  C   UNL     1      40.712 -14.356   3.943  1.00  0.00     0.008 A 
HETATM   25  C   UNL     1      41.910 -13.404   5.822  1.00  0.00     0.018 A 
HETATM   26  C   UNL     1      39.730 -13.368   4.086  1.00  0.00     0.014 A 
HETATM   27  C   UNL     1      39.842 -12.405   5.093  1.00  0.00     0.001 A 
HETATM   28  C   UNL     1      40.930 -12.423   5.962  1.00  0.00     0.001 A 
BRANCH  20  29
HETATM   29  C   UNL     1      43.660 -17.377   3.459  1.00  0.00     0.114 C 
HETATM   30  C   UNL     1      43.227 -18.613   4.251  1.00  0.00     0.027 C 
HETATM   31  C   UNL     1      44.051 -19.725   3.627  1.00  0.00     0.002 C 
HETATM   32  C   UNL     1      43.985 -19.418   2.138  1.00  0.00     0.002 C 
HETATM   33  C   UNL     1      43.917 -17.892   2.032  1.00  0.00     0.027 C 
ENDBRANCH  20  29
ENDBRANCH   1  18
TORSDOF 5
ENDMDL
MODEL 7
REMARK VINA RESULT:      -8.9      1.813      4.464
REMARK  5 active torsions:
REMARK  status: ('A' for Active; 'I' for Inactive)
REMARK    1  A    between atoms: C_4  and  C_5 
REMARK    2  A    between atoms: C_5  and  C_6 
REMARK       I    between atoms: C_6  and  N_7 
REMARK    3  A    between atoms: N_7  and  C_8 
REMARK    4  A    between atoms: C_8  and  C_9 
REMARK    5  A    between atoms: N_11  and  C_12 
ROOT
HETATM    1  C   UNL     1      40.325 -17.126   2.169  1.00  0.00     0.184 C 
ENDROOT
BRANCH   1   2
HETATM    2  N   UNL     1      40.569 -16.037   1.245  1.00  0.00    -0.354 N 
HETATM    3  C   UNL     1      39.735 -14.943   1.137  1.00  0.00     0.231 C 
HETATM    4  O   UNL     1      38.722 -14.832   1.825  1.00  0.00    -0.272 OA
HETATM    5  H   UNL     1      41.325 -16.156   0.579  1.00  0.00     0.162 HD
BRANCH   3   6
HETATM    6  C   UNL     1      40.189 -13.864   0.113  1.00  0.00     0.072 C 
HETATM    7  C   UNL     1      41.684 -13.554   0.411  1.00  0.00     0.050 C 
HETATM    8  C   UNL     1      42.173 -12.279  -0.270  1.00  0.00     0.169 C 
HETATM    9  O   UNL     1      41.352 -11.169   0.071  1.00  0.00    -0.391 OA
HETATM   10  C   UNL     1      40.000 -11.361  -0.336  1.00  0.00     0.169 C 
HETATM   11  C   UNL     1      39.403 -12.551   0.399  1.00  0.00     0.050 C 
BRANCH   6  12
HETATM   12  C   UNL     1      39.892 -14.385  -1.313  1.00  0.00    -0.040 A 
HETATM   13  C   UNL     1      38.625 -14.158  -1.888  1.00  0.00     0.008 A 
HETATM   14  C   UNL     1      38.311 -14.620  -3.168  1.00  0.00     0.001 A 
HETATM   15  C   UNL     1      39.250 -15.336  -3.900  1.00  0.00     0.000 A 
HETATM   16  C   UNL     1      40.498 -15.598  -3.347  1.00  0.00     0.001 A 
HETATM   17  C   UNL     1      40.815 -15.133  -2.066  1.00  0.00     0.008 A 
ENDBRANCH   6  12
ENDBRANCH   3   6
ENDBRANCH   1   2
BRANCH   1  18
HETATM   18  C   UNL     1      41.591 -17.340   2.991  1.00  0.00     0.084 A 
HETATM   19  N   UNL     1      42.365 -18.321   2.631  1.00  0.00    -0.171 NA
HETATM   20  N   UNL     1      43.531 -18.557   3.317  1.00  0.00    -0.229 N 
HETATM   21  C   UNL     1      43.915 -17.847   4.454  1.00  0.00     0.275 A 
HETATM   22  O   UNL     1      44.904 -18.113   5.134  1.00  0.00    -0.266 OA
HETATM   23  C   UNL     1      43.064 -16.706   4.840  1.00  0.00     0.046 A 
HETATM   24  C   UNL     1      41.905 -16.437   4.121  1.00  0.00     0.008 A 
HETATM   25  C   UNL     1      43.428 -15.901   5.928  1.00  0.00     0.018 A 
HETATM   26  C   UNL     1      41.106 -15.348   4.490  1.00  0.00     0.014 A 
HETATM   27  C   UNL     1      41.470 -14.542   5.572  1.00  0.00     0.001 A 
HETATM   28  C   UNL     1      42.629 -14.818   6.293  1.00  0.00     0.001 A 
BRANCH  20  29
HETATM   29  C   UNL     1      44.290 -19.754   2.953  1.00  0.00     0.114 C 
HETATM   30  C   UNL     1      44.190 -20.846   4.022  1.00  0.00     0.027 C 
HETATM   31  C   UNL     1      44.614 -22.097   3.272  1.00  0.00     0.002 C 
HETATM   32  C   UNL     1      43.922 -21.950   1.925  1.00  0.00     0.002 C 
HETATM   33  C   UNL     1      43.880 -20.446   1.642  1.00  0.00     0.027 C 
ENDBRANCH  20  29
ENDBRANCH   1  18
TORSDOF 5
ENDMDL
MODEL 8
REMARK VINA RESULT:      -8.9      2.268      3.116
REMARK  5 active torsions:
REMARK  status: ('A' for Active; 'I' for Inactive)
REMARK    1  A    between atoms: C_4  and  C_5 
REMARK    2  A    between atoms: C_5  and  C_6 
REMARK       I    between atoms: C_6  and  N_7 
REMARK    3  A    between atoms: N_7  and  C_8 
REMARK    4  A    between atoms: C_8  and  C_9 
REMARK    5  A    between atoms: N_11  and  C_12 
ROOT
HETATM    1  C   UNL     1      40.432 -17.224   1.748  1.00  0.00     0.184 C 
ENDROOT
BRANCH   1   2
HETATM    2  N   UNL     1      40.228 -15.997   1.004  1.00  0.00    -0.354 N 
HETATM    3  C   UNL     1      41.165 -15.485   0.131  1.00  0.00     0.231 C 
HETATM    4  O   UNL     1      42.241 -16.046  -0.065  1.00  0.00    -0.272 OA
HETATM    5  H   UNL     1      39.407 -15.448   1.234  1.00  0.00     0.162 HD
BRANCH   3   6
HETATM    6  C   UNL     1      40.743 -14.177  -0.599  1.00  0.00     0.072 C 
HETATM    7  C   UNL     1      42.053 -13.449  -1.018  1.00  0.00     0.050 C 
HETATM    8  C   UNL     1      41.819 -11.998  -1.429  1.00  0.00     0.169 C 
HETATM    9  O   UNL     1      41.149 -11.276  -0.403  1.00  0.00    -0.391 OA
HETATM   10  C   UNL     1      39.870 -11.832  -0.108  1.00  0.00     0.169 C 
HETATM   11  C   UNL     1      40.033 -13.246   0.427  1.00  0.00     0.050 C 
BRANCH   6  12
HETATM   12  C   UNL     1      39.791 -14.548  -1.760  1.00  0.00    -0.040 A 
HETATM   13  C   UNL     1      40.277 -15.305  -2.845  1.00  0.00     0.008 A 
HETATM   14  C   UNL     1      39.455 -15.653  -3.919  1.00  0.00     0.001 A 
HETATM   15  C   UNL     1      38.129 -15.238  -3.944  1.00  0.00     0.000 A 
HETATM   16  C   UNL     1      37.630 -14.468  -2.900  1.00  0.00     0.001 A 
HETATM   17  C   UNL     1      38.452 -14.121  -1.822  1.00  0.00     0.008 A 
ENDBRANCH   6  12
ENDBRANCH   3   6
ENDBRANCH   1   2
BRANCH   1  18
HETATM   18  C   UNL     1      41.282 -16.899   2.971  1.00  0.00     0.084 A 
HETATM   19  N   UNL     1      40.944 -15.849   3.657  1.00  0.00    -0.171 NA
HETATM   20  N   UNL     1      41.655 -15.510   4.782  1.00  0.00    -0.229 N 
HETATM   21  C   UNL     1      42.797 -16.190   5.207  1.00  0.00     0.275 A 
HETATM   22  O   UNL     1      43.499 -15.839   6.152  1.00  0.00    -0.266 OA
HETATM   23  C   UNL     1      43.158 -17.408   4.458  1.00  0.00     0.046 A 
HETATM   24  C   UNL     1      42.412 -17.778   3.344  1.00  0.00     0.008 A 
HETATM   25  C   UNL     1      44.248 -18.184   4.873  1.00  0.00     0.018 A 
HETATM   26  C   UNL     1      42.758 -18.940   2.642  1.00  0.00     0.014 A 
HETATM   27  C   UNL     1      43.843 -19.717   3.058  1.00  0.00     0.001 A 
HETATM   28  C   UNL     1      44.590 -19.339   4.172  1.00  0.00     0.001 A 
BRANCH  20  29
HETATM   29  C   UNL     1      41.315 -14.245   5.433  1.00  0.00     0.114 C 
HETATM   30  C   UNL     1      41.999 -13.050   4.763  1.00  0.00     0.027 C 
HETATM   31  C   UNL     1      41.178 -11.869   5.252  1.00  0.00     0.002 C 
HETATM   32  C   UNL     1      39.747 -12.378   5.169  1.00  0.00     0.002 C 
HETATM   33  C   UNL     1      39.822 -13.878   5.467  1.00  0.00     0.027 C 
ENDBRANCH  20  29
ENDBRANCH   1  18
TORSDOF 5
ENDMDL
MODEL 9
REMARK VINA RESULT:      -8.5      1.993      5.199
REMARK  5 active torsions:
REMARK  status: ('A' for Active; 'I' for Inactive)
REMARK    1  A    between atoms: C_4  and  C_5 
REMARK    2  A    between atoms: C_5  and  C_6 
REMARK       I    between atoms: C_6  and  N_7 
REMARK    3  A    between atoms: N_7  and  C_8 
REMARK    4  A    between atoms: C_8  and  C_9 
REMARK    5  A    between atoms: N_11  and  C_12 
ROOT
HETATM    1  C   UNL     1      43.551 -15.589   1.742  1.00  0.00     0.184 C 
ENDROOT
BRANCH   1   2
HETATM    2  N   UNL     1      42.416 -14.699   1.883  1.00  0.00    -0.354 N 
HETATM    3  C   UNL     1      41.163 -14.997   1.389  1.00  0.00     0.231 C 
HETATM    4  O   UNL     1      40.938 -16.047   0.790  1.00  0.00    -0.272 OA
HETATM    5  H   UNL     1      42.597 -13.776   2.261  1.00  0.00     0.162 HD
BRANCH   3   6
HETATM    6  C   UNL     1      40.068 -13.930   1.674  1.00  0.00     0.072 C 
HETATM    7  C   UNL     1      38.721 -14.512   1.157  1.00  0.00     0.050 C 
HETATM    8  C   UNL     1      37.623 -13.458   1.046  1.00  0.00     0.169 C 
HETATM    9  O   UNL     1      38.042 -12.366   0.236  1.00  0.00    -0.391 OA
HETATM   10  C   UNL     1      39.188 -11.712   0.774  1.00  0.00     0.169 C 
HETATM   11  C   UNL     1      40.365 -12.674   0.803  1.00  0.00     0.050 C 
BRANCH   6  12
HETATM   12  C   UNL     1      40.105 -13.579   3.180  1.00  0.00    -0.040 A 
HETATM   13  C   UNL     1      39.855 -14.584   4.135  1.00  0.00     0.008 A 
HETATM   14  C   UNL     1      39.867 -14.310   5.505  1.00  0.00     0.001 A 
HETATM   15  C   UNL     1      40.113 -13.017   5.954  1.00  0.00     0.000 A 
HETATM   16  C   UNL     1      40.336 -12.001   5.032  1.00  0.00     0.001 A 
HETATM   17  C   UNL     1      40.327 -12.276   3.660  1.00  0.00     0.008 A 
ENDBRANCH   6  12
ENDBRANCH   3   6
ENDBRANCH   1   2
BRANCH   1  18
HETATM   18  C   UNL     1      43.558 -16.538   2.935  1.00  0.00     0.084 A 
HETATM   19  N   UNL     1      43.591 -17.810   2.672  1.00  0.00    -0.171 NA
HETATM   20  N   UNL     1      43.619 -18.720   3.700  1.00  0.00    -0.229 N 
HETATM   21  C   UNL     1      43.533 -18.365   5.046  1.00  0.00     0.275 A 
HETATM   22  O   UNL     1      43.457 -19.173   5.970  1.00  0.00    -0.266 OA
HETATM   23  C   UNL     1      43.541 -16.924   5.352  1.00  0.00     0.046 A 
HETATM   24  C   UNL     1      43.557 -15.999   4.313  1.00  0.00     0.008 A 
HETATM   25  C   UNL     1      43.532 -16.493   6.686  1.00  0.00     0.018 A 
HETATM   26  C   UNL     1      43.570 -14.631   4.613  1.00  0.00     0.014 A 
HETATM   27  C   UNL     1      43.566 -14.201   5.943  1.00  0.00     0.001 A 
HETATM   28  C   UNL     1      43.545 -15.131   6.980  1.00  0.00     0.001 A 
BRANCH  20  29
HETATM   29  C   UNL     1      43.517 -20.136   3.344  1.00  0.00     0.114 C 
HETATM   30  C   UNL     1      43.119 -20.334   1.879  1.00  0.00     0.027 C 
HETATM   31  C   UNL     1      43.524 -21.773   1.608  1.00  0.00     0.002 C 
HETATM   32  C   UNL     1      44.872 -21.896   2.303  1.00  0.00     0.002 C 
HETATM   33  C   UNL     1      44.794 -20.975   3.524  1.00  0.00     0.027 C 
ENDBRANCH  20  29
ENDBRANCH   1  18
TORSDOF 5
ENDMDL
MODEL 10
REMARK VINA RESULT:      -8.4      1.742      4.715
REMARK  5 active torsions:
REMARK  status: ('A' for Active; 'I' for Inactive)
REMARK    1  A    between atoms: C_4  and  C_5 
REMARK    2  A    between atoms: C_5  and  C_6 
REMARK       I    between atoms: C_6  and  N_7 
REMARK    3  A    between atoms: N_7  and  C_8 
REMARK    4  A    between atoms: C_8  and  C_9 
REMARK    5  A    between atoms: N_11  and  C_12 
ROOT
HETATM    1  C   UNL     1      43.246 -14.895   3.470  1.00  0.00     0.184 C 
ENDROOT
BRANCH   1   2
HETATM    2  N   UNL     1      42.451 -14.955   2.259  1.00  0.00    -0.354 N 
HETATM    3  C   UNL     1      42.168 -13.845   1.492  1.00  0.00     0.231 C 
HETATM    4  O   UNL     1      42.576 -12.726   1.798  1.00  0.00    -0.272 OA
HETATM    5  H   UNL     1      41.998 -15.837   2.047  1.00  0.00     0.162 HD
BRANCH   3   6
HETATM    6  C   UNL     1      41.330 -14.122   0.211  1.00  0.00     0.072 C 
HETATM    7  C   UNL     1      41.443 -15.645  -0.085  1.00  0.00     0.050 C 
HETATM    8  C   UNL     1      40.971 -16.014  -1.489  1.00  0.00     0.169 C 
HETATM    9  O   UNL     1      41.662 -15.258  -2.476  1.00  0.00    -0.391 OA
HETATM   10  C   UNL     1      41.446 -13.857  -2.323  1.00  0.00     0.169 C 
HETATM   11  C   UNL     1      42.005 -13.392  -0.988  1.00  0.00     0.050 C 
BRANCH   6  12
HETATM   12  C   UNL     1      39.894 -13.596   0.440  1.00  0.00    -0.040 A 
HETATM   13  C   UNL     1      38.870 -14.498   0.795  1.00  0.00     0.008 A 
HETATM   14  C   UNL     1      37.558 -14.068   1.001  1.00  0.00     0.001 A 
HETATM   15  C   UNL     1      37.231 -12.726   0.841  1.00  0.00     0.000 A 
HETATM   16  C   UNL     1      38.215 -11.820   0.465  1.00  0.00     0.001 A 
HETATM   17  C   UNL     1      39.531 -12.249   0.262  1.00  0.00     0.008 A 
ENDBRANCH   6  12
ENDBRANCH   3   6
ENDBRANCH   1   2
BRANCH   1  18
HETATM   18  C   UNL     1      43.498 -16.323   3.941  1.00  0.00     0.084 A 
HETATM   19  N   UNL     1      43.712 -17.215   3.019  1.00  0.00    -0.171 NA
HETATM   20  N   UNL     1      43.966 -18.517   3.375  1.00  0.00    -0.229 N 
HETATM   21  C   UNL     1      43.931 -18.978   4.691  1.00  0.00     0.275 A 
HETATM   22  O   UNL     1      44.057 -20.157   5.014  1.00  0.00    -0.266 OA
HETATM   23  C   UNL     1      43.733 -17.963   5.742  1.00  0.00     0.046 A 
HETATM   24  C   UNL     1      43.519 -16.636   5.387  1.00  0.00     0.008 A 
HETATM   25  C   UNL     1      43.761 -18.342   7.091  1.00  0.00     0.018 A 
HETATM   26  C   UNL     1      43.338 -15.677   6.392  1.00  0.00     0.014 A 
HETATM   27  C   UNL     1      43.370 -16.053   7.737  1.00  0.00     0.001 A 
HETATM   28  C   UNL     1      43.579 -17.385   8.088  1.00  0.00     0.001 A 
BRANCH  20  29
HETATM   29  C   UNL     1      44.063 -19.499   2.295  1.00  0.00     0.114 C 
HETATM   30  C   UNL     1      45.010 -20.650   2.646  1.00  0.00     0.027 C 
HETATM   31  C   UNL     1      44.611 -21.732   1.659  1.00  0.00     0.002 C 
HETATM   32  C   UNL     1      43.091 -21.656   1.648  1.00  0.00     0.002 C 
HETATM   33  C   UNL     1      42.749 -20.182   1.877  1.00  0.00     0.027 C 
ENDBRANCH  20  29
ENDBRANCH   1  18
TORSDOF 5
ENDMDL
