MODEL 1
REMARK VINA RESULT:      -8.0      0.000      0.000
REMARK  8 active torsions:
REMARK  status: ('A' for Active; 'I' for Inactive)
REMARK    1  A    between atoms: C_7  and  C_8 
REMARK       I    between atoms: C_8  and  N_9 
REMARK    2  A    between atoms: N_9  and  C_10 
REMARK    3  A    between atoms: C_13  and  C_14 
REMARK       I    between atoms: C_14  and  N_15 
REMARK    4  A    between atoms: N_15  and  C_16 
REMARK    5  A    between atoms: C_16  and  C_17 
REMARK    6  A    between atoms: C_17  and  C_18 
REMARK    7  A    between atoms: C_20  and  O_21 
REMARK    8  A    between atoms: C_23  and  O_24 
ROOT
HETATM    1  C   UNL     1      41.608 -11.939   6.080  1.00  0.00     0.035 A 
HETATM    2  C   UNL     1      40.988 -11.158   5.104  1.00  0.00     0.030 A 
HETATM    3  C   UNL     1      41.117 -11.475   3.747  1.00  0.00     0.019 A 
HETATM    4  C   UNL     1      41.868 -12.587   3.355  1.00  0.00     0.032 A 
HETATM    5  C   UNL     1      42.532 -13.345   4.323  1.00  0.00     0.019 A 
HETATM    6  C   UNL     1      42.398 -13.024   5.678  1.00  0.00     0.030 A 
ENDROOT
BRANCH   4   7
HETATM    7  C   UNL     1      41.967 -13.007   1.930  1.00  0.00     0.251 C 
HETATM    8  N   UNL     1      41.423 -14.240   1.629  1.00  0.00    -0.357 N 
HETATM    9  H   UNL     1      41.236 -14.865   2.404  1.00  0.00     0.162 HD
HETATM   10  O   UNL     1      42.554 -12.306   1.115  1.00  0.00    -0.268 OA
BRANCH   8  11
HETATM   11  C   UNL     1      41.681 -14.861   0.342  1.00  0.00     0.127 C 
BRANCH  11  12
HETATM   12  C   UNL     1      41.408 -16.368   0.346  1.00  0.00     0.058 C 
BRANCH  12  13
HETATM   13  C   UNL     1      42.193 -17.147   1.381  1.00  0.00    -0.054 A 
HETATM   14  C   UNL     1      41.675 -17.375   2.665  1.00  0.00     0.046 A 
HETATM   15  C   UNL     1      42.407 -18.098   3.619  1.00  0.00     0.102 A 
HETATM   16  C   UNL     1      43.690 -18.578   3.295  1.00  0.00     0.101 A 
HETATM   17  C   UNL     1      44.209 -18.344   2.018  1.00  0.00     0.040 A 
HETATM   18  C   UNL     1      43.467 -17.635   1.072  1.00  0.00     0.010 A 
BRANCH  15  19
HETATM   19  O   UNL     1      41.965 -18.371   4.890  1.00  0.00    -0.353 OA
HETATM   20  C   UNL     1      41.489 -17.285   5.671  1.00  0.00     0.210 C 
ENDBRANCH  15  19
BRANCH  16  21
HETATM   21  O   UNL     1      44.346 -19.269   4.284  1.00  0.00    -0.353 OA
HETATM   22  C   UNL     1      44.891 -20.537   3.947  1.00  0.00     0.210 C 
ENDBRANCH  16  21
ENDBRANCH  12  13
ENDBRANCH  11  12
ENDBRANCH   8  11
ENDBRANCH   4   7
BRANCH   1  23
HETATM   23  N   UNL     1      41.471 -11.725   7.465  1.00  0.00    -0.322 N 
HETATM   24  C   UNL     1      41.734 -10.573   8.183  1.00  0.00     0.265 C 
HETATM   25  O   UNL     1      42.224  -9.550   7.718  1.00  0.00    -0.267 OA
HETATM   26  H   UNL     1      41.112 -12.500   8.013  1.00  0.00     0.169 HD
BRANCH  24  27
HETATM   27  C   UNL     1      41.350 -10.673   9.658  1.00  0.00     0.097 C 
HETATM   28  C   UNL     1      42.261 -11.027  10.600  1.00  0.00     0.064 C 
HETATM   29  C   UNL     1      43.721 -11.266  10.307  1.00  0.00     0.078 C 
HETATM   30  O   UNL     1      42.005 -11.174  11.955  1.00  0.00    -0.353 OA
HETATM   31  C   UNL     1      40.642 -11.333  12.341  1.00  0.00     0.185 C 
HETATM   32  C   UNL     1      39.792 -10.183  11.846  1.00  0.00     0.106 C 
HETATM   33  S   UNL     1      39.682 -10.292  10.044  1.00  0.00    -0.120 SA
ENDBRANCH  24  27
ENDBRANCH   1  23
TORSDOF 8
ENDMDL
MODEL 2
REMARK VINA RESULT:      -7.9      1.403      1.776
REMARK  8 active torsions:
REMARK  status: ('A' for Active; 'I' for Inactive)
REMARK    1  A    between atoms: C_7  and  C_8 
REMARK       I    between atoms: C_8  and  N_9 
REMARK    2  A    between atoms: N_9  and  C_10 
REMARK    3  A    between atoms: C_13  and  C_14 
REMARK       I    between atoms: C_14  and  N_15 
REMARK    4  A    between atoms: N_15  and  C_16 
REMARK    5  A    between atoms: C_16  and  C_17 
REMARK    6  A    between atoms: C_17  and  C_18 
REMARK    7  A    between atoms: C_20  and  O_21 
REMARK    8  A    between atoms: C_23  and  O_24 
ROOT
HETATM    1  C   UNL     1      41.117 -12.796   5.689  1.00  0.00     0.035 A 
HETATM    2  C   UNL     1      40.005 -13.045   4.884  1.00  0.00     0.030 A 
HETATM    3  C   UNL     1      40.149 -13.683   3.645  1.00  0.00     0.019 A 
HETATM    4  C   UNL     1      41.414 -14.082   3.204  1.00  0.00     0.032 A 
HETATM    5  C   UNL     1      42.537 -13.791   3.984  1.00  0.00     0.019 A 
HETATM    6  C   UNL     1      42.388 -13.156   5.221  1.00  0.00     0.030 A 
ENDROOT
BRANCH   4   7
HETATM    7  C   UNL     1      41.603 -14.832   1.933  1.00  0.00     0.251 C 
HETATM    8  N   UNL     1      41.435 -16.200   2.012  1.00  0.00    -0.357 N 
HETATM    9  H   UNL     1      41.452 -16.616   2.936  1.00  0.00     0.162 HD
HETATM   10  O   UNL     1      41.946 -14.247   0.912  1.00  0.00    -0.268 OA
BRANCH   8  11
HETATM   11  C   UNL     1      41.837 -17.053   0.909  1.00  0.00     0.127 C 
BRANCH  11  12
HETATM   12  C   UNL     1      43.320 -17.434   0.965  1.00  0.00     0.058 C 
BRANCH  12  13
HETATM   13  C   UNL     1      43.696 -18.331   2.125  1.00  0.00    -0.054 A 
HETATM   14  C   UNL     1      43.931 -17.805   3.405  1.00  0.00     0.046 A 
HETATM   15  C   UNL     1      44.279 -18.642   4.475  1.00  0.00     0.102 A 
HETATM   16  C   UNL     1      44.423 -20.026   4.258  1.00  0.00     0.101 A 
HETATM   17  C   UNL     1      44.196 -20.550   2.982  1.00  0.00     0.040 A 
HETATM   18  C   UNL     1      43.837 -19.709   1.927  1.00  0.00     0.010 A 
BRANCH  15  19
HETATM   19  O   UNL     1      44.515 -18.206   5.755  1.00  0.00    -0.353 OA
HETATM   20  C   UNL     1      43.913 -16.984   6.157  1.00  0.00     0.210 C 
ENDBRANCH  15  19
BRANCH  16  21
HETATM   21  O   UNL     1      44.773 -20.777   5.353  1.00  0.00    -0.353 OA
HETATM   22  C   UNL     1      44.984 -22.168   5.155  1.00  0.00     0.210 C 
ENDBRANCH  16  21
ENDBRANCH  12  13
ENDBRANCH  11  12
ENDBRANCH   8  11
ENDBRANCH   4   7
BRANCH   1  23
HETATM   23  N   UNL     1      41.048 -12.222   6.973  1.00  0.00    -0.322 N 
HETATM   24  C   UNL     1      41.237 -10.899   7.331  1.00  0.00     0.265 C 
HETATM   25  O   UNL     1      41.589 -10.007   6.567  1.00  0.00    -0.267 OA
HETATM   26  H   UNL     1      40.805 -12.843   7.738  1.00  0.00     0.169 HD
BRANCH  24  27
HETATM   27  C   UNL     1      40.960 -10.621   8.807  1.00  0.00     0.097 C 
HETATM   28  C   UNL     1      41.949 -10.692   9.734  1.00  0.00     0.064 C 
HETATM   29  C   UNL     1      43.394 -10.960   9.400  1.00  0.00     0.078 C 
HETATM   30  O   UNL     1      41.793 -10.488  11.096  1.00  0.00    -0.353 OA
HETATM   31  C   UNL     1      40.468 -10.578  11.616  1.00  0.00     0.185 C 
HETATM   32  C   UNL     1      39.534  -9.620  10.909  1.00  0.00     0.106 C 
HETATM   33  S   UNL     1      39.306 -10.198   9.210  1.00  0.00    -0.120 SA
ENDBRANCH  24  27
ENDBRANCH   1  23
TORSDOF 8
ENDMDL
MODEL 3
REMARK VINA RESULT:      -7.7      1.993      2.471
REMARK  8 active torsions:
REMARK  status: ('A' for Active; 'I' for Inactive)
REMARK    1  A    between atoms: C_7  and  C_8 
REMARK       I    between atoms: C_8  and  N_9 
REMARK    2  A    between atoms: N_9  and  C_10 
REMARK    3  A    between atoms: C_13  and  C_14 
REMARK       I    between atoms: C_14  and  N_15 
REMARK    4  A    between atoms: N_15  and  C_16 
REMARK    5  A    between atoms: C_16  and  C_17 
REMARK    6  A    between atoms: C_17  and  C_18 
REMARK    7  A    between atoms: C_20  and  O_21 
REMARK    8  A    between atoms: C_23  and  O_24 
ROOT
HETATM    1  C   UNL     1      40.701 -12.286   6.378  1.00  0.00     0.035 A 
HETATM    2  C   UNL     1      39.624 -13.160   6.220  1.00  0.00     0.030 A 
HETATM    3  C   UNL     1      39.539 -13.993   5.097  1.00  0.00     0.019 A 
HETATM    4  C   UNL     1      40.539 -13.960   4.122  1.00  0.00     0.032 A 
HETATM    5  C   UNL     1      41.595 -13.052   4.249  1.00  0.00     0.019 A 
HETATM    6  C   UNL     1      41.676 -12.224   5.373  1.00  0.00     0.030 A 
ENDROOT
BRANCH   4   7
HETATM    7  C   UNL     1      40.529 -14.882   2.953  1.00  0.00     0.251 C 
HETATM    8  N   UNL     1      40.633 -16.227   3.249  1.00  0.00    -0.357 N 
HETATM    9  H   UNL     1      40.958 -16.473   4.176  1.00  0.00     0.162 HD
HETATM   10  O   UNL     1      40.491 -14.438   1.812  1.00  0.00    -0.268 OA
BRANCH   8  11
HETATM   11  C   UNL     1      40.887 -17.192   2.195  1.00  0.00     0.127 C 
BRANCH  11  12
HETATM   12  C   UNL     1      42.366 -17.265   1.803  1.00  0.00     0.058 C 
BRANCH  12  13
HETATM   13  C   UNL     1      43.165 -18.312   2.550  1.00  0.00    -0.054 A 
HETATM   14  C   UNL     1      43.560 -18.110   3.882  1.00  0.00     0.046 A 
HETATM   15  C   UNL     1      44.300 -19.084   4.569  1.00  0.00     0.102 A 
HETATM   16  C   UNL     1      44.676 -20.269   3.906  1.00  0.00     0.101 A 
HETATM   17  C   UNL     1      44.289 -20.466   2.578  1.00  0.00     0.040 A 
HETATM   18  C   UNL     1      43.541 -19.496   1.907  1.00  0.00     0.010 A 
BRANCH  15  19
HETATM   19  O   UNL     1      44.714 -18.966   5.872  1.00  0.00    -0.353 OA
HETATM   20  C   UNL     1      43.727 -18.696   6.857  1.00  0.00     0.210 C 
ENDBRANCH  15  19
BRANCH  16  21
HETATM   21  O   UNL     1      45.405 -21.169   4.643  1.00  0.00    -0.353 OA
HETATM   22  C   UNL     1      44.808 -22.428   4.918  1.00  0.00     0.210 C 
ENDBRANCH  16  21
ENDBRANCH  12  13
ENDBRANCH  11  12
ENDBRANCH   8  11
ENDBRANCH   4   7
BRANCH   1  23
HETATM   23  N   UNL     1      40.893 -11.469   7.507  1.00  0.00    -0.322 N 
HETATM   24  C   UNL     1      39.976 -10.642   8.132  1.00  0.00     0.265 C 
HETATM   25  O   UNL     1      38.837 -10.425   7.731  1.00  0.00    -0.267 OA
HETATM   26  H   UNL     1      41.809 -11.499   7.942  1.00  0.00     0.169 HD
BRANCH  24  27
HETATM   27  C   UNL     1      40.507  -9.998   9.410  1.00  0.00     0.097 C 
HETATM   28  C   UNL     1      40.962  -8.719   9.417  1.00  0.00     0.064 C 
HETATM   29  C   UNL     1      40.911  -7.804   8.220  1.00  0.00     0.078 C 
HETATM   30  O   UNL     1      41.490  -8.056  10.515  1.00  0.00    -0.353 OA
HETATM   31  C   UNL     1      41.933  -8.863  11.605  1.00  0.00     0.185 C 
HETATM   32  C   UNL     1      40.824  -9.759  12.111  1.00  0.00     0.106 C 
HETATM   33  S   UNL     1      40.477 -11.004  10.846  1.00  0.00    -0.120 SA
ENDBRANCH  24  27
ENDBRANCH   1  23
TORSDOF 8
ENDMDL
MODEL 4
REMARK VINA RESULT:      -7.5      6.492     10.510
REMARK  8 active torsions:
REMARK  status: ('A' for Active; 'I' for Inactive)
REMARK    1  A    between atoms: C_7  and  C_8 
REMARK       I    between atoms: C_8  and  N_9 
REMARK    2  A    between atoms: N_9  and  C_10 
REMARK    3  A    between atoms: C_13  and  C_14 
REMARK       I    between atoms: C_14  and  N_15 
REMARK    4  A    between atoms: N_15  and  C_16 
REMARK    5  A    between atoms: C_16  and  C_17 
REMARK    6  A    between atoms: C_17  and  C_18 
REMARK    7  A    between atoms: C_20  and  O_21 
REMARK    8  A    between atoms: C_23  and  O_24 
ROOT
HETATM    1  C   UNL     1      38.507 -13.687  -3.164  1.00  0.00     0.035 A 
HETATM    2  C   UNL     1      39.709 -14.320  -3.482  1.00  0.00     0.030 A 
HETATM    3  C   UNL     1      40.577 -14.755  -2.473  1.00  0.00     0.019 A 
HETATM    4  C   UNL     1      40.243 -14.562  -1.129  1.00  0.00     0.032 A 
HETATM    5  C   UNL     1      39.064 -13.885  -0.804  1.00  0.00     0.019 A 
HETATM    6  C   UNL     1      38.200 -13.454  -1.817  1.00  0.00     0.030 A 
ENDROOT
BRANCH   4   7
HETATM    7  C   UNL     1      41.096 -15.077  -0.024  1.00  0.00     0.251 C 
HETATM    8  N   UNL     1      41.011 -16.434   0.218  1.00  0.00    -0.357 N 
HETATM    9  H   UNL     1      40.216 -16.925  -0.176  1.00  0.00     0.162 HD
HETATM   10  O   UNL     1      41.774 -14.309   0.647  1.00  0.00    -0.268 OA
BRANCH   8  11
HETATM   11  C   UNL     1      41.595 -17.003   1.418  1.00  0.00     0.127 C 
BRANCH  11  12
HETATM   12  C   UNL     1      43.073 -17.364   1.244  1.00  0.00     0.058 C 
BRANCH  12  13
HETATM   13  C   UNL     1      43.594 -18.384   2.234  1.00  0.00    -0.054 A 
HETATM   14  C   UNL     1      43.629 -18.110   3.610  1.00  0.00     0.046 A 
HETATM   15  C   UNL     1      44.112 -19.059   4.522  1.00  0.00     0.102 A 
HETATM   16  C   UNL     1      44.595 -20.295   4.050  1.00  0.00     0.101 A 
HETATM   17  C   UNL     1      44.567 -20.566   2.679  1.00  0.00     0.040 A 
HETATM   18  C   UNL     1      44.071 -19.619   1.781  1.00  0.00     0.010 A 
BRANCH  15  19
HETATM   19  O   UNL     1      44.170 -18.870   5.881  1.00  0.00    -0.353 OA
HETATM   20  C   UNL     1      45.109 -17.927   6.377  1.00  0.00     0.210 C 
ENDBRANCH  15  19
BRANCH  16  21
HETATM   21  O   UNL     1      45.058 -21.168   5.003  1.00  0.00    -0.353 OA
HETATM   22  C   UNL     1      44.736 -22.543   4.846  1.00  0.00     0.210 C 
ENDBRANCH  16  21
ENDBRANCH  12  13
ENDBRANCH  11  12
ENDBRANCH   8  11
ENDBRANCH   4   7
BRANCH   1  23
HETATM   23  N   UNL     1      37.553 -13.282  -4.117  1.00  0.00    -0.322 N 
HETATM   24  C   UNL     1      36.407 -13.947  -4.517  1.00  0.00     0.265 C 
HETATM   25  O   UNL     1      36.081 -15.071  -4.149  1.00  0.00    -0.267 OA
HETATM   26  H   UNL     1      37.700 -12.379  -4.555  1.00  0.00     0.169 HD
BRANCH  24  27
HETATM   27  C   UNL     1      35.544 -13.144  -5.487  1.00  0.00     0.097 C 
HETATM   28  C   UNL     1      34.832 -12.067  -5.069  1.00  0.00     0.064 C 
HETATM   29  C   UNL     1      34.887 -11.518  -3.665  1.00  0.00     0.078 C 
HETATM   30  O   UNL     1      33.999 -11.294  -5.863  1.00  0.00    -0.353 OA
HETATM   31  C   UNL     1      33.562 -11.868  -7.093  1.00  0.00     0.185 C 
HETATM   32  C   UNL     1      34.735 -12.289  -7.950  1.00  0.00     0.106 C 
HETATM   33  S   UNL     1      35.548 -13.694  -7.153  1.00  0.00    -0.120 SA
ENDBRANCH  24  27
ENDBRANCH   1  23
TORSDOF 8
ENDMDL
MODEL 5
REMARK VINA RESULT:      -7.5      1.459      2.230
REMARK  8 active torsions:
REMARK  status: ('A' for Active; 'I' for Inactive)
REMARK    1  A    between atoms: C_7  and  C_8 
REMARK       I    between atoms: C_8  and  N_9 
REMARK    2  A    between atoms: N_9  and  C_10 
REMARK    3  A    between atoms: C_13  and  C_14 
REMARK       I    between atoms: C_14  and  N_15 
REMARK    4  A    between atoms: N_15  and  C_16 
REMARK    5  A    between atoms: C_16  and  C_17 
REMARK    6  A    between atoms: C_17  and  C_18 
REMARK    7  A    between atoms: C_20  and  O_21 
REMARK    8  A    between atoms: C_23  and  O_24 
ROOT
HETATM    1  C   UNL     1      41.316 -12.079   6.300  1.00  0.00     0.035 A 
HETATM    2  C   UNL     1      40.640 -11.994   5.083  1.00  0.00     0.030 A 
HETATM    3  C   UNL     1      41.106 -12.682   3.956  1.00  0.00     0.019 A 
HETATM    4  C   UNL     1      42.258 -13.470   4.042  1.00  0.00     0.032 A 
HETATM    5  C   UNL     1      42.968 -13.521   5.245  1.00  0.00     0.019 A 
HETATM    6  C   UNL     1      42.496 -12.832   6.368  1.00  0.00     0.030 A 
ENDROOT
BRANCH   4   7
HETATM    7  C   UNL     1      42.745 -14.280   2.893  1.00  0.00     0.251 C 
HETATM    8  N   UNL     1      41.767 -14.805   2.071  1.00  0.00    -0.357 N 
HETATM    9  H   UNL     1      40.821 -14.826   2.433  1.00  0.00     0.162 HD
HETATM   10  O   UNL     1      43.942 -14.498   2.750  1.00  0.00    -0.268 OA
BRANCH   8  11
HETATM   11  C   UNL     1      42.104 -15.809   1.079  1.00  0.00     0.127 C 
BRANCH  11  12
HETATM   12  C   UNL     1      41.536 -17.190   1.417  1.00  0.00     0.058 C 
BRANCH  12  13
HETATM   13  C   UNL     1      42.381 -18.002   2.376  1.00  0.00    -0.054 A 
HETATM   14  C   UNL     1      43.208 -19.039   1.918  1.00  0.00     0.046 A 
HETATM   15  C   UNL     1      43.988 -19.786   2.812  1.00  0.00     0.102 A 
HETATM   16  C   UNL     1      43.922 -19.512   4.192  1.00  0.00     0.101 A 
HETATM   17  C   UNL     1      43.093 -18.484   4.649  1.00  0.00     0.040 A 
HETATM   18  C   UNL     1      42.330 -17.737   3.749  1.00  0.00     0.010 A 
BRANCH  15  19
HETATM   19  O   UNL     1      44.828 -20.807   2.441  1.00  0.00    -0.353 OA
HETATM   20  C   UNL     1      44.267 -21.891   1.713  1.00  0.00     0.210 C 
ENDBRANCH  15  19
BRANCH  16  21
HETATM   21  O   UNL     1      44.710 -20.292   5.002  1.00  0.00    -0.353 OA
HETATM   22  C   UNL     1      44.155 -20.725   6.236  1.00  0.00     0.210 C 
ENDBRANCH  16  21
ENDBRANCH  12  13
ENDBRANCH  11  12
ENDBRANCH   8  11
ENDBRANCH   4   7
BRANCH   1  23
HETATM   23  N   UNL     1      40.875 -11.473   7.492  1.00  0.00    -0.322 N 
HETATM   24  C   UNL     1      41.257 -10.255   8.026  1.00  0.00     0.265 C 
HETATM   25  O   UNL     1      42.133  -9.530   7.567  1.00  0.00    -0.267 OA
HETATM   26  H   UNL     1      40.169 -11.972   8.023  1.00  0.00     0.169 HD
BRANCH  24  27
HETATM   27  C   UNL     1      40.472  -9.865   9.276  1.00  0.00     0.097 C 
HETATM   28  C   UNL     1      40.905 -10.213  10.515  1.00  0.00     0.064 C 
HETATM   29  C   UNL     1      42.207 -10.924  10.780  1.00  0.00     0.078 C 
HETATM   30  O   UNL     1      40.250  -9.933  11.705  1.00  0.00    -0.353 OA
HETATM   31  C   UNL     1      38.868  -9.594  11.619  1.00  0.00     0.185 C 
HETATM   32  C   UNL     1      38.648  -8.414  10.698  1.00  0.00     0.106 C 
HETATM   33  S   UNL     1      39.007  -8.940   9.005  1.00  0.00    -0.120 SA
ENDBRANCH  24  27
ENDBRANCH   1  23
TORSDOF 8
ENDMDL
MODEL 6
REMARK VINA RESULT:      -7.3      6.893     11.071
REMARK  8 active torsions:
REMARK  status: ('A' for Active; 'I' for Inactive)
REMARK    1  A    between atoms: C_7  and  C_8 
REMARK       I    between atoms: C_8  and  N_9 
REMARK    2  A    between atoms: N_9  and  C_10 
REMARK    3  A    between atoms: C_13  and  C_14 
REMARK       I    between atoms: C_14  and  N_15 
REMARK    4  A    between atoms: N_15  and  C_16 
REMARK    5  A    between atoms: C_16  and  C_17 
REMARK    6  A    between atoms: C_17  and  C_18 
REMARK    7  A    between atoms: C_20  and  O_21 
REMARK    8  A    between atoms: C_23  and  O_24 
ROOT
HETATM    1  C   UNL     1      37.691 -13.339  -3.539  1.00  0.00     0.035 A 
HETATM    2  C   UNL     1      38.687 -14.307  -3.673  1.00  0.00     0.030 A 
HETATM    3  C   UNL     1      39.513 -14.637  -2.591  1.00  0.00     0.019 A 
HETATM    4  C   UNL     1      39.344 -13.997  -1.360  1.00  0.00     0.032 A 
HETATM    5  C   UNL     1      38.382 -12.992  -1.233  1.00  0.00     0.019 A 
HETATM    6  C   UNL     1      37.558 -12.668  -2.316  1.00  0.00     0.030 A 
ENDROOT
BRANCH   4   7
HETATM    7  C   UNL     1      40.146 -14.371  -0.163  1.00  0.00     0.251 C 
HETATM    8  N   UNL     1      40.623 -15.666  -0.140  1.00  0.00    -0.357 N 
HETATM    9  H   UNL     1      40.198 -16.327  -0.779  1.00  0.00     0.162 HD
HETATM   10  O   UNL     1      40.303 -13.573   0.753  1.00  0.00    -0.268 OA
BRANCH   8  11
HETATM   11  C   UNL     1      41.195 -16.216   1.076  1.00  0.00     0.127 C 
BRANCH  11  12
HETATM   12  C   UNL     1      42.450 -17.053   0.814  1.00  0.00     0.058 C 
BRANCH  12  13
HETATM   13  C   UNL     1      42.933 -17.855   2.004  1.00  0.00    -0.054 A 
HETATM   14  C   UNL     1      43.587 -19.085   1.836  1.00  0.00     0.046 A 
HETATM   15  C   UNL     1      44.032 -19.822   2.943  1.00  0.00     0.102 A 
HETATM   16  C   UNL     1      43.795 -19.336   4.243  1.00  0.00     0.101 A 
HETATM   17  C   UNL     1      43.137 -18.115   4.412  1.00  0.00     0.040 A 
HETATM   18  C   UNL     1      42.710 -17.382   3.302  1.00  0.00     0.010 A 
BRANCH  15  19
HETATM   19  O   UNL     1      44.687 -21.026   2.860  1.00  0.00    -0.353 OA
HETATM   20  C   UNL     1      44.329 -21.900   1.799  1.00  0.00     0.210 C 
ENDBRANCH  15  19
BRANCH  16  21
HETATM   21  O   UNL     1      44.253 -20.119   5.274  1.00  0.00    -0.353 OA
HETATM   22  C   UNL     1      44.038 -19.652   6.599  1.00  0.00     0.210 C 
ENDBRANCH  16  21
ENDBRANCH  12  13
ENDBRANCH  11  12
ENDBRANCH   8  11
ENDBRANCH   4   7
BRANCH   1  23
HETATM   23  N   UNL     1      36.779 -13.001  -4.557  1.00  0.00    -0.322 N 
HETATM   24  C   UNL     1      35.680 -13.719  -4.994  1.00  0.00     0.265 C 
HETATM   25  O   UNL     1      35.370 -14.839  -4.603  1.00  0.00    -0.267 OA
HETATM   26  H   UNL     1      36.921 -12.109  -5.020  1.00  0.00     0.169 HD
BRANCH  24  27
HETATM   27  C   UNL     1      34.846 -12.980  -6.039  1.00  0.00     0.097 C 
HETATM   28  C   UNL     1      33.766 -12.240  -5.681  1.00  0.00     0.064 C 
HETATM   29  C   UNL     1      33.343 -12.007  -4.253  1.00  0.00     0.078 C 
HETATM   30  O   UNL     1      32.930 -11.559  -6.554  1.00  0.00    -0.353 OA
HETATM   31  C   UNL     1      32.969 -11.951  -7.924  1.00  0.00     0.185 C 
HETATM   32  C   UNL     1      34.372 -11.860  -8.483  1.00  0.00     0.106 C 
HETATM   33  S   UNL     1      35.380 -13.142  -7.701  1.00  0.00    -0.120 SA
ENDBRANCH  24  27
ENDBRANCH   1  23
TORSDOF 8
ENDMDL
MODEL 7
REMARK VINA RESULT:      -7.3      3.496     10.039
REMARK  8 active torsions:
REMARK  status: ('A' for Active; 'I' for Inactive)
REMARK    1  A    between atoms: C_7  and  C_8 
REMARK       I    between atoms: C_8  and  N_9 
REMARK    2  A    between atoms: N_9  and  C_10 
REMARK    3  A    between atoms: C_13  and  C_14 
REMARK       I    between atoms: C_14  and  N_15 
REMARK    4  A    between atoms: N_15  and  C_16 
REMARK    5  A    between atoms: C_16  and  C_17 
REMARK    6  A    between atoms: C_17  and  C_18 
REMARK    7  A    between atoms: C_20  and  O_21 
REMARK    8  A    between atoms: C_23  and  O_24 
ROOT
HETATM    1  C   UNL     1      42.611 -16.802   4.913  1.00  0.00     0.035 A 
HETATM    2  C   UNL     1      41.507 -16.562   5.733  1.00  0.00     0.030 A 
HETATM    3  C   UNL     1      41.049 -15.257   5.950  1.00  0.00     0.019 A 
HETATM    4  C   UNL     1      41.694 -14.176   5.342  1.00  0.00     0.032 A 
HETATM    5  C   UNL     1      42.830 -14.405   4.560  1.00  0.00     0.019 A 
HETATM    6  C   UNL     1      43.282 -15.711   4.344  1.00  0.00     0.030 A 
ENDROOT
BRANCH   4   7
HETATM    7  C   UNL     1      41.194 -12.781   5.482  1.00  0.00     0.251 C 
HETATM    8  N   UNL     1      41.451 -12.171   6.693  1.00  0.00    -0.357 N 
HETATM    9  H   UNL     1      41.716 -12.769   7.466  1.00  0.00     0.162 HD
HETATM   10  O   UNL     1      40.547 -12.260   4.582  1.00  0.00    -0.268 OA
BRANCH   8  11
HETATM   11  C   UNL     1      40.800 -10.919   7.036  1.00  0.00     0.127 C 
BRANCH  11  12
HETATM   12  C   UNL     1      41.690 -10.000   7.878  1.00  0.00     0.058 C 
BRANCH  12  13
HETATM   13  C   UNL     1      41.658 -10.283   9.366  1.00  0.00    -0.054 A 
HETATM   14  C   UNL     1      40.486 -10.097  10.116  1.00  0.00     0.046 A 
HETATM   15  C   UNL     1      40.464 -10.361  11.493  1.00  0.00     0.102 A 
HETATM   16  C   UNL     1      41.638 -10.792  12.139  1.00  0.00     0.101 A 
HETATM   17  C   UNL     1      42.807 -10.970  11.394  1.00  0.00     0.040 A 
HETATM   18  C   UNL     1      42.816 -10.717  10.020  1.00  0.00     0.010 A 
BRANCH  15  19
HETATM   19  O   UNL     1      39.357 -10.214  12.292  1.00  0.00    -0.353 OA
HETATM   20  C   UNL     1      38.881  -8.896  12.525  1.00  0.00     0.210 C 
ENDBRANCH  15  19
BRANCH  16  21
HETATM   21  O   UNL     1      41.537 -11.021  13.489  1.00  0.00    -0.353 OA
HETATM   22  C   UNL     1      42.340 -10.227  14.352  1.00  0.00     0.210 C 
ENDBRANCH  16  21
ENDBRANCH  12  13
ENDBRANCH  11  12
ENDBRANCH   8  11
ENDBRANCH   4   7
BRANCH   1  23
HETATM   23  N   UNL     1      43.090 -18.086   4.592  1.00  0.00    -0.322 N 
HETATM   24  C   UNL     1      44.226 -18.719   5.065  1.00  0.00     0.265 C 
HETATM   25  O   UNL     1      45.063 -18.207   5.799  1.00  0.00    -0.267 OA
HETATM   26  H   UNL     1      42.527 -18.635   3.951  1.00  0.00     0.169 HD
BRANCH  24  27
HETATM   27  C   UNL     1      44.362 -20.163   4.587  1.00  0.00     0.097 C 
HETATM   28  C   UNL     1      44.221 -21.205   5.445  1.00  0.00     0.064 C 
HETATM   29  C   UNL     1      43.842 -21.051   6.896  1.00  0.00     0.078 C 
HETATM   30  O   UNL     1      44.355 -22.545   5.116  1.00  0.00    -0.353 OA
HETATM   31  C   UNL     1      45.045 -22.847   3.905  1.00  0.00     0.185 C 
HETATM   32  C   UNL     1      44.406 -22.156   2.721  1.00  0.00     0.106 C 
HETATM   33  S   UNL     1      44.694 -20.377   2.878  1.00  0.00    -0.120 SA
ENDBRANCH  24  27
ENDBRANCH   1  23
TORSDOF 8
ENDMDL
MODEL 8
REMARK VINA RESULT:      -7.1      3.449      9.681
REMARK  8 active torsions:
REMARK  status: ('A' for Active; 'I' for Inactive)
REMARK    1  A    between atoms: C_7  and  C_8 
REMARK       I    between atoms: C_8  and  N_9 
REMARK    2  A    between atoms: N_9  and  C_10 
REMARK    3  A    between atoms: C_13  and  C_14 
REMARK       I    between atoms: C_14  and  N_15 
REMARK    4  A    between atoms: N_15  and  C_16 
REMARK    5  A    between atoms: C_16  and  C_17 
REMARK    6  A    between atoms: C_17  and  C_18 
REMARK    7  A    between atoms: C_20  and  O_21 
REMARK    8  A    between atoms: C_23  and  O_24 
ROOT
HETATM    1  C   UNL     1      41.952 -16.549   4.704  1.00  0.00     0.035 A 
HETATM    2  C   UNL     1      40.953 -16.543   5.679  1.00  0.00     0.030 A 
HETATM    3  C   UNL     1      40.407 -15.336   6.134  1.00  0.00     0.019 A 
HETATM    4  C   UNL     1      40.856 -14.121   5.609  1.00  0.00     0.032 A 
HETATM    5  C   UNL     1      41.890 -14.118   4.668  1.00  0.00     0.019 A 
HETATM    6  C   UNL     1      42.430 -15.326   4.216  1.00  0.00     0.030 A 
ENDROOT
BRANCH   4   7
HETATM    7  C   UNL     1      40.250 -12.821   6.005  1.00  0.00     0.251 C 
HETATM    8  N   UNL     1      40.880 -11.692   5.520  1.00  0.00    -0.357 N 
HETATM    9  H   UNL     1      41.821 -11.805   5.162  1.00  0.00     0.162 HD
HETATM   10  O   UNL     1      39.289 -12.789   6.764  1.00  0.00    -0.268 OA
BRANCH   8  11
HETATM   11  C   UNL     1      40.537 -10.380   6.039  1.00  0.00     0.127 C 
BRANCH  11  12
HETATM   12  C   UNL     1      41.631  -9.793   6.935  1.00  0.00     0.058 C 
BRANCH  12  13
HETATM   13  C   UNL     1      41.562 -10.232   8.384  1.00  0.00    -0.054 A 
HETATM   14  C   UNL     1      42.701 -10.703   9.055  1.00  0.00     0.046 A 
HETATM   15  C   UNL     1      42.630 -11.107  10.396  1.00  0.00     0.102 A 
HETATM   16  C   UNL     1      41.394 -11.067  11.072  1.00  0.00     0.101 A 
HETATM   17  C   UNL     1      40.259 -10.604  10.400  1.00  0.00     0.040 A 
HETATM   18  C   UNL     1      40.343 -10.192   9.069  1.00  0.00     0.010 A 
BRANCH  15  19
HETATM   19  O   UNL     1      43.698 -11.569  11.124  1.00  0.00    -0.353 OA
HETATM   20  C   UNL     1      44.985 -11.062  10.801  1.00  0.00     0.210 C 
ENDBRANCH  15  19
BRANCH  16  21
HETATM   21  O   UNL     1      41.405 -11.486  12.379  1.00  0.00    -0.353 OA
HETATM   22  C   UNL     1      41.162 -10.510  13.383  1.00  0.00     0.210 C 
ENDBRANCH  16  21
ENDBRANCH  12  13
ENDBRANCH  11  12
ENDBRANCH   8  11
ENDBRANCH   4   7
BRANCH   1  23
HETATM   23  N   UNL     1      42.502 -17.719   4.147  1.00  0.00    -0.322 N 
HETATM   24  C   UNL     1      43.712 -18.322   4.444  1.00  0.00     0.265 C 
HETATM   25  O   UNL     1      44.557 -17.865   5.206  1.00  0.00    -0.267 OA
HETATM   26  H   UNL     1      41.939 -18.205   3.457  1.00  0.00     0.169 HD
BRANCH  24  27
HETATM   27  C   UNL     1      43.922 -19.653   3.726  1.00  0.00     0.097 C 
HETATM   28  C   UNL     1      44.287 -20.769   4.407  1.00  0.00     0.064 C 
HETATM   29  C   UNL     1      44.435 -20.827   5.906  1.00  0.00     0.078 C 
HETATM   30  O   UNL     1      44.531 -22.013   3.844  1.00  0.00    -0.353 OA
HETATM   31  C   UNL     1      44.781 -22.050   2.441  1.00  0.00     0.185 C 
HETATM   32  C   UNL     1      43.647 -21.420   1.663  1.00  0.00     0.106 C 
HETATM   33  S   UNL     1      43.650 -19.642   1.994  1.00  0.00    -0.120 SA
ENDBRANCH  24  27
ENDBRANCH   1  23
TORSDOF 8
ENDMDL
MODEL 9
REMARK VINA RESULT:      -7.0      5.333      8.377
REMARK  8 active torsions:
REMARK  status: ('A' for Active; 'I' for Inactive)
REMARK    1  A    between atoms: C_7  and  C_8 
REMARK       I    between atoms: C_8  and  N_9 
REMARK    2  A    between atoms: N_9  and  C_10 
REMARK    3  A    between atoms: C_13  and  C_14 
REMARK       I    between atoms: C_14  and  N_15 
REMARK    4  A    between atoms: N_15  and  C_16 
REMARK    5  A    between atoms: C_16  and  C_17 
REMARK    6  A    between atoms: C_17  and  C_18 
REMARK    7  A    between atoms: C_20  and  O_21 
REMARK    8  A    between atoms: C_23  and  O_24 
ROOT
HETATM    1  C   UNL     1      40.840 -16.041   2.684  1.00  0.00     0.035 A 
HETATM    2  C   UNL     1      40.215 -15.899   1.445  1.00  0.00     0.030 A 
HETATM    3  C   UNL     1      39.392 -14.797   1.182  1.00  0.00     0.019 A 
HETATM    4  C   UNL     1      39.192 -13.821   2.163  1.00  0.00     0.032 A 
HETATM    5  C   UNL     1      39.775 -13.982   3.423  1.00  0.00     0.019 A 
HETATM    6  C   UNL     1      40.598 -15.084   3.679  1.00  0.00     0.030 A 
ENDROOT
BRANCH   4   7
HETATM    7  C   UNL     1      38.390 -12.595   1.901  1.00  0.00     0.251 C 
HETATM    8  N   UNL     1      37.266 -12.768   1.119  1.00  0.00    -0.357 N 
HETATM    9  H   UNL     1      37.204 -13.625   0.581  1.00  0.00     0.162 HD
HETATM   10  O   UNL     1      38.766 -11.506   2.318  1.00  0.00    -0.268 OA
BRANCH   8  11
HETATM   11  C   UNL     1      36.554 -11.618   0.592  1.00  0.00     0.127 C 
BRANCH  11  12
HETATM   12  C   UNL     1      36.567 -11.565  -0.939  1.00  0.00     0.058 C 
BRANCH  12  13
HETATM   13  C   UNL     1      37.873 -11.995  -1.573  1.00  0.00    -0.054 A 
HETATM   14  C   UNL     1      37.978 -13.209  -2.270  1.00  0.00     0.046 A 
HETATM   15  C   UNL     1      39.190 -13.601  -2.855  1.00  0.00     0.102 A 
HETATM   16  C   UNL     1      40.327 -12.781  -2.719  1.00  0.00     0.101 A 
HETATM   17  C   UNL     1      40.225 -11.576  -2.019  1.00  0.00     0.040 A 
HETATM   18  C   UNL     1      39.009 -11.188  -1.451  1.00  0.00     0.010 A 
BRANCH  15  19
HETATM   19  O   UNL     1      39.369 -14.766  -3.560  1.00  0.00    -0.353 OA
HETATM   20  C   UNL     1      38.209 -15.448  -4.013  1.00  0.00     0.210 C 
ENDBRANCH  15  19
BRANCH  16  21
HETATM   21  O   UNL     1      41.477 -13.237  -3.314  1.00  0.00    -0.353 OA
HETATM   22  C   UNL     1      42.708 -12.953  -2.664  1.00  0.00     0.210 C 
ENDBRANCH  16  21
ENDBRANCH  12  13
ENDBRANCH  11  12
ENDBRANCH   8  11
ENDBRANCH   4   7
BRANCH   1  23
HETATM   23  N   UNL     1      41.733 -17.082   3.002  1.00  0.00    -0.322 N 
HETATM   24  C   UNL     1      43.116 -17.068   2.957  1.00  0.00     0.265 C 
HETATM   25  O   UNL     1      43.796 -16.138   2.539  1.00  0.00    -0.267 OA
HETATM   26  H   UNL     1      41.323 -17.951   3.329  1.00  0.00     0.169 HD
BRANCH  24  27
HETATM   27  C   UNL     1      43.756 -18.347   3.492  1.00  0.00     0.097 C 
HETATM   28  C   UNL     1      44.110 -18.463   4.797  1.00  0.00     0.064 C 
HETATM   29  C   UNL     1      43.837 -17.408   5.838  1.00  0.00     0.078 C 
HETATM   30  O   UNL     1      44.722 -19.568   5.371  1.00  0.00    -0.353 OA
HETATM   31  C   UNL     1      45.361 -20.485   4.485  1.00  0.00     0.185 C 
HETATM   32  C   UNL     1      44.397 -21.000   3.439  1.00  0.00     0.106 C 
HETATM   33  S   UNL     1      43.986 -19.636   2.325  1.00  0.00    -0.120 SA
ENDBRANCH  24  27
ENDBRANCH   1  23
TORSDOF 8
ENDMDL
MODEL 10
REMARK VINA RESULT:      -6.9      6.879     10.957
REMARK  8 active torsions:
REMARK  status: ('A' for Active; 'I' for Inactive)
REMARK    1  A    between atoms: C_7  and  C_8 
REMARK       I    between atoms: C_8  and  N_9 
REMARK    2  A    between atoms: N_9  and  C_10 
REMARK    3  A    between atoms: C_13  and  C_14 
REMARK       I    between atoms: C_14  and  N_15 
REMARK    4  A    between atoms: N_15  and  C_16 
REMARK    5  A    between atoms: C_16  and  C_17 
REMARK    6  A    between atoms: C_17  and  C_18 
REMARK    7  A    between atoms: C_20  and  O_21 
REMARK    8  A    between atoms: C_23  and  O_24 
ROOT
HETATM    1  C   UNL     1      37.730 -13.385  -3.583  1.00  0.00     0.035 A 
HETATM    2  C   UNL     1      37.998 -12.639  -2.435  1.00  0.00     0.030 A 
HETATM    3  C   UNL     1      39.000 -13.038  -1.542  1.00  0.00     0.019 A 
HETATM    4  C   UNL     1      39.749 -14.191  -1.796  1.00  0.00     0.032 A 
HETATM    5  C   UNL     1      39.452 -14.969  -2.919  1.00  0.00     0.019 A 
HETATM    6  C   UNL     1      38.451 -14.565  -3.808  1.00  0.00     0.030 A 
ENDROOT
BRANCH   4   7
HETATM    7  C   UNL     1      40.875 -14.608  -0.917  1.00  0.00     0.251 C 
HETATM    8  N   UNL     1      40.915 -15.949  -0.589  1.00  0.00    -0.357 N 
HETATM    9  H   UNL     1      40.070 -16.488  -0.741  1.00  0.00     0.162 HD
HETATM   10  O   UNL     1      41.663 -13.778  -0.482  1.00  0.00    -0.268 OA
BRANCH   8  11
HETATM   11  C   UNL     1      41.807 -16.422   0.454  1.00  0.00     0.127 C 
BRANCH  11  12
HETATM   12  C   UNL     1      41.266 -17.658   1.180  1.00  0.00     0.058 C 
BRANCH  12  13
HETATM   13  C   UNL     1      41.837 -17.874   2.566  1.00  0.00    -0.054 A 
HETATM   14  C   UNL     1      41.282 -17.240   3.688  1.00  0.00     0.046 A 
HETATM   15  C   UNL     1      41.816 -17.445   4.969  1.00  0.00     0.102 A 
HETATM   16  C   UNL     1      42.941 -18.277   5.129  1.00  0.00     0.101 A 
HETATM   17  C   UNL     1      43.499 -18.902   4.010  1.00  0.00     0.040 A 
HETATM   18  C   UNL     1      42.951 -18.702   2.741  1.00  0.00     0.010 A 
BRANCH  15  19
HETATM   19  O   UNL     1      41.324 -16.870   6.114  1.00  0.00    -0.353 OA
HETATM   20  C   UNL     1      40.693 -15.603   5.999  1.00  0.00     0.210 C 
ENDBRANCH  15  19
BRANCH  16  21
HETATM   21  O   UNL     1      43.409 -18.421   6.412  1.00  0.00    -0.353 OA
HETATM   22  C   UNL     1      43.790 -19.725   6.828  1.00  0.00     0.210 C 
ENDBRANCH  16  21
ENDBRANCH  12  13
ENDBRANCH  11  12
ENDBRANCH   8  11
ENDBRANCH   4   7
BRANCH   1  23
HETATM   23  N   UNL     1      36.787 -13.015  -4.561  1.00  0.00    -0.322 N 
HETATM   24  C   UNL     1      35.671 -13.715  -4.983  1.00  0.00     0.265 C 
HETATM   25  O   UNL     1      35.367 -14.844  -4.613  1.00  0.00    -0.267 OA
HETATM   26  H   UNL     1      36.920 -12.111  -5.003  1.00  0.00     0.169 HD
BRANCH  24  27
HETATM   27  C   UNL     1      34.808 -12.943  -5.979  1.00  0.00     0.097 C 
HETATM   28  C   UNL     1      33.702 -12.267  -5.576  1.00  0.00     0.064 C 
HETATM   29  C   UNL     1      33.273 -12.142  -4.136  1.00  0.00     0.078 C 
HETATM   30  O   UNL     1      32.840 -11.564  -6.405  1.00  0.00    -0.353 OA
HETATM   31  C   UNL     1      32.891 -11.868  -7.797  1.00  0.00     0.185 C 
HETATM   32  C   UNL     1      34.289 -11.689  -8.348  1.00  0.00     0.106 C 
HETATM   33  S   UNL     1      35.345 -12.980  -7.648  1.00  0.00    -0.120 SA
ENDBRANCH  24  27
ENDBRANCH   1  23
TORSDOF 8
ENDMDL
