MODEL 1
REMARK VINA RESULT:      -8.7      0.000      0.000
REMARK  4 active torsions:
REMARK  status: ('A' for Active; 'I' for Inactive)
REMARK    1  A    between atoms: C_9  and  C_10 
REMARK       I    between atoms: C_10  and  N_11 
REMARK    2  A    between atoms: N_11  and  N_12 
REMARK       I    between atoms: N_12  and  C_13 
REMARK    3  A    between atoms: C_13  and  C_14 
REMARK    4  A    between atoms: C_14  and  C_15 
ROOT
HETATM    1  C   UNL     1      44.213 -14.658   6.958  1.00  0.00     0.291 C 
HETATM    2  N   UNL     1      43.046 -14.169   6.399  1.00  0.00    -0.262 N 
HETATM    3  O   UNL     1      44.447 -15.863   7.054  1.00  0.00    -0.264 OA
HETATM    4  H   UNL     1      42.987 -13.170   6.186  1.00  0.00     0.190 HD
ENDROOT
BRANCH   2   5
HETATM    5  N   UNL     1      42.196 -15.043   5.713  1.00  0.00    -0.267 N 
HETATM    6  C   UNL     1      42.420 -15.239   4.365  1.00  0.00     0.240 C 
HETATM    7  O   UNL     1      43.224 -14.572   3.716  1.00  0.00    -0.272 OA
HETATM    8  H   UNL     1      41.653 -15.688   6.283  1.00  0.00     0.190 HD
BRANCH   6   9
HETATM    9  C   UNL     1      41.578 -16.337   3.745  1.00  0.00     0.143 C 
BRANCH   9  10
HETATM   10  C   UNL     1      42.352 -17.592   3.410  1.00  0.00    -0.049 A 
HETATM   11  C   UNL     1      42.332 -18.133   2.115  1.00  0.00     0.009 A 
HETATM   12  C   UNL     1      43.084 -19.271   1.809  1.00  0.00     0.024 A 
HETATM   13  C   UNL     1      43.874 -19.864   2.789  1.00  0.00     0.034 A 
HETATM   14 CL   UNL     1      44.807 -21.258   2.410  1.00  0.00    -0.084 Cl
HETATM   15  C   UNL     1      43.921 -19.328   4.074  1.00  0.00     0.024 A 
HETATM   16  C   UNL     1      43.165 -18.193   4.382  1.00  0.00     0.009 A 
ENDBRANCH   9  10
ENDBRANCH   6   9
ENDBRANCH   2   5
BRANCH   1  17
HETATM   17  C   UNL     1      45.133 -13.601   7.400  1.00  0.00     0.158 A 
HETATM   18  C   UNL     1      45.028 -12.790   8.569  1.00  0.00     0.029 A 
HETATM   19  C   UNL     1      44.124 -12.667   9.644  1.00  0.00     0.023 A 
HETATM   20  C   UNL     1      46.142 -11.960   8.534  1.00  0.00     0.063 A 
HETATM   21  C   UNL     1      44.362 -11.707  10.642  1.00  0.00    -0.061 A 
HETATM   22  C   UNL     1      43.421 -11.574  11.805  1.00  0.00     0.048 C 
HETATM   23  C   UNL     1      45.503 -10.897  10.573  1.00  0.00     0.009 A 
HETATM   24  C   UNL     1      46.414 -11.005   9.517  1.00  0.00     0.032 A 
HETATM   25  N   UNL     1      46.817 -12.308   7.397  1.00  0.00    -0.277 N 
HETATM   26  H   UNL     1      47.682 -11.909   7.051  1.00  0.00     0.189 HD
HETATM   27  N   UNL     1      46.239 -13.291   6.687  1.00  0.00    -0.168 NA
ENDBRANCH   1  17
TORSDOF 4
ENDMDL
MODEL 2
REMARK VINA RESULT:      -8.6      6.195      8.354
REMARK  4 active torsions:
REMARK  status: ('A' for Active; 'I' for Inactive)
REMARK    1  A    between atoms: C_9  and  C_10 
REMARK       I    between atoms: C_10  and  N_11 
REMARK    2  A    between atoms: N_11  and  N_12 
REMARK       I    between atoms: N_12  and  C_13 
REMARK    3  A    between atoms: C_13  and  C_14 
REMARK    4  A    between atoms: C_14  and  C_15 
ROOT
HETATM    1  C   UNL     1      41.617 -16.791   2.173  1.00  0.00     0.291 C 
HETATM    2  N   UNL     1      40.291 -16.862   2.556  1.00  0.00    -0.262 N 
HETATM    3  O   UNL     1      41.973 -16.286   1.107  1.00  0.00    -0.264 OA
HETATM    4  H   UNL     1      40.074 -17.128   3.520  1.00  0.00     0.190 HD
ENDROOT
BRANCH   2   5
HETATM    5  N   UNL     1      39.329 -16.145   1.835  1.00  0.00    -0.267 N 
HETATM    6  C   UNL     1      39.082 -14.839   2.207  1.00  0.00     0.240 C 
HETATM    7  O   UNL     1      39.551 -14.332   3.225  1.00  0.00    -0.272 OA
HETATM    8  H   UNL     1      39.075 -16.519   0.923  1.00  0.00     0.190 HD
BRANCH   6   9
HETATM    9  C   UNL     1      38.170 -14.082   1.262  1.00  0.00     0.143 C 
BRANCH   9  10
HETATM   10  C   UNL     1      38.833 -13.664  -0.031  1.00  0.00    -0.049 A 
HETATM   11  C   UNL     1      40.147 -13.170  -0.047  1.00  0.00     0.009 A 
HETATM   12  C   UNL     1      40.762 -12.825  -1.254  1.00  0.00     0.024 A 
HETATM   13  C   UNL     1      40.075 -12.988  -2.453  1.00  0.00     0.034 A 
HETATM   14 CL   UNL     1      40.836 -12.573  -3.939  1.00  0.00    -0.084 Cl
HETATM   15  C   UNL     1      38.778 -13.495  -2.457  1.00  0.00     0.024 A 
HETATM   16  C   UNL     1      38.161 -13.836  -1.250  1.00  0.00     0.009 A 
ENDBRANCH   9  10
ENDBRANCH   6   9
ENDBRANCH   2   5
BRANCH   1  17
HETATM   17  C   UNL     1      42.540 -17.358   3.165  1.00  0.00     0.158 A 
HETATM   18  C   UNL     1      43.217 -18.612   3.106  1.00  0.00     0.029 A 
HETATM   19  C   UNL     1      43.277 -19.694   2.204  1.00  0.00     0.023 A 
HETATM   20  C   UNL     1      43.970 -18.672   4.273  1.00  0.00     0.063 A 
HETATM   21  C   UNL     1      44.082 -20.806   2.508  1.00  0.00    -0.061 A 
HETATM   22  C   UNL     1      44.174 -21.959   1.551  1.00  0.00     0.048 C 
HETATM   23  C   UNL     1      44.832 -20.820   3.691  1.00  0.00     0.009 A 
HETATM   24  C   UNL     1      44.790 -19.756   4.598  1.00  0.00     0.032 A 
HETATM   25  N   UNL     1      43.711 -17.502   4.931  1.00  0.00    -0.277 N 
HETATM   26  H   UNL     1      44.091 -17.202   5.821  1.00  0.00     0.189 HD
HETATM   27  N   UNL     1      42.853 -16.686   4.296  1.00  0.00    -0.168 NA
ENDBRANCH   1  17
TORSDOF 4
ENDMDL
MODEL 3
REMARK VINA RESULT:      -8.3      6.505      9.154
REMARK  4 active torsions:
REMARK  status: ('A' for Active; 'I' for Inactive)
REMARK    1  A    between atoms: C_9  and  C_10 
REMARK       I    between atoms: C_10  and  N_11 
REMARK    2  A    between atoms: N_11  and  N_12 
REMARK       I    between atoms: N_12  and  C_13 
REMARK    3  A    between atoms: C_13  and  C_14 
REMARK    4  A    between atoms: C_14  and  C_15 
ROOT
HETATM    1  C   UNL     1      41.475 -16.861   1.602  1.00  0.00     0.291 C 
HETATM    2  N   UNL     1      42.126 -16.401   0.473  1.00  0.00    -0.262 N 
HETATM    3  O   UNL     1      40.247 -16.913   1.684  1.00  0.00    -0.264 OA
HETATM    4  H   UNL     1      43.136 -16.546   0.397  1.00  0.00     0.190 HD
ENDROOT
BRANCH   2   5
HETATM    5  N   UNL     1      41.397 -16.195  -0.704  1.00  0.00    -0.267 N 
HETATM    6  C   UNL     1      40.972 -14.912  -0.986  1.00  0.00     0.240 C 
HETATM    7  O   UNL     1      41.071 -13.983  -0.186  1.00  0.00    -0.272 OA
HETATM    8  H   UNL     1      41.461 -16.925  -1.410  1.00  0.00     0.190 HD
BRANCH   6   9
HETATM    9  C   UNL     1      40.358 -14.746  -2.362  1.00  0.00     0.143 C 
BRANCH   9  10
HETATM   10  C   UNL     1      40.744 -13.461  -3.058  1.00  0.00    -0.049 A 
HETATM   11  C   UNL     1      39.768 -12.577  -3.543  1.00  0.00     0.009 A 
HETATM   12  C   UNL     1      40.138 -11.373  -4.149  1.00  0.00     0.024 A 
HETATM   13  C   UNL     1      41.485 -11.037  -4.258  1.00  0.00     0.034 A 
HETATM   14 CL   UNL     1      41.940  -9.551  -4.995  1.00  0.00    -0.084 Cl
HETATM   15  C   UNL     1      42.465 -11.894  -3.764  1.00  0.00     0.024 A 
HETATM   16  C   UNL     1      42.095 -13.100  -3.163  1.00  0.00     0.009 A 
ENDBRANCH   9  10
ENDBRANCH   6   9
ENDBRANCH   2   5
BRANCH   1  17
HETATM   17  C   UNL     1      42.391 -17.289   2.667  1.00  0.00     0.158 A 
HETATM   18  C   UNL     1      43.107 -18.520   2.757  1.00  0.00     0.029 A 
HETATM   19  C   UNL     1      43.221 -19.689   1.978  1.00  0.00     0.023 A 
HETATM   20  C   UNL     1      43.834 -18.430   3.939  1.00  0.00     0.063 A 
HETATM   21  C   UNL     1      44.051 -20.735   2.416  1.00  0.00    -0.061 A 
HETATM   22  C   UNL     1      44.201 -21.981   1.590  1.00  0.00     0.048 C 
HETATM   23  C   UNL     1      44.774 -20.598   3.608  1.00  0.00     0.009 A 
HETATM   24  C   UNL     1      44.678 -19.446   4.395  1.00  0.00     0.032 A 
HETATM   25  N   UNL     1      43.524 -17.206   4.462  1.00  0.00    -0.277 N 
HETATM   26  H   UNL     1      43.873 -16.800   5.322  1.00  0.00     0.189 HD
HETATM   27  N   UNL     1      42.656 -16.491   3.726  1.00  0.00    -0.168 NA
ENDBRANCH   1  17
TORSDOF 4
ENDMDL
MODEL 4
REMARK VINA RESULT:      -7.8      4.454      7.321
REMARK  4 active torsions:
REMARK  status: ('A' for Active; 'I' for Inactive)
REMARK    1  A    between atoms: C_9  and  C_10 
REMARK       I    between atoms: C_10  and  N_11 
REMARK    2  A    between atoms: N_11  and  N_12 
REMARK       I    between atoms: N_12  and  C_13 
REMARK    3  A    between atoms: C_13  and  C_14 
REMARK    4  A    between atoms: C_14  and  C_15 
ROOT
HETATM    1  C   UNL     1      41.750 -16.664   6.540  1.00  0.00     0.291 C 
HETATM    2  N   UNL     1      42.346 -15.419   6.452  1.00  0.00    -0.262 N 
HETATM    3  O   UNL     1      40.528 -16.810   6.590  1.00  0.00    -0.264 OA
HETATM    4  H   UNL     1      43.345 -15.370   6.237  1.00  0.00     0.190 HD
ENDROOT
BRANCH   2   5
HETATM    5  N   UNL     1      41.555 -14.297   6.184  1.00  0.00    -0.267 N 
HETATM    6  C   UNL     1      42.004 -13.401   5.234  1.00  0.00     0.240 C 
HETATM    7  O   UNL     1      43.125 -13.464   4.732  1.00  0.00    -0.272 OA
HETATM    8  H   UNL     1      40.584 -14.344   6.485  1.00  0.00     0.190 HD
BRANCH   6   9
HETATM    9  C   UNL     1      41.004 -12.321   4.871  1.00  0.00     0.143 C 
BRANCH   9  10
HETATM   10  C   UNL     1      40.072 -12.698   3.742  1.00  0.00    -0.049 A 
HETATM   11  C   UNL     1      39.207 -11.754   3.168  1.00  0.00     0.009 A 
HETATM   12  C   UNL     1      38.380 -12.106   2.097  1.00  0.00     0.024 A 
HETATM   13  C   UNL     1      38.425 -13.399   1.583  1.00  0.00     0.034 A 
HETATM   14 CL   UNL     1      37.414 -13.830   0.260  1.00  0.00    -0.084 Cl
HETATM   15  C   UNL     1      39.292 -14.343   2.128  1.00  0.00     0.024 A 
HETATM   16  C   UNL     1      40.115 -13.992   3.202  1.00  0.00     0.009 A 
ENDBRANCH   9  10
ENDBRANCH   6   9
ENDBRANCH   2   5
BRANCH   1  17
HETATM   17  C   UNL     1      42.715 -17.771   6.550  1.00  0.00     0.158 A 
HETATM   18  C   UNL     1      43.218 -18.496   5.430  1.00  0.00     0.029 A 
HETATM   19  C   UNL     1      43.028 -18.471   4.033  1.00  0.00     0.023 A 
HETATM   20  C   UNL     1      44.101 -19.426   5.968  1.00  0.00     0.063 A 
HETATM   21  C   UNL     1      43.722 -19.388   3.224  1.00  0.00    -0.061 A 
HETATM   22  C   UNL     1      43.548 -19.364   1.732  1.00  0.00     0.048 C 
HETATM   23  C   UNL     1      44.610 -20.300   3.807  1.00  0.00     0.009 A 
HETATM   24  C   UNL     1      44.815 -20.340   5.190  1.00  0.00     0.032 A 
HETATM   25  N   UNL     1      44.074 -19.210   7.318  1.00  0.00    -0.277 N 
HETATM   26  H   UNL     1      44.599 -19.707   8.029  1.00  0.00     0.189 HD
HETATM   27  N   UNL     1      43.250 -18.223   7.707  1.00  0.00    -0.168 NA
ENDBRANCH   1  17
TORSDOF 4
ENDMDL
MODEL 5
REMARK VINA RESULT:      -7.8      2.337      3.217
REMARK  4 active torsions:
REMARK  status: ('A' for Active; 'I' for Inactive)
REMARK    1  A    between atoms: C_9  and  C_10 
REMARK       I    between atoms: C_10  and  N_11 
REMARK    2  A    between atoms: N_11  and  N_12 
REMARK       I    between atoms: N_12  and  C_13 
REMARK    3  A    between atoms: C_13  and  C_14 
REMARK    4  A    between atoms: C_14  and  C_15 
ROOT
HETATM    1  C   UNL     1      42.731 -11.478   7.872  1.00  0.00     0.291 C 
HETATM    2  N   UNL     1      43.181 -12.674   7.344  1.00  0.00    -0.262 N 
HETATM    3  O   UNL     1      41.833 -10.818   7.347  1.00  0.00    -0.264 OA
HETATM    4  H   UNL     1      43.797 -13.258   7.913  1.00  0.00     0.190 HD
ENDROOT
BRANCH   2   5
HETATM    5  N   UNL     1      42.460 -13.282   6.311  1.00  0.00    -0.267 N 
HETATM    6  C   UNL     1      43.170 -13.823   5.257  1.00  0.00     0.240 C 
HETATM    7  O   UNL     1      44.380 -13.661   5.112  1.00  0.00    -0.272 OA
HETATM    8  H   UNL     1      41.498 -13.540   6.520  1.00  0.00     0.190 HD
BRANCH   6   9
HETATM    9  C   UNL     1      42.328 -14.623   4.282  1.00  0.00     0.143 C 
BRANCH   9  10
HETATM   10  C   UNL     1      42.925 -15.960   3.907  1.00  0.00    -0.049 A 
HETATM   11  C   UNL     1      43.128 -16.961   4.870  1.00  0.00     0.009 A 
HETATM   12  C   UNL     1      43.644 -18.207   4.503  1.00  0.00     0.024 A 
HETATM   13  C   UNL     1      43.942 -18.467   3.168  1.00  0.00     0.034 A 
HETATM   14 CL   UNL     1      44.568 -20.004   2.714  1.00  0.00    -0.084 Cl
HETATM   15  C   UNL     1      43.728 -17.492   2.197  1.00  0.00     0.024 A 
HETATM   16  C   UNL     1      43.218 -16.244   2.565  1.00  0.00     0.009 A 
ENDBRANCH   9  10
ENDBRANCH   6   9
ENDBRANCH   2   5
BRANCH   1  17
HETATM   17  C   UNL     1      43.416 -11.097   9.115  1.00  0.00     0.158 A 
HETATM   18  C   UNL     1      42.823 -10.640  10.329  1.00  0.00     0.029 A 
HETATM   19  C   UNL     1      41.516 -10.386  10.791  1.00  0.00     0.023 A 
HETATM   20  C   UNL     1      43.891 -10.424  11.193  1.00  0.00     0.063 A 
HETATM   21  C   UNL     1      41.323  -9.913  12.100  1.00  0.00    -0.061 A 
HETATM   22  C   UNL     1      39.936  -9.656  12.617  1.00  0.00     0.048 C 
HETATM   23  C   UNL     1      42.427  -9.720  12.941  1.00  0.00     0.009 A 
HETATM   24  C   UNL     1      43.732  -9.969  12.504  1.00  0.00     0.032 A 
HETATM   25  N   UNL     1      45.008 -10.751  10.476  1.00  0.00    -0.277 N 
HETATM   26  H   UNL     1      45.971 -10.717  10.791  1.00  0.00     0.189 HD
HETATM   27  N   UNL     1      44.762 -11.159   9.220  1.00  0.00    -0.168 NA
ENDBRANCH   1  17
TORSDOF 4
ENDMDL
MODEL 6
REMARK VINA RESULT:      -7.7      6.600      9.118
REMARK  4 active torsions:
REMARK  status: ('A' for Active; 'I' for Inactive)
REMARK    1  A    between atoms: C_9  and  C_10 
REMARK       I    between atoms: C_10  and  N_11 
REMARK    2  A    between atoms: N_11  and  N_12 
REMARK       I    between atoms: N_12  and  C_13 
REMARK    3  A    between atoms: C_13  and  C_14 
REMARK    4  A    between atoms: C_14  and  C_15 
ROOT
HETATM    1  C   UNL     1      41.118 -17.086   2.066  1.00  0.00     0.291 C 
HETATM    2  N   UNL     1      39.970 -16.596   2.660  1.00  0.00    -0.262 N 
HETATM    3  O   UNL     1      41.253 -17.158   0.844  1.00  0.00    -0.264 OA
HETATM    4  H   UNL     1      39.986 -16.398   3.663  1.00  0.00     0.190 HD
ENDROOT
BRANCH   2   5
HETATM    5  N   UNL     1      39.012 -15.949   1.872  1.00  0.00    -0.267 N 
HETATM    6  C   UNL     1      39.132 -14.584   1.700  1.00  0.00     0.240 C 
HETATM    7  O   UNL     1      39.940 -13.899   2.324  1.00  0.00    -0.272 OA
HETATM    8  H   UNL     1      38.460 -16.538   1.253  1.00  0.00     0.190 HD
BRANCH   6   9
HETATM    9  C   UNL     1      38.170 -13.996   0.686  1.00  0.00     0.143 C 
BRANCH   9  10
HETATM   10  C   UNL     1      37.643 -12.629   1.058  1.00  0.00    -0.049 A 
HETATM   11  C   UNL     1      36.486 -12.109   0.459  1.00  0.00     0.009 A 
HETATM   12  C   UNL     1      35.986 -10.860   0.842  1.00  0.00     0.024 A 
HETATM   13  C   UNL     1      36.631 -10.132   1.837  1.00  0.00     0.034 A 
HETATM   14 CL   UNL     1      36.011  -8.600   2.315  1.00  0.00    -0.084 Cl
HETATM   15  C   UNL     1      37.769 -10.642   2.456  1.00  0.00     0.024 A 
HETATM   16  C   UNL     1      38.271 -11.887   2.070  1.00  0.00     0.009 A 
ENDBRANCH   9  10
ENDBRANCH   6   9
ENDBRANCH   2   5
BRANCH   1  17
HETATM   17  C   UNL     1      42.147 -17.489   3.034  1.00  0.00     0.158 A 
HETATM   18  C   UNL     1      42.961 -18.660   3.001  1.00  0.00     0.029 A 
HETATM   19  C   UNL     1      43.102 -19.777   2.152  1.00  0.00     0.023 A 
HETATM   20  C   UNL     1      43.771 -18.569   4.127  1.00  0.00     0.063 A 
HETATM   21  C   UNL     1      44.044 -20.772   2.468  1.00  0.00    -0.061 A 
HETATM   22  C   UNL     1      44.223 -21.959   1.566  1.00  0.00     0.048 C 
HETATM   23  C   UNL     1      44.847 -20.635   3.608  1.00  0.00     0.009 A 
HETATM   24  C   UNL     1      44.725 -19.533   4.462  1.00  0.00     0.032 A 
HETATM   25  N   UNL     1      43.410 -17.401   4.739  1.00  0.00    -0.277 N 
HETATM   26  H   UNL     1      43.795 -17.011   5.591  1.00  0.00     0.189 HD
HETATM   27  N   UNL     1      42.434 -16.724   4.111  1.00  0.00    -0.168 NA
ENDBRANCH   1  17
TORSDOF 4
ENDMDL
MODEL 7
REMARK VINA RESULT:      -7.7      3.339      5.481
REMARK  4 active torsions:
REMARK  status: ('A' for Active; 'I' for Inactive)
REMARK    1  A    between atoms: C_9  and  C_10 
REMARK       I    between atoms: C_10  and  N_11 
REMARK    2  A    between atoms: N_11  and  N_12 
REMARK       I    between atoms: N_12  and  C_13 
REMARK    3  A    between atoms: C_13  and  C_14 
REMARK    4  A    between atoms: C_14  and  C_15 
ROOT
HETATM    1  C   UNL     1      43.391 -13.933   5.882  1.00  0.00     0.291 C 
HETATM    2  N   UNL     1      43.073 -15.176   6.398  1.00  0.00    -0.262 N 
HETATM    3  O   UNL     1      44.549 -13.598   5.628  1.00  0.00    -0.264 OA
HETATM    4  H   UNL     1      42.090 -15.458   6.421  1.00  0.00     0.190 HD
ENDROOT
BRANCH   2   5
HETATM    5  N   UNL     1      44.050 -16.177   6.427  1.00  0.00    -0.267 N 
HETATM    6  C   UNL     1      43.631 -17.486   6.555  1.00  0.00     0.240 C 
HETATM    7  O   UNL     1      42.465 -17.796   6.795  1.00  0.00    -0.272 OA
HETATM    8  H   UNL     1      44.971 -15.923   6.077  1.00  0.00     0.190 HD
BRANCH   6   9
HETATM    9  C   UNL     1      44.733 -18.514   6.389  1.00  0.00     0.143 C 
BRANCH   9  10
HETATM   10  C   UNL     1      44.603 -19.361   5.144  1.00  0.00    -0.049 A 
HETATM   11  C   UNL     1      44.840 -20.744   5.177  1.00  0.00     0.009 A 
HETATM   12  C   UNL     1      44.677 -21.521   4.028  1.00  0.00     0.024 A 
HETATM   13  C   UNL     1      44.261 -20.925   2.841  1.00  0.00     0.034 A 
HETATM   14 CL   UNL     1      44.052 -21.883   1.428  1.00  0.00    -0.084 Cl
HETATM   15  C   UNL     1      44.003 -19.557   2.795  1.00  0.00     0.024 A 
HETATM   16  C   UNL     1      44.170 -18.778   3.943  1.00  0.00     0.009 A 
ENDBRANCH   9  10
ENDBRANCH   6   9
ENDBRANCH   2   5
BRANCH   1  17
HETATM   17  C   UNL     1      42.218 -13.078   5.660  1.00  0.00     0.158 A 
HETATM   18  C   UNL     1      41.230 -13.204   4.639  1.00  0.00     0.029 A 
HETATM   19  C   UNL     1      40.993 -14.074   3.555  1.00  0.00     0.023 A 
HETATM   20  C   UNL     1      40.337 -12.164   4.869  1.00  0.00     0.063 A 
HETATM   21  C   UNL     1      39.874 -13.865   2.731  1.00  0.00    -0.061 A 
HETATM   22  C   UNL     1      39.594 -14.792   1.583  1.00  0.00     0.048 C 
HETATM   23  C   UNL     1      38.994 -12.810   3.006  1.00  0.00     0.009 A 
HETATM   24  C   UNL     1      39.208 -11.937   4.078  1.00  0.00     0.032 A 
HETATM   25  N   UNL     1      40.821 -11.508   5.966  1.00  0.00    -0.277 N 
HETATM   26  H   UNL     1      40.422 -10.694   6.420  1.00  0.00     0.189 HD
HETATM   27  N   UNL     1      41.954 -12.027   6.469  1.00  0.00    -0.168 NA
ENDBRANCH   1  17
TORSDOF 4
ENDMDL
MODEL 8
REMARK VINA RESULT:      -7.7      4.863      7.251
REMARK  4 active torsions:
REMARK  status: ('A' for Active; 'I' for Inactive)
REMARK    1  A    between atoms: C_9  and  C_10 
REMARK       I    between atoms: C_10  and  N_11 
REMARK    2  A    between atoms: N_11  and  N_12 
REMARK       I    between atoms: N_12  and  C_13 
REMARK    3  A    between atoms: C_13  and  C_14 
REMARK    4  A    between atoms: C_14  and  C_15 
ROOT
HETATM    1  C   UNL     1      41.694 -17.523   1.917  1.00  0.00     0.291 C 
HETATM    2  N   UNL     1      40.480 -17.351   2.557  1.00  0.00    -0.262 N 
HETATM    3  O   UNL     1      41.918 -17.078   0.791  1.00  0.00    -0.264 OA
HETATM    4  H   UNL     1      40.414 -17.586   3.550  1.00  0.00     0.190 HD
ENDROOT
BRANCH   2   5
HETATM    5  N   UNL     1      39.545 -16.457   2.024  1.00  0.00    -0.267 N 
HETATM    6  C   UNL     1      39.568 -15.152   2.474  1.00  0.00     0.240 C 
HETATM    7  O   UNL     1      40.261 -14.782   3.420  1.00  0.00    -0.272 OA
HETATM    8  H   UNL     1      39.098 -16.734   1.152  1.00  0.00     0.190 HD
BRANCH   6   9
HETATM    9  C   UNL     1      38.652 -14.213   1.714  1.00  0.00     0.143 C 
BRANCH   9  10
HETATM   10  C   UNL     1      39.150 -13.853   0.332  1.00  0.00    -0.049 A 
HETATM   11  C   UNL     1      40.523 -13.768   0.054  1.00  0.00     0.009 A 
HETATM   12  C   UNL     1      40.970 -13.474  -1.237  1.00  0.00     0.024 A 
HETATM   13  C   UNL     1      40.049 -13.279  -2.262  1.00  0.00     0.034 A 
HETATM   14 CL   UNL     1      40.599 -12.926  -3.853  1.00  0.00    -0.084 Cl
HETATM   15  C   UNL     1      38.683 -13.379  -2.007  1.00  0.00     0.024 A 
HETATM   16  C   UNL     1      38.236 -13.668  -0.715  1.00  0.00     0.009 A 
ENDBRANCH   9  10
ENDBRANCH   6   9
ENDBRANCH   2   5
BRANCH   1  17
HETATM   17  C   UNL     1      42.674 -18.267   2.720  1.00  0.00     0.158 A 
HETATM   18  C   UNL     1      43.262 -17.874   3.958  1.00  0.00     0.029 A 
HETATM   19  C   UNL     1      43.174 -16.760   4.818  1.00  0.00     0.023 A 
HETATM   20  C   UNL     1      44.108 -18.921   4.305  1.00  0.00     0.063 A 
HETATM   21  C   UNL     1      43.947 -16.728   5.991  1.00  0.00    -0.061 A 
HETATM   22  C   UNL     1      43.852 -15.559   6.929  1.00  0.00     0.048 C 
HETATM   23  C   UNL     1      44.778 -17.810   6.308  1.00  0.00     0.009 A 
HETATM   24  C   UNL     1      44.878 -18.926   5.471  1.00  0.00     0.032 A 
HETATM   25  N   UNL     1      43.981 -19.837   3.299  1.00  0.00    -0.277 N 
HETATM   26  H   UNL     1      44.452 -20.731   3.220  1.00  0.00     0.189 HD
HETATM   27  N   UNL     1      43.128 -19.478   2.325  1.00  0.00    -0.168 NA
ENDBRANCH   1  17
TORSDOF 4
ENDMDL
MODEL 9
REMARK VINA RESULT:      -7.6      5.377      7.787
REMARK  4 active torsions:
REMARK  status: ('A' for Active; 'I' for Inactive)
REMARK    1  A    between atoms: C_9  and  C_10 
REMARK       I    between atoms: C_10  and  N_11 
REMARK    2  A    between atoms: N_11  and  N_12 
REMARK       I    between atoms: N_12  and  C_13 
REMARK    3  A    between atoms: C_13  and  C_14 
REMARK    4  A    between atoms: C_14  and  C_15 
ROOT
HETATM    1  C   UNL     1      41.320 -16.970   2.348  1.00  0.00     0.291 C 
HETATM    2  N   UNL     1      40.494 -16.080   1.686  1.00  0.00    -0.262 N 
HETATM    3  O   UNL     1      41.914 -17.880   1.767  1.00  0.00    -0.264 OA
HETATM    4  H   UNL     1      40.172 -15.248   2.186  1.00  0.00     0.190 HD
ENDROOT
BRANCH   2   5
HETATM    5  N   UNL     1      40.495 -16.053   0.287  1.00  0.00    -0.267 N 
HETATM    6  C   UNL     1      41.158 -15.016  -0.338  1.00  0.00     0.240 C 
HETATM    7  O   UNL     1      41.610 -14.046   0.269  1.00  0.00    -0.272 OA
HETATM    8  H   UNL     1      40.260 -16.924  -0.184  1.00  0.00     0.190 HD
BRANCH   6   9
HETATM    9  C   UNL     1      41.271 -15.164  -1.843  1.00  0.00     0.143 C 
BRANCH   9  10
HETATM   10  C   UNL     1      39.964 -14.974  -2.580  1.00  0.00    -0.049 A 
HETATM   11  C   UNL     1      39.570 -15.855  -3.599  1.00  0.00     0.009 A 
HETATM   12  C   UNL     1      38.342 -15.691  -4.244  1.00  0.00     0.024 A 
HETATM   13  C   UNL     1      37.491 -14.657  -3.864  1.00  0.00     0.034 A 
HETATM   14 CL   UNL     1      35.975 -14.461  -4.652  1.00  0.00    -0.084 Cl
HETATM   15  C   UNL     1      37.858 -13.786  -2.842  1.00  0.00     0.024 A 
HETATM   16  C   UNL     1      39.089 -13.946  -2.199  1.00  0.00     0.009 A 
ENDBRANCH   9  10
ENDBRANCH   6   9
ENDBRANCH   2   5
BRANCH   1  17
HETATM   17  C   UNL     1      41.422 -16.707   3.789  1.00  0.00     0.158 A 
HETATM   18  C   UNL     1      42.126 -17.473   4.765  1.00  0.00     0.029 A 
HETATM   19  C   UNL     1      42.906 -18.647   4.768  1.00  0.00     0.023 A 
HETATM   20  C   UNL     1      41.920 -16.804   5.967  1.00  0.00     0.063 A 
HETATM   21  C   UNL     1      43.446 -19.118   5.978  1.00  0.00    -0.061 A 
HETATM   22  C   UNL     1      44.297 -20.355   5.998  1.00  0.00     0.048 C 
HETATM   23  C   UNL     1      43.222 -18.406   7.164  1.00  0.00     0.009 A 
HETATM   24  C   UNL     1      42.453 -17.238   7.183  1.00  0.00     0.032 A 
HETATM   25  N   UNL     1      41.141 -15.726   5.651  1.00  0.00    -0.277 N 
HETATM   26  H   UNL     1      40.796 -15.013   6.284  1.00  0.00     0.189 HD
HETATM   27  N   UNL     1      40.819 -15.635   4.350  1.00  0.00    -0.168 NA
ENDBRANCH   1  17
TORSDOF 4
ENDMDL
MODEL 10
REMARK VINA RESULT:      -7.6      4.970      8.504
REMARK  4 active torsions:
REMARK  status: ('A' for Active; 'I' for Inactive)
REMARK    1  A    between atoms: C_9  and  C_10 
REMARK       I    between atoms: C_10  and  N_11 
REMARK    2  A    between atoms: N_11  and  N_12 
REMARK       I    between atoms: N_12  and  C_13 
REMARK    3  A    between atoms: C_13  and  C_14 
REMARK    4  A    between atoms: C_14  and  C_15 
ROOT
HETATM    1  C   UNL     1      41.180 -14.995   1.099  1.00  0.00     0.291 C 
HETATM    2  N   UNL     1      41.412 -14.640   2.415  1.00  0.00    -0.262 N 
HETATM    3  O   UNL     1      41.980 -15.662   0.442  1.00  0.00    -0.264 OA
HETATM    4  H   UNL     1      40.641 -14.243   2.957  1.00  0.00     0.190 HD
ENDROOT
BRANCH   2   5
HETATM    5  N   UNL     1      42.472 -15.234   3.109  1.00  0.00    -0.267 N 
HETATM    6  C   UNL     1      42.178 -16.264   3.980  1.00  0.00     0.240 C 
HETATM    7  O   UNL     1      41.028 -16.576   4.285  1.00  0.00    -0.272 OA
HETATM    8  H   UNL     1      43.405 -15.074   2.735  1.00  0.00     0.190 HD
BRANCH   6   9
HETATM    9  C   UNL     1      43.395 -16.972   4.544  1.00  0.00     0.143 C 
BRANCH   9  10
HETATM   10  C   UNL     1      43.683 -18.309   3.901  1.00  0.00    -0.049 A 
HETATM   11  C   UNL     1      43.260 -18.592   2.593  1.00  0.00     0.009 A 
HETATM   12  C   UNL     1      43.568 -19.818   1.996  1.00  0.00     0.024 A 
HETATM   13  C   UNL     1      44.314 -20.762   2.696  1.00  0.00     0.034 A 
HETATM   14 CL   UNL     1      44.700 -22.267   1.958  1.00  0.00    -0.084 Cl
HETATM   15  C   UNL     1      44.757 -20.490   3.987  1.00  0.00     0.024 A 
HETATM   16  C   UNL     1      44.446 -19.266   4.586  1.00  0.00     0.009 A 
ENDBRANCH   9  10
ENDBRANCH   6   9
ENDBRANCH   2   5
BRANCH   1  17
HETATM   17  C   UNL     1      39.891 -14.512   0.585  1.00  0.00     0.158 A 
HETATM   18  C   UNL     1      39.651 -13.789  -0.620  1.00  0.00     0.029 A 
HETATM   19  C   UNL     1      40.435 -13.291  -1.681  1.00  0.00     0.023 A 
HETATM   20  C   UNL     1      38.277 -13.581  -0.650  1.00  0.00     0.063 A 
HETATM   21  C   UNL     1      39.816 -12.591  -2.731  1.00  0.00    -0.061 A 
HETATM   22  C   UNL     1      40.632 -12.070  -3.879  1.00  0.00     0.048 C 
HETATM   23  C   UNL     1      38.427 -12.413  -2.726  1.00  0.00     0.009 A 
HETATM   24  C   UNL     1      37.630 -12.901  -1.685  1.00  0.00     0.032 A 
HETATM   25  N   UNL     1      37.798 -14.166   0.489  1.00  0.00    -0.277 N 
HETATM   26  H   UNL     1      36.834 -14.210   0.797  1.00  0.00     0.189 HD
HETATM   27  N   UNL     1      38.740 -14.736   1.259  1.00  0.00    -0.168 NA
ENDBRANCH   1  17
TORSDOF 4
ENDMDL
