MODEL 1
REMARK VINA RESULT:      -9.9      0.000      0.000
REMARK  6 active torsions:
REMARK  status: ('A' for Active; 'I' for Inactive)
REMARK    1  A    between atoms: C_5  and  N_6 
REMARK       I    between atoms: N_6  and  C_7 
REMARK       I    between atoms: C_7  and  N_8 
REMARK    2  A    between atoms: N_8  and  C_9 
REMARK    3  A    between atoms: C_9  and  C_10 
REMARK       I    between atoms: C_10  and  N_11 
REMARK    4  A    between atoms: N_11  and  N_12 
REMARK       I    between atoms: N_12  and  C_13 
REMARK       I    between atoms: C_13  and  N_14 
REMARK    5  A    between atoms: N_14  and  C_15 
REMARK    6  A    between atoms: C_17  and  C_18 
ROOT
HETATM    1  C   UNL     1      43.920 -14.227   6.865  1.00  0.00     0.253 C 
HETATM    2  N   UNL     1      43.680 -15.498   7.353  1.00  0.00    -0.265 N 
HETATM    3  O   UNL     1      43.229 -13.711   5.986  1.00  0.00    -0.270 OA
HETATM    4  H   UNL     1      44.143 -15.785   8.218  1.00  0.00     0.190 HD
ENDROOT
BRANCH   2   5
HETATM    5  N   UNL     1      42.477 -16.123   7.012  1.00  0.00    -0.249 N 
HETATM    6  C   UNL     1      42.288 -16.787   5.816  1.00  0.00     0.339 C 
HETATM    7  N   UNL     1      43.440 -16.928   5.078  1.00  0.00    -0.308 N 
HETATM    8  O   UNL     1      41.170 -17.192   5.517  1.00  0.00    -0.245 OA
HETATM    9  H   UNL     1      44.224 -16.405   5.440  1.00  0.00     0.170 HD
HETATM   10  H   UNL     1      41.638 -15.821   7.503  1.00  0.00     0.192 HD
BRANCH   7  11
HETATM   11  C   UNL     1      43.617 -17.606   3.860  1.00  0.00     0.037 A 
HETATM   12  C   UNL     1      43.748 -18.993   3.751  1.00  0.00     0.045 A 
HETATM   13  C   UNL     1      43.939 -19.606   2.500  1.00  0.00     0.050 A 
HETATM   14  C   UNL     1      43.983 -18.807   1.349  1.00  0.00     0.016 A 
HETATM   15  C   UNL     1      43.857 -17.423   1.448  1.00  0.00     0.003 A 
HETATM   16  C   UNL     1      43.678 -16.827   2.698  1.00  0.00     0.029 A 
BRANCH  13  17
HETATM   17  C   UNL     1      44.062 -21.105   2.384  1.00  0.00     0.417 C 
HETATM   18  F   UNL     1      45.130 -21.517   1.647  1.00  0.00    -0.166 F 
HETATM   19  F   UNL     1      44.186 -21.710   3.598  1.00  0.00    -0.166 F 
HETATM   20  F   UNL     1      42.969 -21.675   1.798  1.00  0.00    -0.166 F 
ENDBRANCH  13  17
ENDBRANCH   7  11
ENDBRANCH   2   5
BRANCH   1  21
HETATM   21  C   UNL     1      45.218 -13.585   7.367  1.00  0.00     0.228 C 
BRANCH  21  22
HETATM   22  N   UNL     1      45.096 -12.748   8.550  1.00  0.00    -0.334 N 
HETATM   23  C   UNL     1      45.839 -11.635   8.762  1.00  0.00     0.322 C 
HETATM   24  N   UNL     1      45.423 -10.769   9.721  1.00  0.00    -0.293 N 
HETATM   25  O   UNL     1      46.892 -11.431   8.157  1.00  0.00    -0.247 OA
HETATM   26  H   UNL     1      46.059  -9.998   9.866  1.00  0.00     0.172 HD
HETATM   27  H   UNL     1      44.189 -12.727   9.016  1.00  0.00     0.164 HD
BRANCH  24  28
HETATM   28  C   UNL     1      44.238 -10.780  10.466  1.00  0.00     0.131 A 
HETATM   29  N   UNL     1      43.054 -10.975   9.845  1.00  0.00    -0.243 NA
HETATM   30  C   UNL     1      41.938 -10.956  10.614  1.00  0.00     0.125 A 
HETATM   31  C   UNL     1      41.936 -10.734  11.985  1.00  0.00    -0.044 A 
HETATM   32  C   UNL     1      40.666 -10.756  12.774  1.00  0.00     0.049 C 
HETATM   33  C   UNL     1      43.172 -10.551  12.602  1.00  0.00     0.012 A 
HETATM   34  C   UNL     1      44.336 -10.568  11.836  1.00  0.00     0.051 A 
ENDBRANCH  24  28
ENDBRANCH  21  22
ENDBRANCH   1  21
TORSDOF 6
ENDMDL
MODEL 2
REMARK VINA RESULT:      -9.8      5.477     10.928
REMARK  6 active torsions:
REMARK  status: ('A' for Active; 'I' for Inactive)
REMARK    1  A    between atoms: C_5  and  N_6 
REMARK       I    between atoms: N_6  and  C_7 
REMARK       I    between atoms: C_7  and  N_8 
REMARK    2  A    between atoms: N_8  and  C_9 
REMARK    3  A    between atoms: C_9  and  C_10 
REMARK       I    between atoms: C_10  and  N_11 
REMARK    4  A    between atoms: N_11  and  N_12 
REMARK       I    between atoms: N_12  and  C_13 
REMARK       I    between atoms: C_13  and  N_14 
REMARK    5  A    between atoms: N_14  and  C_15 
REMARK    6  A    between atoms: C_17  and  C_18 
ROOT
HETATM    1  C   UNL     1      44.202 -14.332   6.453  1.00  0.00     0.253 C 
HETATM    2  N   UNL     1      44.349 -14.009   7.789  1.00  0.00    -0.265 N 
HETATM    3  O   UNL     1      44.711 -13.667   5.550  1.00  0.00    -0.270 OA
HETATM    4  H   UNL     1      44.093 -14.706   8.492  1.00  0.00     0.190 HD
ENDROOT
BRANCH   2   5
HETATM    5  N   UNL     1      45.297 -13.043   8.139  1.00  0.00    -0.249 N 
HETATM    6  C   UNL     1      44.976 -11.896   8.838  1.00  0.00     0.339 C 
HETATM    7  N   UNL     1      43.685 -11.882   9.310  1.00  0.00    -0.308 N 
HETATM    8  O   UNL     1      45.823 -11.023   8.991  1.00  0.00    -0.245 OA
HETATM    9  H   UNL     1      43.113 -12.637   8.959  1.00  0.00     0.170 HD
HETATM   10  H   UNL     1      46.164 -13.024   7.606  1.00  0.00     0.192 HD
BRANCH   7  11
HETATM   11  C   UNL     1      43.059 -10.912  10.112  1.00  0.00     0.037 A 
HETATM   12  C   UNL     1      43.252 -10.798  11.491  1.00  0.00     0.045 A 
HETATM   13  C   UNL     1      42.581  -9.812  12.237  1.00  0.00     0.050 A 
HETATM   14  C   UNL     1      41.720  -8.926  11.575  1.00  0.00     0.016 A 
HETATM   15  C   UNL     1      41.520  -9.033  10.200  1.00  0.00     0.003 A 
HETATM   16  C   UNL     1      42.185 -10.024   9.475  1.00  0.00     0.029 A 
BRANCH  13  17
HETATM   17  C   UNL     1      42.804  -9.681  13.723  1.00  0.00     0.417 C 
HETATM   18  F   UNL     1      44.025  -9.180  14.056  1.00  0.00    -0.166 F 
HETATM   19  F   UNL     1      41.888  -8.865  14.314  1.00  0.00    -0.166 F 
HETATM   20  F   UNL     1      42.707 -10.877  14.372  1.00  0.00    -0.166 F 
ENDBRANCH  13  17
ENDBRANCH   7  11
ENDBRANCH   2   5
BRANCH   1  21
HETATM   21  C   UNL     1      43.211 -15.467   6.175  1.00  0.00     0.228 C 
BRANCH  21  22
HETATM   22  N   UNL     1      43.774 -16.806   6.134  1.00  0.00    -0.334 N 
HETATM   23  C   UNL     1      43.751 -17.663   7.184  1.00  0.00     0.322 C 
HETATM   24  N   UNL     1      44.007 -18.974   6.938  1.00  0.00    -0.293 N 
HETATM   25  O   UNL     1      43.566 -17.274   8.337  1.00  0.00    -0.247 OA
HETATM   26  H   UNL     1      44.035 -19.539   7.774  1.00  0.00     0.172 HD
HETATM   27  H   UNL     1      43.804 -17.273   5.228  1.00  0.00     0.164 HD
BRANCH  24  28
HETATM   28  C   UNL     1      44.174 -19.624   5.710  1.00  0.00     0.131 A 
HETATM   29  N   UNL     1      43.973 -18.949   4.557  1.00  0.00    -0.243 NA
HETATM   30  C   UNL     1      44.129 -19.636   3.399  1.00  0.00     0.125 A 
HETATM   31  C   UNL     1      44.464 -20.982   3.326  1.00  0.00    -0.044 A 
HETATM   32  C   UNL     1      44.648 -21.667   2.010  1.00  0.00     0.049 C 
HETATM   33  C   UNL     1      44.680 -21.650   4.530  1.00  0.00     0.012 A 
HETATM   34  C   UNL     1      44.529 -20.967   5.735  1.00  0.00     0.051 A 
ENDBRANCH  24  28
ENDBRANCH  21  22
ENDBRANCH   1  21
TORSDOF 6
ENDMDL
MODEL 3
REMARK VINA RESULT:      -9.3      5.345     10.996
REMARK  6 active torsions:
REMARK  status: ('A' for Active; 'I' for Inactive)
REMARK    1  A    between atoms: C_5  and  N_6 
REMARK       I    between atoms: N_6  and  C_7 
REMARK       I    between atoms: C_7  and  N_8 
REMARK    2  A    between atoms: N_8  and  C_9 
REMARK    3  A    between atoms: C_9  and  C_10 
REMARK       I    between atoms: C_10  and  N_11 
REMARK    4  A    between atoms: N_11  and  N_12 
REMARK       I    between atoms: N_12  and  C_13 
REMARK       I    between atoms: C_13  and  N_14 
REMARK    5  A    between atoms: N_14  and  C_15 
REMARK    6  A    between atoms: C_17  and  C_18 
ROOT
HETATM    1  C   UNL     1      43.741 -15.064   6.679  1.00  0.00     0.253 C 
HETATM    2  N   UNL     1      43.685 -13.770   7.160  1.00  0.00    -0.265 N 
HETATM    3  O   UNL     1      44.765 -15.747   6.725  1.00  0.00    -0.270 OA
HETATM    4  H   UNL     1      42.769 -13.336   7.293  1.00  0.00     0.190 HD
ENDROOT
BRANCH   2   5
HETATM    5  N   UNL     1      44.751 -13.303   7.937  1.00  0.00    -0.249 N 
HETATM    6  C   UNL     1      44.626 -12.259   8.832  1.00  0.00     0.339 C 
HETATM    7  N   UNL     1      43.327 -11.846   9.018  1.00  0.00    -0.308 N 
HETATM    8  O   UNL     1      45.625 -11.806   9.378  1.00  0.00    -0.245 OA
HETATM    9  H   UNL     1      42.670 -12.260   8.372  1.00  0.00     0.170 HD
HETATM   10  H   UNL     1      45.692 -13.518   7.615  1.00  0.00     0.192 HD
BRANCH   7  11
HETATM   11  C   UNL     1      42.841 -10.867   9.902  1.00  0.00     0.037 A 
HETATM   12  C   UNL     1      43.082 -10.871  11.278  1.00  0.00     0.045 A 
HETATM   13  C   UNL     1      42.551  -9.867  12.108  1.00  0.00     0.050 A 
HETATM   14  C   UNL     1      41.783  -8.844  11.534  1.00  0.00     0.016 A 
HETATM   15  C   UNL     1      41.537  -8.833  10.163  1.00  0.00     0.003 A 
HETATM   16  C   UNL     1      42.061  -9.842   9.353  1.00  0.00     0.029 A 
BRANCH  13  17
HETATM   17  C   UNL     1      42.827  -9.864  13.591  1.00  0.00     0.417 C 
HETATM   18  F   UNL     1      41.836  -9.301  14.336  1.00  0.00    -0.166 F 
HETATM   19  F   UNL     1      43.004 -11.119  14.087  1.00  0.00    -0.166 F 
HETATM   20  F   UNL     1      43.962  -9.177  13.910  1.00  0.00    -0.166 F 
ENDBRANCH  13  17
ENDBRANCH   7  11
ENDBRANCH   2   5
BRANCH   1  21
HETATM   21  C   UNL     1      42.489 -15.519   5.922  1.00  0.00     0.228 C 
BRANCH  21  22
HETATM   22  N   UNL     1      42.720 -16.365   4.762  1.00  0.00    -0.334 N 
HETATM   23  C   UNL     1      43.196 -15.905   3.580  1.00  0.00     0.322 C 
HETATM   24  N   UNL     1      43.672 -16.814   2.691  1.00  0.00    -0.293 N 
HETATM   25  O   UNL     1      43.149 -14.711   3.280  1.00  0.00    -0.247 OA
HETATM   26  H   UNL     1      43.949 -16.405   1.811  1.00  0.00     0.172 HD
HETATM   27  H   UNL     1      42.940 -17.345   4.936  1.00  0.00     0.164 HD
BRANCH  24  28
HETATM   28  C   UNL     1      43.872 -18.189   2.859  1.00  0.00     0.131 A 
HETATM   29  N   UNL     1      44.373 -18.661   4.022  1.00  0.00    -0.243 NA
HETATM   30  C   UNL     1      44.565 -19.999   4.120  1.00  0.00     0.125 A 
HETATM   31  C   UNL     1      44.295 -20.904   3.102  1.00  0.00    -0.044 A 
HETATM   32  C   UNL     1      44.505 -22.372   3.292  1.00  0.00     0.049 C 
HETATM   33  C   UNL     1      43.767 -20.393   1.919  1.00  0.00     0.012 A 
HETATM   34  C   UNL     1      43.557 -19.021   1.792  1.00  0.00     0.051 A 
ENDBRANCH  24  28
ENDBRANCH  21  22
ENDBRANCH   1  21
TORSDOF 6
ENDMDL
MODEL 4
REMARK VINA RESULT:      -9.1      5.530     10.433
REMARK  6 active torsions:
REMARK  status: ('A' for Active; 'I' for Inactive)
REMARK    1  A    between atoms: C_5  and  N_6 
REMARK       I    between atoms: N_6  and  C_7 
REMARK       I    between atoms: C_7  and  N_8 
REMARK    2  A    between atoms: N_8  and  C_9 
REMARK    3  A    between atoms: C_9  and  C_10 
REMARK       I    between atoms: C_10  and  N_11 
REMARK    4  A    between atoms: N_11  and  N_12 
REMARK       I    between atoms: N_12  and  C_13 
REMARK       I    between atoms: C_13  and  N_14 
REMARK    5  A    between atoms: N_14  and  C_15 
REMARK    6  A    between atoms: C_17  and  C_18 
ROOT
HETATM    1  C   UNL     1      41.824 -13.903   5.396  1.00  0.00     0.253 C 
HETATM    2  N   UNL     1      41.102 -13.061   6.221  1.00  0.00    -0.265 N 
HETATM    3  O   UNL     1      42.471 -13.494   4.432  1.00  0.00    -0.270 OA
HETATM    4  H   UNL     1      40.767 -13.421   7.118  1.00  0.00     0.190 HD
ENDROOT
BRANCH   2   5
HETATM    5  N   UNL     1      41.303 -11.682   6.103  1.00  0.00    -0.249 N 
HETATM    6  C   UNL     1      41.950 -10.933   7.066  1.00  0.00     0.339 C 
HETATM    7  N   UNL     1      42.530 -11.692   8.055  1.00  0.00    -0.308 N 
HETATM    8  O   UNL     1      41.971  -9.711   6.971  1.00  0.00    -0.245 OA
HETATM    9  H   UNL     1      42.280 -12.670   8.021  1.00  0.00     0.170 HD
HETATM   10  H   UNL     1      40.697 -11.174   5.462  1.00  0.00     0.192 HD
BRANCH   7  11
HETATM   11  C   UNL     1      43.317 -11.261   9.137  1.00  0.00     0.037 A 
HETATM   12  C   UNL     1      42.809 -10.589  10.252  1.00  0.00     0.045 A 
HETATM   13  C   UNL     1      43.658 -10.172  11.294  1.00  0.00     0.050 A 
HETATM   14  C   UNL     1      45.029 -10.452  11.210  1.00  0.00     0.016 A 
HETATM   15  C   UNL     1      45.545 -11.120  10.101  1.00  0.00     0.003 A 
HETATM   16  C   UNL     1      44.692 -11.518   9.069  1.00  0.00     0.029 A 
BRANCH  13  17
HETATM   17  C   UNL     1      43.104  -9.462  12.504  1.00  0.00     0.417 C 
HETATM   18  F   UNL     1      43.913  -9.522  13.598  1.00  0.00    -0.166 F 
HETATM   19  F   UNL     1      42.882  -8.139  12.272  1.00  0.00    -0.166 F 
HETATM   20  F   UNL     1      41.905  -9.973  12.906  1.00  0.00    -0.166 F 
ENDBRANCH  13  17
ENDBRANCH   7  11
ENDBRANCH   2   5
BRANCH   1  21
HETATM   21  C   UNL     1      41.609 -15.396   5.663  1.00  0.00     0.228 C 
BRANCH  21  22
HETATM   22  N   UNL     1      42.735 -16.264   5.359  1.00  0.00    -0.334 N 
HETATM   23  C   UNL     1      43.701 -16.582   6.254  1.00  0.00     0.322 C 
HETATM   24  N   UNL     1      44.507 -17.637   5.969  1.00  0.00    -0.293 N 
HETATM   25  O   UNL     1      43.894 -15.910   7.268  1.00  0.00    -0.247 OA
HETATM   26  H   UNL     1      45.241 -17.773   6.649  1.00  0.00     0.172 HD
HETATM   27  H   UNL     1      42.597 -16.974   4.640  1.00  0.00     0.164 HD
BRANCH  24  28
HETATM   28  C   UNL     1      44.415 -18.558   4.920  1.00  0.00     0.131 A 
HETATM   29  N   UNL     1      44.043 -18.143   3.689  1.00  0.00    -0.243 NA
HETATM   30  C   UNL     1      43.952 -19.083   2.717  1.00  0.00     0.125 A 
HETATM   31  C   UNL     1      44.200 -20.436   2.911  1.00  0.00    -0.044 A 
HETATM   32  C   UNL     1      44.107 -21.412   1.782  1.00  0.00     0.049 C 
HETATM   33  C   UNL     1      44.596 -20.834   4.186  1.00  0.00     0.012 A 
HETATM   34  C   UNL     1      44.701 -19.888   5.204  1.00  0.00     0.051 A 
ENDBRANCH  24  28
ENDBRANCH  21  22
ENDBRANCH   1  21
TORSDOF 6
ENDMDL
MODEL 5
REMARK VINA RESULT:      -9.1      4.129      7.296
REMARK  6 active torsions:
REMARK  status: ('A' for Active; 'I' for Inactive)
REMARK    1  A    between atoms: C_5  and  N_6 
REMARK       I    between atoms: N_6  and  C_7 
REMARK       I    between atoms: C_7  and  N_8 
REMARK    2  A    between atoms: N_8  and  C_9 
REMARK    3  A    between atoms: C_9  and  C_10 
REMARK       I    between atoms: C_10  and  N_11 
REMARK    4  A    between atoms: N_11  and  N_12 
REMARK       I    between atoms: N_12  and  C_13 
REMARK       I    between atoms: C_13  and  N_14 
REMARK    5  A    between atoms: N_14  and  C_15 
REMARK    6  A    between atoms: C_17  and  C_18 
ROOT
HETATM    1  C   UNL     1      43.338 -14.080   5.494  1.00  0.00     0.253 C 
HETATM    2  N   UNL     1      43.009 -15.107   6.360  1.00  0.00    -0.265 N 
HETATM    3  O   UNL     1      44.492 -13.676   5.351  1.00  0.00    -0.270 OA
HETATM    4  H   UNL     1      42.086 -15.540   6.279  1.00  0.00     0.190 HD
ENDROOT
BRANCH   2   5
HETATM    5  N   UNL     1      44.045 -15.868   6.911  1.00  0.00    -0.249 N 
HETATM    6  C   UNL     1      44.425 -17.095   6.404  1.00  0.00     0.339 C 
HETATM    7  N   UNL     1      43.818 -17.410   5.212  1.00  0.00    -0.308 N 
HETATM    8  O   UNL     1      45.243 -17.775   7.014  1.00  0.00    -0.245 OA
HETATM    9  H   UNL     1      43.077 -16.775   4.950  1.00  0.00     0.170 HD
HETATM   10  H   UNL     1      44.308 -15.671   7.875  1.00  0.00     0.192 HD
BRANCH   7  11
HETATM   11  C   UNL     1      44.028 -18.535   4.396  1.00  0.00     0.037 A 
HETATM   12  C   UNL     1      44.291 -19.817   4.888  1.00  0.00     0.045 A 
HETATM   13  C   UNL     1      44.507 -20.897   4.013  1.00  0.00     0.050 A 
HETATM   14  C   UNL     1      44.441 -20.678   2.630  1.00  0.00     0.016 A 
HETATM   15  C   UNL     1      44.181 -19.403   2.130  1.00  0.00     0.003 A 
HETATM   16  C   UNL     1      43.979 -18.338   3.011  1.00  0.00     0.029 A 
BRANCH  13  17
HETATM   17  C   UNL     1      44.774 -22.282   4.547  1.00  0.00     0.417 C 
HETATM   18  F   UNL     1      43.846 -22.717   5.443  1.00  0.00    -0.166 F 
HETATM   19  F   UNL     1      44.813 -23.219   3.559  1.00  0.00    -0.166 F 
HETATM   20  F   UNL     1      45.975 -22.372   5.188  1.00  0.00    -0.166 F 
ENDBRANCH  13  17
ENDBRANCH   7  11
ENDBRANCH   2   5
BRANCH   1  21
HETATM   21  C   UNL     1      42.136 -13.365   4.867  1.00  0.00     0.228 C 
BRANCH  21  22
HETATM   22  N   UNL     1      41.387 -14.128   3.882  1.00  0.00    -0.334 N 
HETATM   23  C   UNL     1      40.090 -14.487   4.039  1.00  0.00     0.322 C 
HETATM   24  N   UNL     1      39.410 -14.904   2.940  1.00  0.00    -0.293 N 
HETATM   25  O   UNL     1      39.548 -14.499   5.145  1.00  0.00    -0.247 OA
HETATM   26  H   UNL     1      38.471 -15.215   3.145  1.00  0.00     0.172 HD
HETATM   27  H   UNL     1      41.668 -14.035   2.906  1.00  0.00     0.164 HD
BRANCH  24  28
HETATM   28  C   UNL     1      39.814 -14.902   1.600  1.00  0.00     0.131 A 
HETATM   29  N   UNL     1      40.876 -15.642   1.215  1.00  0.00    -0.243 NA
HETATM   30  C   UNL     1      41.234 -15.586  -0.091  1.00  0.00     0.125 A 
HETATM   31  C   UNL     1      40.590 -14.808  -1.045  1.00  0.00    -0.044 A 
HETATM   32  C   UNL     1      41.024 -14.818  -2.476  1.00  0.00     0.049 C 
HETATM   33  C   UNL     1      39.489 -14.066  -0.624  1.00  0.00     0.012 A 
HETATM   34  C   UNL     1      39.098 -14.108   0.713  1.00  0.00     0.051 A 
ENDBRANCH  24  28
ENDBRANCH  21  22
ENDBRANCH   1  21
TORSDOF 6
ENDMDL
MODEL 6
REMARK VINA RESULT:      -9.0      1.911      2.712
REMARK  6 active torsions:
REMARK  status: ('A' for Active; 'I' for Inactive)
REMARK    1  A    between atoms: C_5  and  N_6 
REMARK       I    between atoms: N_6  and  C_7 
REMARK       I    between atoms: C_7  and  N_8 
REMARK    2  A    between atoms: N_8  and  C_9 
REMARK    3  A    between atoms: C_9  and  C_10 
REMARK       I    between atoms: C_10  and  N_11 
REMARK    4  A    between atoms: N_11  and  N_12 
REMARK       I    between atoms: N_12  and  C_13 
REMARK       I    between atoms: C_13  and  N_14 
REMARK    5  A    between atoms: N_14  and  C_15 
REMARK    6  A    between atoms: C_17  and  C_18 
ROOT
HETATM    1  C   UNL     1      41.164 -13.512   5.264  1.00  0.00     0.253 C 
HETATM    2  N   UNL     1      41.544 -14.088   4.066  1.00  0.00    -0.265 N 
HETATM    3  O   UNL     1      40.100 -13.780   5.823  1.00  0.00    -0.270 OA
HETATM    4  H   UNL     1      42.516 -13.994   3.765  1.00  0.00     0.190 HD
ENDROOT
BRANCH   2   5
HETATM    5  N   UNL     1      40.812 -15.183   3.595  1.00  0.00    -0.249 N 
HETATM    6  C   UNL     1      41.337 -16.458   3.519  1.00  0.00     0.339 C 
HETATM    7  N   UNL     1      42.572 -16.582   4.112  1.00  0.00    -0.308 N 
HETATM    8  O   UNL     1      40.696 -17.345   2.967  1.00  0.00    -0.245 OA
HETATM    9  H   UNL     1      42.983 -15.702   4.388  1.00  0.00     0.170 HD
HETATM   10  H   UNL     1      40.002 -14.988   3.011  1.00  0.00     0.192 HD
BRANCH   7  11
HETATM   11  C   UNL     1      43.349 -17.742   4.276  1.00  0.00     0.037 A 
HETATM   12  C   UNL     1      43.368 -18.803   3.366  1.00  0.00     0.045 A 
HETATM   13  C   UNL     1      44.158 -19.942   3.601  1.00  0.00     0.050 A 
HETATM   14  C   UNL     1      44.947 -19.998   4.759  1.00  0.00     0.016 A 
HETATM   15  C   UNL     1      44.933 -18.946   5.672  1.00  0.00     0.003 A 
HETATM   16  C   UNL     1      44.135 -17.826   5.431  1.00  0.00     0.029 A 
BRANCH  13  17
HETATM   17  C   UNL     1      44.190 -21.078   2.609  1.00  0.00     0.417 C 
HETATM   18  F   UNL     1      43.137 -21.087   1.746  1.00  0.00    -0.166 F 
HETATM   19  F   UNL     1      45.311 -21.060   1.836  1.00  0.00    -0.166 F 
HETATM   20  F   UNL     1      44.179 -22.300   3.215  1.00  0.00    -0.166 F 
ENDBRANCH  13  17
ENDBRANCH   7  11
ENDBRANCH   2   5
BRANCH   1  21
HETATM   21  C   UNL     1      42.079 -12.382   5.748  1.00  0.00     0.228 C 
BRANCH  21  22
HETATM   22  N   UNL     1      42.738 -12.601   7.025  1.00  0.00    -0.334 N 
HETATM   23  C   UNL     1      43.922 -13.247   7.158  1.00  0.00     0.322 C 
HETATM   24  N   UNL     1      44.590 -13.110   8.332  1.00  0.00    -0.293 N 
HETATM   25  O   UNL     1      44.362 -13.987   6.277  1.00  0.00    -0.247 OA
HETATM   26  H   UNL     1      45.429 -13.670   8.382  1.00  0.00     0.172 HD
HETATM   27  H   UNL     1      42.559 -11.923   7.765  1.00  0.00     0.164 HD
BRANCH  24  28
HETATM   28  C   UNL     1      44.301 -12.277   9.419  1.00  0.00     0.131 A 
HETATM   29  N   UNL     1      44.007 -10.975   9.211  1.00  0.00    -0.243 NA
HETATM   30  C   UNL     1      43.755 -10.212  10.302  1.00  0.00     0.125 A 
HETATM   31  C   UNL     1      43.797 -10.679  11.610  1.00  0.00    -0.044 A 
HETATM   32  C   UNL     1      43.480  -9.784  12.765  1.00  0.00     0.049 C 
HETATM   33  C   UNL     1      44.089 -12.029  11.795  1.00  0.00     0.012 A 
HETATM   34  C   UNL     1      44.349 -12.837  10.690  1.00  0.00     0.051 A 
ENDBRANCH  24  28
ENDBRANCH  21  22
ENDBRANCH   1  21
TORSDOF 6
ENDMDL
MODEL 7
REMARK VINA RESULT:      -9.0      6.074     10.053
REMARK  6 active torsions:
REMARK  status: ('A' for Active; 'I' for Inactive)
REMARK    1  A    between atoms: C_5  and  N_6 
REMARK       I    between atoms: N_6  and  C_7 
REMARK       I    between atoms: C_7  and  N_8 
REMARK    2  A    between atoms: N_8  and  C_9 
REMARK    3  A    between atoms: C_9  and  C_10 
REMARK       I    between atoms: C_10  and  N_11 
REMARK    4  A    between atoms: N_11  and  N_12 
REMARK       I    between atoms: N_12  and  C_13 
REMARK       I    between atoms: C_13  and  N_14 
REMARK    5  A    between atoms: N_14  and  C_15 
REMARK    6  A    between atoms: C_17  and  C_18 
ROOT
HETATM    1  C   UNL     1      44.547 -14.301   6.723  1.00  0.00     0.253 C 
HETATM    2  N   UNL     1      44.515 -13.828   8.021  1.00  0.00    -0.265 N 
HETATM    3  O   UNL     1      45.091 -13.687   5.805  1.00  0.00    -0.270 OA
HETATM    4  H   UNL     1      44.246 -14.471   8.770  1.00  0.00     0.190 HD
ENDROOT
BRANCH   2   5
HETATM    5  N   UNL     1      45.329 -12.740   8.352  1.00  0.00    -0.249 N 
HETATM    6  C   UNL     1      44.872 -11.652   9.068  1.00  0.00     0.339 C 
HETATM    7  N   UNL     1      43.605 -11.820   9.576  1.00  0.00    -0.308 N 
HETATM    8  O   UNL     1      45.593 -10.670   9.204  1.00  0.00    -0.245 OA
HETATM    9  H   UNL     1      43.134 -12.646   9.235  1.00  0.00     0.170 HD
HETATM   10  H   UNL     1      46.170 -12.599   7.795  1.00  0.00     0.192 HD
BRANCH   7  11
HETATM   11  C   UNL     1      42.874 -10.949  10.402  1.00  0.00     0.037 A 
HETATM   12  C   UNL     1      43.181 -10.706  11.744  1.00  0.00     0.045 A 
HETATM   13  C   UNL     1      42.396  -9.833  12.518  1.00  0.00     0.050 A 
HETATM   14  C   UNL     1      41.300  -9.191  11.923  1.00  0.00     0.016 A 
HETATM   15  C   UNL     1      40.986  -9.430  10.587  1.00  0.00     0.003 A 
HETATM   16  C   UNL     1      41.768 -10.307   9.833  1.00  0.00     0.029 A 
BRANCH  13  17
HETATM   17  C   UNL     1      42.740  -9.559  13.962  1.00  0.00     0.417 C 
HETATM   18  F   UNL     1      42.568 -10.630  14.783  1.00  0.00    -0.166 F 
HETATM   19  F   UNL     1      44.034  -9.166  14.120  1.00  0.00    -0.166 F 
HETATM   20  F   UNL     1      41.982  -8.558  14.497  1.00  0.00    -0.166 F 
ENDBRANCH  13  17
ENDBRANCH   7  11
ENDBRANCH   2   5
BRANCH   1  21
HETATM   21  C   UNL     1      43.697 -15.553   6.478  1.00  0.00     0.228 C 
BRANCH  21  22
HETATM   22  N   UNL     1      42.398 -15.329   5.866  1.00  0.00    -0.334 N 
HETATM   23  C   UNL     1      41.274 -15.997   6.224  1.00  0.00     0.322 C 
HETATM   24  N   UNL     1      40.080 -15.489   5.824  1.00  0.00    -0.293 N 
HETATM   25  O   UNL     1      41.319 -17.063   6.838  1.00  0.00    -0.247 OA
HETATM   26  H   UNL     1      39.295 -16.072   6.072  1.00  0.00     0.172 HD
HETATM   27  H   UNL     1      42.216 -14.402   5.482  1.00  0.00     0.164 HD
BRANCH  24  28
HETATM   28  C   UNL     1      39.809 -14.273   5.186  1.00  0.00     0.131 A 
HETATM   29  N   UNL     1      39.973 -14.162   3.849  1.00  0.00    -0.243 NA
HETATM   30  C   UNL     1      39.715 -12.956   3.288  1.00  0.00     0.125 A 
HETATM   31  C   UNL     1      39.311 -11.833   4.000  1.00  0.00    -0.044 A 
HETATM   32  C   UNL     1      39.016 -10.540   3.308  1.00  0.00     0.049 C 
HETATM   33  C   UNL     1      39.135 -11.979   5.374  1.00  0.00     0.012 A 
HETATM   34  C   UNL     1      39.391 -13.209   5.976  1.00  0.00     0.051 A 
ENDBRANCH  24  28
ENDBRANCH  21  22
ENDBRANCH   1  21
TORSDOF 6
ENDMDL
MODEL 8
REMARK VINA RESULT:      -8.9      2.889      3.806
REMARK  6 active torsions:
REMARK  status: ('A' for Active; 'I' for Inactive)
REMARK    1  A    between atoms: C_5  and  N_6 
REMARK       I    between atoms: N_6  and  C_7 
REMARK       I    between atoms: C_7  and  N_8 
REMARK    2  A    between atoms: N_8  and  C_9 
REMARK    3  A    between atoms: C_9  and  C_10 
REMARK       I    between atoms: C_10  and  N_11 
REMARK    4  A    between atoms: N_11  and  N_12 
REMARK       I    between atoms: N_12  and  C_13 
REMARK       I    between atoms: C_13  and  N_14 
REMARK    5  A    between atoms: N_14  and  C_15 
REMARK    6  A    between atoms: C_17  and  C_18 
ROOT
HETATM    1  C   UNL     1      39.961 -12.490   6.262  1.00  0.00     0.253 C 
HETATM    2  N   UNL     1      40.770 -13.611   6.260  1.00  0.00    -0.265 N 
HETATM    3  O   UNL     1      38.732 -12.558   6.256  1.00  0.00    -0.270 OA
HETATM    4  H   UNL     1      41.762 -13.499   6.481  1.00  0.00     0.190 HD
ENDROOT
BRANCH   2   5
HETATM    5  N   UNL     1      40.180 -14.856   6.499  1.00  0.00    -0.249 N 
HETATM    6  C   UNL     1      40.812 -16.051   6.220  1.00  0.00     0.339 C 
HETATM    7  N   UNL     1      42.131 -15.906   5.859  1.00  0.00    -0.308 N 
HETATM    8  O   UNL     1      40.190 -17.103   6.321  1.00  0.00    -0.245 OA
HETATM    9  H   UNL     1      42.410 -14.947   5.706  1.00  0.00     0.170 HD
HETATM   10  H   UNL     1      39.166 -14.884   6.581  1.00  0.00     0.192 HD
BRANCH   7  11
HETATM   11  C   UNL     1      43.075 -16.909   5.580  1.00  0.00     0.037 A 
HETATM   12  C   UNL     1      43.132 -17.614   4.375  1.00  0.00     0.045 A 
HETATM   13  C   UNL     1      44.095 -18.618   4.169  1.00  0.00     0.050 A 
HETATM   14  C   UNL     1      45.017 -18.898   5.188  1.00  0.00     0.016 A 
HETATM   15  C   UNL     1      44.967 -18.201   6.394  1.00  0.00     0.003 A 
HETATM   16  C   UNL     1      43.998 -17.214   6.588  1.00  0.00     0.029 A 
BRANCH  13  17
HETATM   17  C   UNL     1      44.165 -19.366   2.861  1.00  0.00     0.417 C 
HETATM   18  F   UNL     1      44.528 -18.593   1.802  1.00  0.00    -0.166 F 
HETATM   19  F   UNL     1      45.055 -20.396   2.900  1.00  0.00    -0.166 F 
HETATM   20  F   UNL     1      42.969 -19.925   2.516  1.00  0.00    -0.166 F 
ENDBRANCH  13  17
ENDBRANCH   7  11
ENDBRANCH   2   5
BRANCH   1  21
HETATM   21  C   UNL     1      40.708 -11.163   6.086  1.00  0.00     0.228 C 
BRANCH  21  22
HETATM   22  N   UNL     1      40.725 -10.286   7.246  1.00  0.00    -0.334 N 
HETATM   23  C   UNL     1      39.652  -9.568   7.659  1.00  0.00     0.322 C 
HETATM   24  N   UNL     1      39.682  -9.049   8.913  1.00  0.00    -0.293 N 
HETATM   25  O   UNL     1      38.700  -9.334   6.914  1.00  0.00    -0.247 OA
HETATM   26  H   UNL     1      38.879  -8.475   9.127  1.00  0.00     0.172 HD
HETATM   27  H   UNL     1      41.374 -10.516   7.996  1.00  0.00     0.164 HD
BRANCH  24  28
HETATM   28  C   UNL     1      40.625  -9.249   9.928  1.00  0.00     0.131 A 
HETATM   29  N   UNL     1      40.976 -10.504  10.283  1.00  0.00    -0.243 NA
HETATM   30  C   UNL     1      41.879 -10.637  11.286  1.00  0.00     0.125 A 
HETATM   31  C   UNL     1      42.447  -9.573  11.974  1.00  0.00    -0.044 A 
HETATM   32  C   UNL     1      43.459  -9.796  13.051  1.00  0.00     0.049 C 
HETATM   33  C   UNL     1      42.078  -8.289  11.577  1.00  0.00     0.012 A 
HETATM   34  C   UNL     1      41.154  -8.123  10.547  1.00  0.00     0.051 A 
ENDBRANCH  24  28
ENDBRANCH  21  22
ENDBRANCH   1  21
TORSDOF 6
ENDMDL
MODEL 9
REMARK VINA RESULT:      -8.9      5.416     10.961
REMARK  6 active torsions:
REMARK  status: ('A' for Active; 'I' for Inactive)
REMARK    1  A    between atoms: C_5  and  N_6 
REMARK       I    between atoms: N_6  and  C_7 
REMARK       I    between atoms: C_7  and  N_8 
REMARK    2  A    between atoms: N_8  and  C_9 
REMARK    3  A    between atoms: C_9  and  C_10 
REMARK       I    between atoms: C_10  and  N_11 
REMARK    4  A    between atoms: N_11  and  N_12 
REMARK       I    between atoms: N_12  and  C_13 
REMARK       I    between atoms: C_13  and  N_14 
REMARK    5  A    between atoms: N_14  and  C_15 
REMARK    6  A    between atoms: C_17  and  C_18 
ROOT
HETATM    1  C   UNL     1      44.651 -14.358   7.264  1.00  0.00     0.253 C 
HETATM    2  N   UNL     1      44.278 -13.495   8.278  1.00  0.00    -0.265 N 
HETATM    3  O   UNL     1      45.567 -14.106   6.480  1.00  0.00    -0.270 OA
HETATM    4  H   UNL     1      43.668 -13.845   9.020  1.00  0.00     0.190 HD
ENDROOT
BRANCH   2   5
HETATM    5  N   UNL     1      45.118 -12.416   8.573  1.00  0.00    -0.249 N 
HETATM    6  C   UNL     1      44.764 -11.408   9.449  1.00  0.00     0.339 C 
HETATM    7  N   UNL     1      43.598 -11.657  10.133  1.00  0.00    -0.308 N 
HETATM    8  O   UNL     1      45.482 -10.421   9.558  1.00  0.00    -0.245 OA
HETATM    9  H   UNL     1      43.091 -12.464   9.797  1.00  0.00     0.170 HD
HETATM   10  H   UNL     1      45.856 -12.202   7.906  1.00  0.00     0.192 HD
BRANCH   7  11
HETATM   11  C   UNL     1      42.994 -10.885  11.140  1.00  0.00     0.037 A 
HETATM   12  C   UNL     1      41.661 -10.468  11.109  1.00  0.00     0.045 A 
HETATM   13  C   UNL     1      41.125  -9.682  12.145  1.00  0.00     0.050 A 
HETATM   14  C   UNL     1      41.944  -9.329  13.227  1.00  0.00     0.016 A 
HETATM   15  C   UNL     1      43.275  -9.738  13.265  1.00  0.00     0.003 A 
HETATM   16  C   UNL     1      43.797 -10.509  12.224  1.00  0.00     0.029 A 
BRANCH  13  17
HETATM   17  C   UNL     1      39.680  -9.248  12.118  1.00  0.00     0.417 C 
HETATM   18  F   UNL     1      38.794 -10.280  12.079  1.00  0.00    -0.166 F 
HETATM   19  F   UNL     1      39.343  -8.502  13.206  1.00  0.00    -0.166 F 
HETATM   20  F   UNL     1      39.389  -8.472  11.033  1.00  0.00    -0.166 F 
ENDBRANCH  13  17
ENDBRANCH   7  11
ENDBRANCH   2   5
BRANCH   1  21
HETATM   21  C   UNL     1      43.721 -15.561   7.077  1.00  0.00     0.228 C 
BRANCH  21  22
HETATM   22  N   UNL     1      43.870 -16.290   5.827  1.00  0.00    -0.334 N 
HETATM   23  C   UNL     1      44.200 -17.602   5.759  1.00  0.00     0.322 C 
HETATM   24  N   UNL     1      43.995 -18.247   4.582  1.00  0.00    -0.293 N 
HETATM   25  O   UNL     1      44.727 -18.191   6.704  1.00  0.00    -0.247 OA
HETATM   26  H   UNL     1      44.324 -19.201   4.586  1.00  0.00     0.172 HD
HETATM   27  H   UNL     1      43.324 -15.965   5.030  1.00  0.00     0.164 HD
BRANCH  24  28
HETATM   28  C   UNL     1      43.357 -17.787   3.424  1.00  0.00     0.131 A 
HETATM   29  N   UNL     1      42.136 -17.215   3.509  1.00  0.00    -0.243 NA
HETATM   30  C   UNL     1      41.558 -16.807   2.354  1.00  0.00     0.125 A 
HETATM   31  C   UNL     1      42.132 -16.953   1.097  1.00  0.00    -0.044 A 
HETATM   32  C   UNL     1      41.447 -16.451  -0.133  1.00  0.00     0.049 C 
HETATM   33  C   UNL     1      43.398 -17.532   1.039  1.00  0.00     0.012 A 
HETATM   34  C   UNL     1      44.017 -17.958   2.213  1.00  0.00     0.051 A 
ENDBRANCH  24  28
ENDBRANCH  21  22
ENDBRANCH   1  21
TORSDOF 6
ENDMDL
MODEL 10
REMARK VINA RESULT:      -8.9      5.521     11.043
REMARK  6 active torsions:
REMARK  status: ('A' for Active; 'I' for Inactive)
REMARK    1  A    between atoms: C_5  and  N_6 
REMARK       I    between atoms: N_6  and  C_7 
REMARK       I    between atoms: C_7  and  N_8 
REMARK    2  A    between atoms: N_8  and  C_9 
REMARK    3  A    between atoms: C_9  and  C_10 
REMARK       I    between atoms: C_10  and  N_11 
REMARK    4  A    between atoms: N_11  and  N_12 
REMARK       I    between atoms: N_12  and  C_13 
REMARK       I    between atoms: C_13  and  N_14 
REMARK    5  A    between atoms: N_14  and  C_15 
REMARK    6  A    between atoms: C_17  and  C_18 
ROOT
HETATM    1  C   UNL     1      44.506 -13.828   7.064  1.00  0.00     0.253 C 
HETATM    2  N   UNL     1      44.007 -13.057   8.097  1.00  0.00    -0.265 N 
HETATM    3  O   UNL     1      45.656 -13.707   6.640  1.00  0.00    -0.270 OA
HETATM    4  H   UNL     1      43.134 -13.345   8.546  1.00  0.00     0.190 HD
ENDROOT
BRANCH   2   5
HETATM    5  N   UNL     1      44.904 -12.284   8.842  1.00  0.00    -0.249 N 
HETATM    6  C   UNL     1      44.510 -11.497   9.906  1.00  0.00     0.339 C 
HETATM    7  N   UNL     1      43.199 -11.684  10.275  1.00  0.00    -0.308 N 
HETATM    8  O   UNL     1      45.318 -10.737  10.428  1.00  0.00    -0.245 OA
HETATM    9  H   UNL     1      42.671 -12.255   9.630  1.00  0.00     0.170 HD
HETATM   10  H   UNL     1      45.793 -12.050   8.406  1.00  0.00     0.192 HD
BRANCH   7  11
HETATM   11  C   UNL     1      42.503 -11.104  11.349  1.00  0.00     0.037 A 
HETATM   12  C   UNL     1      41.336 -10.348  11.206  1.00  0.00     0.045 A 
HETATM   13  C   UNL     1      40.699  -9.783  12.325  1.00  0.00     0.050 A 
HETATM   14  C   UNL     1      41.241  -9.998  13.600  1.00  0.00     0.016 A 
HETATM   15  C   UNL     1      42.405 -10.749  13.752  1.00  0.00     0.003 A 
HETATM   16  C   UNL     1      43.033 -11.295  12.631  1.00  0.00     0.029 A 
BRANCH  13  17
HETATM   17  C   UNL     1      39.430  -8.982  12.169  1.00  0.00     0.417 C 
HETATM   18  F   UNL     1      38.321  -9.741  11.950  1.00  0.00    -0.166 F 
HETATM   19  F   UNL     1      39.157  -8.224  13.266  1.00  0.00    -0.166 F 
HETATM   20  F   UNL     1      39.490  -8.109  11.122  1.00  0.00    -0.166 F 
ENDBRANCH  13  17
ENDBRANCH   7  11
ENDBRANCH   2   5
BRANCH   1  21
HETATM   21  C   UNL     1      43.466 -14.713   6.368  1.00  0.00     0.228 C 
BRANCH  21  22
HETATM   22  N   UNL     1      43.824 -16.115   6.218  1.00  0.00    -0.334 N 
HETATM   23  C   UNL     1      43.670 -17.037   7.199  1.00  0.00     0.322 C 
HETATM   24  N   UNL     1      43.728 -18.348   6.850  1.00  0.00    -0.293 N 
HETATM   25  O   UNL     1      43.541 -16.716   8.380  1.00  0.00    -0.247 OA
HETATM   26  H   UNL     1      43.669 -18.975   7.639  1.00  0.00     0.172 HD
HETATM   27  H   UNL     1      43.786 -16.508   5.279  1.00  0.00     0.164 HD
BRANCH  24  28
HETATM   28  C   UNL     1      43.799 -18.918   5.573  1.00  0.00     0.131 A 
HETATM   29  N   UNL     1      43.073 -18.397   4.560  1.00  0.00    -0.243 NA
HETATM   30  C   UNL     1      43.167 -19.003   3.352  1.00  0.00     0.125 A 
HETATM   31  C   UNL     1      43.943 -20.126   3.097  1.00  0.00    -0.044 A 
HETATM   32  C   UNL     1      44.020 -20.724   1.729  1.00  0.00     0.049 C 
HETATM   33  C   UNL     1      44.693 -20.634   4.156  1.00  0.00     0.012 A 
HETATM   34  C   UNL     1      44.618 -20.029   5.409  1.00  0.00     0.051 A 
ENDBRANCH  24  28
ENDBRANCH  21  22
ENDBRANCH   1  21
TORSDOF 6
ENDMDL
