MODEL 1
REMARK VINA RESULT:      -7.0      0.000      0.000
REMARK  5 active torsions:
REMARK  status: ('A' for Active; 'I' for Inactive)
REMARK    1  A    between atoms: C_3  and  N_4 
REMARK       I    between atoms: N_4  and  C_5 
REMARK       I    between atoms: C_5  and  N_6 
REMARK    2  A    between atoms: N_6  and  C_7 
REMARK    3  A    between atoms: C_7  and  C_8 
REMARK    4  A    between atoms: C_8  and  O_9 
REMARK    5  A    between atoms: O_9  and  C_10 
ROOT
HETATM    1  N   UNL     1      42.966 -18.274   2.197  1.00  0.00    -0.307 N 
HETATM    2  C   UNL     1      43.528 -17.365   1.346  1.00  0.00     0.320 C 
HETATM    3  N   UNL     1      42.678 -16.401   0.884  1.00  0.00    -0.340 N 
HETATM    4  O   UNL     1      44.700 -17.317   0.995  1.00  0.00    -0.247 OA
HETATM    5  H   UNL     1      42.211 -17.888   2.740  1.00  0.00     0.170 HD
HETATM    6  H   UNL     1      43.121 -15.837   0.164  1.00  0.00     0.164 HD
ENDROOT
BRANCH   3   7
HETATM    7  C   UNL     1      41.221 -16.368   0.923  1.00  0.00     0.156 C 
BRANCH   7   8
HETATM    8  C   UNL     1      40.675 -15.408   1.995  1.00  0.00     0.142 C 
HETATM    9  C   UNL     1      39.158 -15.251   1.893  1.00  0.00     0.042 C 
BRANCH   8  10
HETATM   10  O   UNL     1      40.962 -15.940   3.296  1.00  0.00    -0.343 OA
BRANCH  10  11
HETATM   11  C   UNL     1      41.911 -15.312   4.055  1.00  0.00     0.086 A 
HETATM   12  C   UNL     1      42.016 -15.692   5.402  1.00  0.00     0.044 A 
HETATM   13 BR   UNL     1      40.854 -16.993   6.157  1.00  0.00    -0.048 Br
HETATM   14  C   UNL     1      42.978 -15.112   6.234  1.00  0.00     0.022 A 
HETATM   15  C   UNL     1      43.851 -14.154   5.725  1.00  0.00     0.002 A 
HETATM   16  C   UNL     1      43.771 -13.786   4.384  1.00  0.00     0.003 A 
HETATM   17  C   UNL     1      42.812 -14.368   3.550  1.00  0.00     0.038 A 
ENDBRANCH  10  11
ENDBRANCH   8  10
ENDBRANCH   7   8
ENDBRANCH   3   7
BRANCH   1  18
HETATM   18  C   UNL     1      43.560 -19.440   2.741  1.00  0.00     0.059 A 
HETATM   19  C   UNL     1      44.191 -19.564   3.987  1.00  0.00    -0.032 A 
HETATM   20  C   UNL     1      44.407 -18.444   4.963  1.00  0.00     0.050 C 
HETATM   21  C   UNL     1      44.685 -20.830   4.358  1.00  0.00     0.028 A 
HETATM   22  C   UNL     1      44.597 -21.892   3.472  1.00  0.00     0.117 A 
HETATM   23  N   UNL     1      44.059 -21.790   2.246  1.00  0.00    -0.271 NA
HETATM   24  C   UNL     1      43.559 -20.575   1.918  1.00  0.00     0.146 A 
ENDBRANCH   1  18
TORSDOF 5
ENDMDL
MODEL 2
REMARK VINA RESULT:      -6.9      0.941      1.571
REMARK  5 active torsions:
REMARK  status: ('A' for Active; 'I' for Inactive)
REMARK    1  A    between atoms: C_3  and  N_4 
REMARK       I    between atoms: N_4  and  C_5 
REMARK       I    between atoms: C_5  and  N_6 
REMARK    2  A    between atoms: N_6  and  C_7 
REMARK    3  A    between atoms: C_7  and  C_8 
REMARK    4  A    between atoms: C_8  and  O_9 
REMARK    5  A    between atoms: O_9  and  C_10 
ROOT
HETATM    1  N   UNL     1      43.050 -17.959   2.551  1.00  0.00    -0.307 N 
HETATM    2  C   UNL     1      43.512 -17.281   1.458  1.00  0.00     0.320 C 
HETATM    3  N   UNL     1      42.591 -16.487   0.837  1.00  0.00    -0.340 N 
HETATM    4  O   UNL     1      44.654 -17.295   1.015  1.00  0.00    -0.247 OA
HETATM    5  H   UNL     1      42.319 -17.466   3.036  1.00  0.00     0.170 HD
HETATM    6  H   UNL     1      42.958 -16.113  -0.033  1.00  0.00     0.164 HD
ENDROOT
BRANCH   3   7
HETATM    7  C   UNL     1      41.140 -16.480   0.980  1.00  0.00     0.156 C 
BRANCH   7   8
HETATM    8  C   UNL     1      40.641 -15.384   1.938  1.00  0.00     0.142 C 
HETATM    9  C   UNL     1      39.145 -15.120   1.763  1.00  0.00     0.042 C 
BRANCH   8  10
HETATM   10  O   UNL     1      40.842 -15.812   3.292  1.00  0.00    -0.343 OA
BRANCH  10  11
HETATM   11  C   UNL     1      41.826 -15.202   4.022  1.00  0.00     0.086 A 
HETATM   12  C   UNL     1      41.990 -15.611   5.354  1.00  0.00     0.044 A 
HETATM   13 BR   UNL     1      40.859 -16.926   6.132  1.00  0.00    -0.048 Br
HETATM   14  C   UNL     1      42.988 -15.051   6.156  1.00  0.00     0.022 A 
HETATM   15  C   UNL     1      43.841 -14.083   5.629  1.00  0.00     0.002 A 
HETATM   16  C   UNL     1      43.703 -13.686   4.301  1.00  0.00     0.003 A 
HETATM   17  C   UNL     1      42.706 -14.248   3.498  1.00  0.00     0.038 A 
ENDBRANCH  10  11
ENDBRANCH   8  10
ENDBRANCH   7   8
ENDBRANCH   3   7
BRANCH   1  18
HETATM   18  C   UNL     1      43.731 -18.934   3.321  1.00  0.00     0.059 A 
HETATM   19  C   UNL     1      43.992 -20.265   2.962  1.00  0.00    -0.032 A 
HETATM   20  C   UNL     1      43.535 -20.924   1.693  1.00  0.00     0.050 C 
HETATM   21  C   UNL     1      44.723 -21.064   3.861  1.00  0.00     0.028 A 
HETATM   22  C   UNL     1      45.106 -20.549   5.089  1.00  0.00     0.117 A 
HETATM   23  N   UNL     1      44.814 -19.300   5.491  1.00  0.00    -0.271 NA
HETATM   24  C   UNL     1      44.139 -18.534   4.601  1.00  0.00     0.146 A 
ENDBRANCH   1  18
TORSDOF 5
ENDMDL
MODEL 3
REMARK VINA RESULT:      -6.8      2.726      6.414
REMARK  5 active torsions:
REMARK  status: ('A' for Active; 'I' for Inactive)
REMARK    1  A    between atoms: C_3  and  N_4 
REMARK       I    between atoms: N_4  and  C_5 
REMARK       I    between atoms: C_5  and  N_6 
REMARK    2  A    between atoms: N_6  and  C_7 
REMARK    3  A    between atoms: C_7  and  C_8 
REMARK    4  A    between atoms: C_8  and  O_9 
REMARK    5  A    between atoms: O_9  and  C_10 
ROOT
HETATM    1  N   UNL     1      42.420 -16.368   3.850  1.00  0.00    -0.307 N 
HETATM    2  C   UNL     1      41.728 -16.392   5.027  1.00  0.00     0.320 C 
HETATM    3  N   UNL     1      42.098 -17.379   5.897  1.00  0.00    -0.340 N 
HETATM    4  O   UNL     1      40.852 -15.613   5.379  1.00  0.00    -0.247 OA
HETATM    5  H   UNL     1      43.364 -16.705   3.944  1.00  0.00     0.170 HD
HETATM    6  H   UNL     1      41.467 -17.421   6.691  1.00  0.00     0.164 HD
ENDROOT
BRANCH   3   7
HETATM    7  C   UNL     1      42.899 -18.571   5.645  1.00  0.00     0.156 C 
BRANCH   7   8
HETATM    8  C   UNL     1      44.392 -18.256   5.451  1.00  0.00     0.142 C 
HETATM    9  C   UNL     1      45.057 -17.839   6.763  1.00  0.00     0.042 C 
BRANCH   8  10
HETATM   10  O   UNL     1      45.067 -19.434   4.987  1.00  0.00    -0.343 OA
BRANCH  10  11
HETATM   11  C   UNL     1      44.622 -20.022   3.835  1.00  0.00     0.086 A 
HETATM   12  C   UNL     1      44.596 -21.423   3.793  1.00  0.00     0.044 A 
HETATM   13 BR   UNL     1      45.202 -22.469   5.260  1.00  0.00    -0.048 Br
HETATM   14  C   UNL     1      44.131 -22.096   2.659  1.00  0.00     0.022 A 
HETATM   15  C   UNL     1      43.677 -21.372   1.559  1.00  0.00     0.002 A 
HETATM   16  C   UNL     1      43.677 -19.980   1.598  1.00  0.00     0.003 A 
HETATM   17  C   UNL     1      44.138 -19.306   2.733  1.00  0.00     0.038 A 
ENDBRANCH  10  11
ENDBRANCH   8  10
ENDBRANCH   7   8
ENDBRANCH   3   7
BRANCH   1  18
HETATM   18  C   UNL     1      42.187 -15.545   2.720  1.00  0.00     0.059 A 
HETATM   19  C   UNL     1      41.587 -15.921   1.509  1.00  0.00    -0.032 A 
HETATM   20  C   UNL     1      41.129 -17.309   1.165  1.00  0.00     0.050 C 
HETATM   21  C   UNL     1      41.412 -14.933   0.521  1.00  0.00     0.028 A 
HETATM   22  C   UNL     1      41.886 -13.650   0.736  1.00  0.00     0.117 A 
HETATM   23  N   UNL     1      42.524 -13.274   1.857  1.00  0.00    -0.271 NA
HETATM   24  C   UNL     1      42.655 -14.227   2.811  1.00  0.00     0.146 A 
ENDBRANCH   1  18
TORSDOF 5
ENDMDL
MODEL 4
REMARK VINA RESULT:      -6.7      2.522      6.566
REMARK  5 active torsions:
REMARK  status: ('A' for Active; 'I' for Inactive)
REMARK    1  A    between atoms: C_3  and  N_4 
REMARK       I    between atoms: N_4  and  C_5 
REMARK       I    between atoms: C_5  and  N_6 
REMARK    2  A    between atoms: N_6  and  C_7 
REMARK    3  A    between atoms: C_7  and  C_8 
REMARK    4  A    between atoms: C_8  and  O_9 
REMARK    5  A    between atoms: O_9  and  C_10 
ROOT
HETATM    1  N   UNL     1      41.618 -15.523   4.136  1.00  0.00    -0.307 N 
HETATM    2  C   UNL     1      41.526 -16.720   4.789  1.00  0.00     0.320 C 
HETATM    3  N   UNL     1      41.810 -17.818   4.029  1.00  0.00    -0.340 N 
HETATM    4  O   UNL     1      41.250 -16.891   5.969  1.00  0.00    -0.247 OA
HETATM    5  H   UNL     1      42.306 -15.531   3.400  1.00  0.00     0.170 HD
HETATM    6  H   UNL     1      41.602 -18.675   4.533  1.00  0.00     0.164 HD
ENDROOT
BRANCH   3   7
HETATM    7  C   UNL     1      41.906 -17.930   2.578  1.00  0.00     0.156 C 
BRANCH   7   8
HETATM    8  C   UNL     1      43.337 -18.224   2.096  1.00  0.00     0.142 C 
HETATM    9  C   UNL     1      43.972 -17.003   1.431  1.00  0.00     0.042 C 
BRANCH   8  10
HETATM   10  O   UNL     1      44.155 -18.568   3.224  1.00  0.00    -0.343 OA
BRANCH  10  11
HETATM   11  C   UNL     1      44.345 -19.893   3.504  1.00  0.00     0.086 A 
HETATM   12  C   UNL     1      44.550 -20.248   4.846  1.00  0.00     0.044 A 
HETATM   13 BR   UNL     1      44.610 -18.934   6.219  1.00  0.00    -0.048 Br
HETATM   14  C   UNL     1      44.728 -21.584   5.213  1.00  0.00     0.022 A 
HETATM   15  C   UNL     1      44.692 -22.582   4.242  1.00  0.00     0.002 A 
HETATM   16  C   UNL     1      44.466 -22.245   2.909  1.00  0.00     0.003 A 
HETATM   17  C   UNL     1      44.285 -20.908   2.542  1.00  0.00     0.038 A 
ENDBRANCH  10  11
ENDBRANCH   8  10
ENDBRANCH   7   8
ENDBRANCH   3   7
BRANCH   1  18
HETATM   18  C   UNL     1      41.276 -14.237   4.623  1.00  0.00     0.059 A 
HETATM   19  C   UNL     1      42.055 -13.410   5.444  1.00  0.00    -0.032 A 
HETATM   20  C   UNL     1      43.396 -13.772   6.015  1.00  0.00     0.050 C 
HETATM   21  C   UNL     1      41.544 -12.143   5.786  1.00  0.00     0.028 A 
HETATM   22  C   UNL     1      40.277 -11.773   5.365  1.00  0.00     0.117 A 
HETATM   23  N   UNL     1      39.479 -12.569   4.634  1.00  0.00    -0.271 NA
HETATM   24  C   UNL     1      39.998 -13.770   4.286  1.00  0.00     0.146 A 
ENDBRANCH   1  18
TORSDOF 5
ENDMDL
MODEL 5
REMARK VINA RESULT:      -6.6      2.408      5.735
REMARK  5 active torsions:
REMARK  status: ('A' for Active; 'I' for Inactive)
REMARK    1  A    between atoms: C_3  and  N_4 
REMARK       I    between atoms: N_4  and  C_5 
REMARK       I    between atoms: C_5  and  N_6 
REMARK    2  A    between atoms: N_6  and  C_7 
REMARK    3  A    between atoms: C_7  and  C_8 
REMARK    4  A    between atoms: C_8  and  O_9 
REMARK    5  A    between atoms: O_9  and  C_10 
ROOT
HETATM    1  N   UNL     1      42.354 -16.503   3.254  1.00  0.00    -0.307 N 
HETATM    2  C   UNL     1      41.541 -17.081   2.321  1.00  0.00     0.320 C 
HETATM    3  N   UNL     1      42.044 -18.206   1.731  1.00  0.00    -0.340 N 
HETATM    4  O   UNL     1      40.420 -16.712   1.995  1.00  0.00    -0.247 OA
HETATM    5  H   UNL     1      42.938 -17.171   3.731  1.00  0.00     0.170 HD
HETATM    6  H   UNL     1      41.453 -18.512   0.964  1.00  0.00     0.164 HD
ENDROOT
BRANCH   3   7
HETATM    7  C   UNL     1      43.413 -18.707   1.730  1.00  0.00     0.156 C 
BRANCH   7   8
HETATM    8  C   UNL     1      43.578 -19.992   2.561  1.00  0.00     0.142 C 
HETATM    9  C   UNL     1      43.954 -21.187   1.686  1.00  0.00     0.042 C 
BRANCH   8  10
HETATM   10  O   UNL     1      44.639 -19.808   3.509  1.00  0.00    -0.343 OA
BRANCH  10  11
HETATM   11  C   UNL     1      44.305 -19.608   4.821  1.00  0.00     0.086 A 
HETATM   12  C   UNL     1      44.354 -20.719   5.677  1.00  0.00     0.044 A 
HETATM   13 BR   UNL     1      44.819 -22.445   5.032  1.00  0.00    -0.048 Br
HETATM   14  C   UNL     1      44.050 -20.589   7.035  1.00  0.00     0.022 A 
HETATM   15  C   UNL     1      43.703 -19.343   7.553  1.00  0.00     0.002 A 
HETATM   16  C   UNL     1      43.672 -18.229   6.717  1.00  0.00     0.003 A 
HETATM   17  C   UNL     1      43.980 -18.357   5.360  1.00  0.00     0.038 A 
ENDBRANCH  10  11
ENDBRANCH   8  10
ENDBRANCH   7   8
ENDBRANCH   3   7
BRANCH   1  18
HETATM   18  C   UNL     1      42.157 -15.280   3.941  1.00  0.00     0.059 A 
HETATM   19  C   UNL     1      41.471 -15.089   5.150  1.00  0.00    -0.032 A 
HETATM   20  C   UNL     1      40.756 -16.164   5.917  1.00  0.00     0.050 C 
HETATM   21  C   UNL     1      41.423 -13.790   5.688  1.00  0.00     0.028 A 
HETATM   22  C   UNL     1      41.989 -12.733   4.993  1.00  0.00     0.117 A 
HETATM   23  N   UNL     1      42.594 -12.871   3.802  1.00  0.00    -0.271 NA
HETATM   24  C   UNL     1      42.661 -14.132   3.314  1.00  0.00     0.146 A 
ENDBRANCH   1  18
TORSDOF 5
ENDMDL
MODEL 6
REMARK VINA RESULT:      -6.6      2.607      4.275
REMARK  5 active torsions:
REMARK  status: ('A' for Active; 'I' for Inactive)
REMARK    1  A    between atoms: C_3  and  N_4 
REMARK       I    between atoms: N_4  and  C_5 
REMARK       I    between atoms: C_5  and  N_6 
REMARK    2  A    between atoms: N_6  and  C_7 
REMARK    3  A    between atoms: C_7  and  C_8 
REMARK    4  A    between atoms: C_8  and  O_9 
REMARK    5  A    between atoms: O_9  and  C_10 
ROOT
HETATM    1  N   UNL     1      44.241 -19.424   4.963  1.00  0.00    -0.307 N 
HETATM    2  C   UNL     1      44.073 -19.753   6.279  1.00  0.00     0.320 C 
HETATM    3  N   UNL     1      44.277 -18.731   7.162  1.00  0.00    -0.340 N 
HETATM    4  O   UNL     1      43.735 -20.841   6.725  1.00  0.00    -0.247 OA
HETATM    5  H   UNL     1      44.013 -18.463   4.768  1.00  0.00     0.170 HD
HETATM    6  H   UNL     1      44.262 -19.068   8.120  1.00  0.00     0.164 HD
ENDROOT
BRANCH   3   7
HETATM    7  C   UNL     1      44.924 -17.443   6.941  1.00  0.00     0.156 C 
BRANCH   7   8
HETATM    8  C   UNL     1      43.917 -16.292   6.769  1.00  0.00     0.142 C 
HETATM    9  C   UNL     1      44.605 -14.928   6.815  1.00  0.00     0.042 C 
BRANCH   8  10
HETATM   10  O   UNL     1      43.282 -16.407   5.488  1.00  0.00    -0.343 OA
BRANCH  10  11
HETATM   11  C   UNL     1      42.164 -15.655   5.252  1.00  0.00     0.086 A 
HETATM   12  C   UNL     1      42.109 -14.939   4.048  1.00  0.00     0.044 A 
HETATM   13 BR   UNL     1      43.551 -14.970   2.810  1.00  0.00    -0.048 Br
HETATM   14  C   UNL     1      40.988 -14.168   3.725  1.00  0.00     0.022 A 
HETATM   15  C   UNL     1      39.907 -14.114   4.601  1.00  0.00     0.002 A 
HETATM   16  C   UNL     1      39.940 -14.839   5.790  1.00  0.00     0.003 A 
HETATM   17  C   UNL     1      41.059 -15.614   6.111  1.00  0.00     0.038 A 
ENDBRANCH  10  11
ENDBRANCH   8  10
ENDBRANCH   7   8
ENDBRANCH   3   7
BRANCH   1  18
HETATM   18  C   UNL     1      44.211 -20.287   3.840  1.00  0.00     0.059 A 
HETATM   19  C   UNL     1      43.715 -19.994   2.561  1.00  0.00    -0.032 A 
HETATM   20  C   UNL     1      43.058 -18.704   2.163  1.00  0.00     0.050 C 
HETATM   21  C   UNL     1      43.816 -20.986   1.567  1.00  0.00     0.028 A 
HETATM   22  C   UNL     1      44.334 -22.231   1.884  1.00  0.00     0.117 A 
HETATM   23  N   UNL     1      44.757 -22.566   3.114  1.00  0.00    -0.271 NA
HETATM   24  C   UNL     1      44.684 -21.590   4.051  1.00  0.00     0.146 A 
ENDBRANCH   1  18
TORSDOF 5
ENDMDL
MODEL 7
REMARK VINA RESULT:      -6.6      3.517      7.417
REMARK  5 active torsions:
REMARK  status: ('A' for Active; 'I' for Inactive)
REMARK    1  A    between atoms: C_3  and  N_4 
REMARK       I    between atoms: N_4  and  C_5 
REMARK       I    between atoms: C_5  and  N_6 
REMARK    2  A    between atoms: N_6  and  C_7 
REMARK    3  A    between atoms: C_7  and  C_8 
REMARK    4  A    between atoms: C_8  and  O_9 
REMARK    5  A    between atoms: O_9  and  C_10 
ROOT
HETATM    1  N   UNL     1      40.181 -14.900  -1.058  1.00  0.00    -0.307 N 
HETATM    2  C   UNL     1      41.425 -14.419  -0.763  1.00  0.00     0.320 C 
HETATM    3  N   UNL     1      42.130 -15.155   0.147  1.00  0.00    -0.340 N 
HETATM    4  O   UNL     1      41.965 -13.434  -1.250  1.00  0.00    -0.247 OA
HETATM    5  H   UNL     1      40.121 -15.902  -0.983  1.00  0.00     0.170 HD
HETATM    6  H   UNL     1      42.987 -14.680   0.416  1.00  0.00     0.164 HD
ENDROOT
BRANCH   3   7
HETATM    7  C   UNL     1      41.653 -16.189   1.057  1.00  0.00     0.156 C 
BRANCH   7   8
HETATM    8  C   UNL     1      42.610 -17.390   1.149  1.00  0.00     0.142 C 
HETATM    9  C   UNL     1      44.054 -16.945   1.382  1.00  0.00     0.042 C 
BRANCH   8  10
HETATM   10  O   UNL     1      42.233 -18.212   2.263  1.00  0.00    -0.343 OA
BRANCH  10  11
HETATM   11  C   UNL     1      43.087 -19.209   2.648  1.00  0.00     0.086 A 
HETATM   12  C   UNL     1      43.685 -19.096   3.911  1.00  0.00     0.044 A 
HETATM   13 BR   UNL     1      43.363 -17.591   5.028  1.00  0.00    -0.048 Br
HETATM   14  C   UNL     1      44.550 -20.086   4.384  1.00  0.00     0.022 A 
HETATM   15  C   UNL     1      44.817 -21.207   3.601  1.00  0.00     0.002 A 
HETATM   16  C   UNL     1      44.211 -21.342   2.354  1.00  0.00     0.003 A 
HETATM   17  C   UNL     1      43.343 -20.353   1.882  1.00  0.00     0.038 A 
ENDBRANCH  10  11
ENDBRANCH   8  10
ENDBRANCH   7   8
ENDBRANCH   3   7
BRANCH   1  18
HETATM   18  C   UNL     1      39.185 -14.298  -1.867  1.00  0.00     0.059 A 
HETATM   19  C   UNL     1      38.732 -14.740  -3.119  1.00  0.00    -0.032 A 
HETATM   20  C   UNL     1      39.276 -15.922  -3.868  1.00  0.00     0.050 C 
HETATM   21  C   UNL     1      37.699 -14.016  -3.744  1.00  0.00     0.028 A 
HETATM   22  C   UNL     1      37.206 -12.865  -3.151  1.00  0.00     0.117 A 
HETATM   23  N   UNL     1      37.664 -12.378  -1.986  1.00  0.00    -0.271 NA
HETATM   24  C   UNL     1      38.634 -13.105  -1.381  1.00  0.00     0.146 A 
ENDBRANCH   1  18
TORSDOF 5
ENDMDL
MODEL 8
REMARK VINA RESULT:      -6.6      2.644      4.085
REMARK  5 active torsions:
REMARK  status: ('A' for Active; 'I' for Inactive)
REMARK    1  A    between atoms: C_3  and  N_4 
REMARK       I    between atoms: N_4  and  C_5 
REMARK       I    between atoms: C_5  and  N_6 
REMARK    2  A    between atoms: N_6  and  C_7 
REMARK    3  A    between atoms: C_7  and  C_8 
REMARK    4  A    between atoms: C_8  and  O_9 
REMARK    5  A    between atoms: O_9  and  C_10 
ROOT
HETATM    1  N   UNL     1      42.740 -18.028   5.875  1.00  0.00    -0.307 N 
HETATM    2  C   UNL     1      43.179 -16.823   6.344  1.00  0.00     0.320 C 
HETATM    3  N   UNL     1      42.196 -15.913   6.615  1.00  0.00    -0.340 N 
HETATM    4  O   UNL     1      44.339 -16.502   6.569  1.00  0.00    -0.247 OA
HETATM    5  H   UNL     1      41.830 -18.277   6.227  1.00  0.00     0.170 HD
HETATM    6  H   UNL     1      42.591 -15.004   6.837  1.00  0.00     0.164 HD
ENDROOT
BRANCH   3   7
HETATM    7  C   UNL     1      40.797 -15.927   6.207  1.00  0.00     0.156 C 
BRANCH   7   8
HETATM    8  C   UNL     1      40.520 -15.018   4.997  1.00  0.00     0.142 C 
HETATM    9  C   UNL     1      40.283 -13.568   5.421  1.00  0.00     0.042 C 
BRANCH   8  10
HETATM   10  O   UNL     1      41.661 -15.026   4.128  1.00  0.00    -0.343 OA
BRANCH  10  11
HETATM   11  C   UNL     1      41.528 -15.600   2.893  1.00  0.00     0.086 A 
HETATM   12  C   UNL     1      41.717 -14.776   1.774  1.00  0.00     0.044 A 
HETATM   13 BR   UNL     1      42.096 -12.923   1.962  1.00  0.00    -0.048 Br
HETATM   14  C   UNL     1      41.621 -15.295   0.480  1.00  0.00     0.022 A 
HETATM   15  C   UNL     1      41.345 -16.647   0.292  1.00  0.00     0.002 A 
HETATM   16  C   UNL     1      41.178 -17.480   1.396  1.00  0.00     0.003 A 
HETATM   17  C   UNL     1      41.278 -16.962   2.691  1.00  0.00     0.038 A 
ENDBRANCH  10  11
ENDBRANCH   8  10
ENDBRANCH   7   8
ENDBRANCH   3   7
BRANCH   1  18
HETATM   18  C   UNL     1      43.518 -19.115   5.405  1.00  0.00     0.059 A 
HETATM   19  C   UNL     1      43.913 -20.248   6.130  1.00  0.00    -0.032 A 
HETATM   20  C   UNL     1      43.625 -20.489   7.584  1.00  0.00     0.050 C 
HETATM   21  C   UNL     1      44.657 -21.239   5.460  1.00  0.00     0.028 A 
HETATM   22  C   UNL     1      45.032 -21.047   4.141  1.00  0.00     0.117 A 
HETATM   23  N   UNL     1      44.727 -19.943   3.438  1.00  0.00    -0.271 NA
HETATM   24  C   UNL     1      43.983 -19.015   4.086  1.00  0.00     0.146 A 
ENDBRANCH   1  18
TORSDOF 5
ENDMDL
MODEL 9
REMARK VINA RESULT:      -6.5      2.651      6.237
REMARK  5 active torsions:
REMARK  status: ('A' for Active; 'I' for Inactive)
REMARK    1  A    between atoms: C_3  and  N_4 
REMARK       I    between atoms: N_4  and  C_5 
REMARK       I    between atoms: C_5  and  N_6 
REMARK    2  A    between atoms: N_6  and  C_7 
REMARK    3  A    between atoms: C_7  and  C_8 
REMARK    4  A    between atoms: C_8  and  O_9 
REMARK    5  A    between atoms: O_9  and  C_10 
ROOT
HETATM    1  N   UNL     1      41.785 -14.886   3.157  1.00  0.00    -0.307 N 
HETATM    2  C   UNL     1      42.981 -14.405   3.609  1.00  0.00     0.320 C 
HETATM    3  N   UNL     1      43.410 -14.937   4.792  1.00  0.00    -0.340 N 
HETATM    4  O   UNL     1      43.701 -13.587   3.050  1.00  0.00    -0.247 OA
HETATM    5  H   UNL     1      41.617 -15.839   3.436  1.00  0.00     0.170 HD
HETATM    6  H   UNL     1      44.234 -14.450   5.134  1.00  0.00     0.164 HD
ENDROOT
BRANCH   3   7
HETATM    7  C   UNL     1      42.661 -15.706   5.777  1.00  0.00     0.156 C 
BRANCH   7   8
HETATM    8  C   UNL     1      42.712 -17.221   5.516  1.00  0.00     0.142 C 
HETATM    9  C   UNL     1      41.349 -17.768   5.093  1.00  0.00     0.042 C 
BRANCH   8  10
HETATM   10  O   UNL     1      43.628 -17.485   4.443  1.00  0.00    -0.343 OA
BRANCH  10  11
HETATM   11  C   UNL     1      43.993 -18.783   4.211  1.00  0.00     0.086 A 
HETATM   12  C   UNL     1      44.021 -19.218   2.878  1.00  0.00     0.044 A 
HETATM   13 BR   UNL     1      43.523 -18.066   1.450  1.00  0.00    -0.048 Br
HETATM   14  C   UNL     1      44.407 -20.523   2.560  1.00  0.00     0.022 A 
HETATM   15  C   UNL     1      44.780 -21.403   3.572  1.00  0.00     0.002 A 
HETATM   16  C   UNL     1      44.779 -20.976   4.898  1.00  0.00     0.003 A 
HETATM   17  C   UNL     1      44.396 -19.669   5.217  1.00  0.00     0.038 A 
ENDBRANCH  10  11
ENDBRANCH   8  10
ENDBRANCH   7   8
ENDBRANCH   3   7
BRANCH   1  18
HETATM   18  C   UNL     1      41.039 -14.449   2.035  1.00  0.00     0.059 A 
HETATM   19  C   UNL     1      40.017 -13.489   2.022  1.00  0.00    -0.032 A 
HETATM   20  C   UNL     1      39.478 -12.781   3.232  1.00  0.00     0.050 C 
HETATM   21  C   UNL     1      39.425 -13.167   0.786  1.00  0.00     0.028 A 
HETATM   22  C   UNL     1      39.812 -13.840  -0.362  1.00  0.00     0.117 A 
HETATM   23  N   UNL     1      40.741 -14.811  -0.372  1.00  0.00    -0.271 NA
HETATM   24  C   UNL     1      41.324 -15.085   0.819  1.00  0.00     0.146 A 
ENDBRANCH   1  18
TORSDOF 5
ENDMDL
MODEL 10
REMARK VINA RESULT:      -6.5      2.593      6.932
REMARK  5 active torsions:
REMARK  status: ('A' for Active; 'I' for Inactive)
REMARK    1  A    between atoms: C_3  and  N_4 
REMARK       I    between atoms: N_4  and  C_5 
REMARK       I    between atoms: C_5  and  N_6 
REMARK    2  A    between atoms: N_6  and  C_7 
REMARK    3  A    between atoms: C_7  and  C_8 
REMARK    4  A    between atoms: C_8  and  O_9 
REMARK    5  A    between atoms: O_9  and  C_10 
ROOT
HETATM    1  N   UNL     1      41.220 -14.917   1.851  1.00  0.00    -0.307 N 
HETATM    2  C   UNL     1      40.439 -15.963   2.254  1.00  0.00     0.320 C 
HETATM    3  N   UNL     1      41.067 -16.886   3.041  1.00  0.00    -0.340 N 
HETATM    4  O   UNL     1      39.251 -16.129   2.009  1.00  0.00    -0.247 OA
HETATM    5  H   UNL     1      41.939 -14.687   2.517  1.00  0.00     0.170 HD
HETATM    6  H   UNL     1      40.474 -17.695   3.201  1.00  0.00     0.164 HD
ENDROOT
BRANCH   3   7
HETATM    7  C   UNL     1      42.494 -17.079   3.268  1.00  0.00     0.156 C 
BRANCH   7   8
HETATM    8  C   UNL     1      43.100 -18.168   2.366  1.00  0.00     0.142 C 
HETATM    9  C   UNL     1      43.389 -17.642   0.960  1.00  0.00     0.042 C 
BRANCH   8  10
HETATM   10  O   UNL     1      44.348 -18.603   2.923  1.00  0.00    -0.343 OA
BRANCH  10  11
HETATM   11  C   UNL     1      44.460 -19.910   3.314  1.00  0.00     0.086 A 
HETATM   12  C   UNL     1      44.649 -20.162   4.681  1.00  0.00     0.044 A 
HETATM   13 BR   UNL     1      44.794 -18.744   5.938  1.00  0.00    -0.048 Br
HETATM   14  C   UNL     1      44.749 -21.471   5.159  1.00  0.00     0.022 A 
HETATM   15  C   UNL     1      44.649 -22.543   4.276  1.00  0.00     0.002 A 
HETATM   16  C   UNL     1      44.438 -22.306   2.919  1.00  0.00     0.003 A 
HETATM   17  C   UNL     1      44.335 -20.997   2.441  1.00  0.00     0.038 A 
ENDBRANCH  10  11
ENDBRANCH   8  10
ENDBRANCH   7   8
ENDBRANCH   3   7
BRANCH   1  18
HETATM   18  C   UNL     1      40.884 -13.879   0.947  1.00  0.00     0.059 A 
HETATM   19  C   UNL     1      40.767 -13.977  -0.447  1.00  0.00    -0.032 A 
HETATM   20  C   UNL     1      41.041 -15.213  -1.254  1.00  0.00     0.050 C 
HETATM   21  C   UNL     1      40.383 -12.827  -1.163  1.00  0.00     0.028 A 
HETATM   22  C   UNL     1      40.195 -11.628  -0.495  1.00  0.00     0.117 A 
HETATM   23  N   UNL     1      40.364 -11.485   0.830  1.00  0.00    -0.271 NA
HETATM   24  C   UNL     1      40.701 -12.608   1.509  1.00  0.00     0.146 A 
ENDBRANCH   1  18
TORSDOF 5
ENDMDL
