MODEL 1
REMARK VINA RESULT:      -8.4      0.000      0.000
REMARK  5 active torsions:
REMARK  status: ('A' for Active; 'I' for Inactive)
REMARK    1  A    between atoms: C_4  and  N_5 
REMARK    2  A    between atoms: C_6  and  O_7 
REMARK    3  A    between atoms: C_6  and  C_8 
REMARK       I    between atoms: C_8  and  N_9 
REMARK    4  A    between atoms: N_9  and  C_10 
REMARK    5  A    between atoms: C_10  and  C_11 
ROOT
HETATM    1  N   UNL     1      41.491 -14.353   2.545  1.00  0.00    -0.254 N 
HETATM    2  C   UNL     1      41.774 -15.620   3.240  1.00  0.00     0.256 C 
HETATM    3  C   UNL     1      42.546 -15.412   4.524  1.00  0.00     0.035 A 
HETATM    4  C   UNL     1      43.407 -14.322   4.584  1.00  0.00     0.048 A 
HETATM    5  N   UNL     1      43.439 -13.446   3.504  1.00  0.00    -0.308 N 
HETATM    6  C   UNL     1      42.493 -13.387   2.511  1.00  0.00     0.330 C 
HETATM    7  O   UNL     1      42.570 -12.443   1.726  1.00  0.00    -0.246 OA
HETATM    8  C   UNL     1      42.516 -16.312   5.602  1.00  0.00     0.034 A 
HETATM    9  C   UNL     1      43.333 -16.098   6.711  1.00  0.00     0.011 A 
HETATM   10 BR   UNL     1      43.281 -17.307   8.162  1.00  0.00    -0.051 Br
HETATM   11  C   UNL     1      44.197 -15.004   6.755  1.00  0.00     0.021 A 
HETATM   12  C   UNL     1      44.241 -14.113   5.682  1.00  0.00     0.031 A 
HETATM   13  H   UNL     1      44.064 -12.648   3.516  1.00  0.00     0.170 HD
ENDROOT
BRANCH   2  14
HETATM   14  O   UNL     1      40.566 -16.304   3.593  1.00  0.00    -0.359 OA
HETATM   15  H   UNL     1      40.767 -16.716   4.458  1.00  0.00     0.213 HD
ENDBRANCH   2  14
BRANCH   2  16
HETATM   16  C   UNL     1      42.572 -16.575   2.254  1.00  0.00     0.279 C 
HETATM   17  N   UNL     1      42.414 -17.935   2.410  1.00  0.00    -0.352 N 
HETATM   18  H   UNL     1      41.800 -18.297   3.130  1.00  0.00     0.162 HD
HETATM   19  O   UNL     1      43.318 -16.106   1.387  1.00  0.00    -0.268 OA
BRANCH  17  20
HETATM   20  C   UNL     1      42.970 -18.868   1.461  1.00  0.00     0.168 C 
BRANCH  20  21
HETATM   21  C   UNL     1      43.609 -19.994   2.212  1.00  0.00     0.000 A 
HETATM   22  S   UNL     1      44.293 -19.719   3.763  1.00  0.00    -0.105 SA
HETATM   23  C   UNL     1      44.761 -21.356   3.918  1.00  0.00     0.050 A 
HETATM   24  C   UNL     1      44.406 -22.102   2.818  1.00  0.00     0.008 A 
HETATM   25  C   UNL     1      43.742 -21.316   1.831  1.00  0.00     0.017 A 
ENDBRANCH  20  21
ENDBRANCH  17  20
ENDBRANCH   2  16
BRANCH   1  26
HETATM   26  C   UNL     1      40.376 -14.262   1.648  1.00  0.00     0.042 A 
HETATM   27  C   UNL     1      40.513 -14.503   0.275  1.00  0.00     0.030 A 
HETATM   28  C   UNL     1      39.421 -14.370  -0.590  1.00  0.00     0.002 A 
HETATM   29  C   UNL     1      38.178 -13.982  -0.096  1.00  0.00     0.000 A 
HETATM   30  C   UNL     1      38.028 -13.719   1.261  1.00  0.00     0.002 A 
HETATM   31  C   UNL     1      39.121 -13.851   2.123  1.00  0.00     0.030 A 
ENDBRANCH   1  26
TORSDOF 5
ENDMDL
MODEL 2
REMARK VINA RESULT:      -8.2      3.477      6.760
REMARK  5 active torsions:
REMARK  status: ('A' for Active; 'I' for Inactive)
REMARK    1  A    between atoms: C_4  and  N_5 
REMARK    2  A    between atoms: C_6  and  O_7 
REMARK    3  A    between atoms: C_6  and  C_8 
REMARK       I    between atoms: C_8  and  N_9 
REMARK    4  A    between atoms: N_9  and  C_10 
REMARK    5  A    between atoms: C_10  and  C_11 
ROOT
HETATM    1  N   UNL     1      42.025 -15.781   5.525  1.00  0.00    -0.254 N 
HETATM    2  C   UNL     1      42.096 -14.632   4.606  1.00  0.00     0.256 C 
HETATM    3  C   UNL     1      41.387 -13.413   5.154  1.00  0.00     0.035 A 
HETATM    4  C   UNL     1      40.301 -13.628   5.996  1.00  0.00     0.048 A 
HETATM    5  N   UNL     1      39.991 -14.936   6.352  1.00  0.00    -0.308 N 
HETATM    6  C   UNL     1      40.826 -16.014   6.192  1.00  0.00     0.330 C 
HETATM    7  O   UNL     1      40.476 -17.070   6.717  1.00  0.00    -0.246 OA
HETATM    8  C   UNL     1      41.701 -12.098   4.775  1.00  0.00     0.034 A 
HETATM    9  C   UNL     1      40.936 -11.034   5.251  1.00  0.00     0.011 A 
HETATM   10 BR   UNL     1      41.369  -9.266   4.745  1.00  0.00    -0.051 Br
HETATM   11  C   UNL     1      39.845 -11.265   6.089  1.00  0.00     0.021 A 
HETATM   12  C   UNL     1      39.521 -12.570   6.459  1.00  0.00     0.031 A 
HETATM   13  H   UNL     1      39.199 -15.123   6.957  1.00  0.00     0.170 HD
ENDROOT
BRANCH   2  14
HETATM   14  O   UNL     1      43.451 -14.243   4.357  1.00  0.00    -0.359 OA
HETATM   15  H   UNL     1      43.985 -14.937   4.795  1.00  0.00     0.213 HD
ENDBRANCH   2  14
BRANCH   2  16
HETATM   16  C   UNL     1      41.476 -15.060   3.208  1.00  0.00     0.279 C 
HETATM   17  N   UNL     1      40.103 -15.119   3.106  1.00  0.00    -0.352 N 
HETATM   18  H   UNL     1      39.523 -14.885   3.902  1.00  0.00     0.162 HD
HETATM   19  O   UNL     1      42.208 -15.344   2.254  1.00  0.00    -0.268 OA
BRANCH  17  20
HETATM   20  C   UNL     1      39.454 -15.339   1.836  1.00  0.00     0.168 C 
BRANCH  20  21
HETATM   21  C   UNL     1      38.622 -14.140   1.507  1.00  0.00     0.000 A 
HETATM   22  S   UNL     1      38.972 -12.622   2.229  1.00  0.00    -0.105 SA
HETATM   23  C   UNL     1      37.687 -11.859   1.398  1.00  0.00     0.050 A 
HETATM   24  C   UNL     1      37.003 -12.735   0.587  1.00  0.00     0.008 A 
HETATM   25  C   UNL     1      37.541 -14.053   0.650  1.00  0.00     0.017 A 
ENDBRANCH  20  21
ENDBRANCH  17  20
ENDBRANCH   2  16
BRANCH   1  26
HETATM   26  C   UNL     1      43.024 -16.808   5.463  1.00  0.00     0.042 A 
HETATM   27  C   UNL     1      42.972 -17.829   4.505  1.00  0.00     0.030 A 
HETATM   28  C   UNL     1      43.934 -18.846   4.487  1.00  0.00     0.002 A 
HETATM   29  C   UNL     1      44.954 -18.864   5.434  1.00  0.00     0.000 A 
HETATM   30  C   UNL     1      45.009 -17.870   6.405  1.00  0.00     0.002 A 
HETATM   31  C   UNL     1      44.047 -16.856   6.423  1.00  0.00     0.030 A 
ENDBRANCH   1  26
TORSDOF 5
ENDMDL
MODEL 3
REMARK VINA RESULT:      -8.1      3.307      6.289
REMARK  5 active torsions:
REMARK  status: ('A' for Active; 'I' for Inactive)
REMARK    1  A    between atoms: C_4  and  N_5 
REMARK    2  A    between atoms: C_6  and  O_7 
REMARK    3  A    between atoms: C_6  and  C_8 
REMARK       I    between atoms: C_8  and  N_9 
REMARK    4  A    between atoms: N_9  and  C_10 
REMARK    5  A    between atoms: C_10  and  C_11 
ROOT
HETATM    1  N   UNL     1      41.923 -16.031   5.132  1.00  0.00    -0.254 N 
HETATM    2  C   UNL     1      41.882 -15.068   4.019  1.00  0.00     0.256 C 
HETATM    3  C   UNL     1      41.090 -13.825   4.364  1.00  0.00     0.035 A 
HETATM    4  C   UNL     1      40.043 -13.964   5.269  1.00  0.00     0.048 A 
HETATM    5  N   UNL     1      39.846 -15.205   5.864  1.00  0.00    -0.308 N 
HETATM    6  C   UNL     1      40.760 -16.228   5.872  1.00  0.00     0.330 C 
HETATM    7  O   UNL     1      40.507 -17.195   6.589  1.00  0.00    -0.246 OA
HETATM    8  C   UNL     1      41.291 -12.581   3.744  1.00  0.00     0.034 A 
HETATM    9  C   UNL     1      40.453 -11.509   4.048  1.00  0.00     0.011 A 
HETATM   10 BR   UNL     1      40.734  -9.834   3.218  1.00  0.00    -0.051 Br
HETATM   11  C   UNL     1      39.403 -11.663   4.952  1.00  0.00     0.021 A 
HETATM   12  C   UNL     1      39.191 -12.900   5.561  1.00  0.00     0.031 A 
HETATM   13  H   UNL     1      39.084 -15.337   6.521  1.00  0.00     0.170 HD
ENDROOT
BRANCH   2  14
HETATM   14  O   UNL     1      43.197 -14.630   3.657  1.00  0.00    -0.359 OA
HETATM   15  H   UNL     1      43.199 -14.657   2.679  1.00  0.00     0.213 HD
ENDBRANCH   2  14
BRANCH   2  16
HETATM   16  C   UNL     1      41.270 -15.788   2.744  1.00  0.00     0.279 C 
HETATM   17  N   UNL     1      41.939 -15.650   1.547  1.00  0.00    -0.352 N 
HETATM   18  H   UNL     1      42.796 -15.113   1.501  1.00  0.00     0.162 HD
HETATM   19  O   UNL     1      40.220 -16.434   2.827  1.00  0.00    -0.268 OA
BRANCH  17  20
HETATM   20  C   UNL     1      41.546 -16.399   0.378  1.00  0.00     0.168 C 
BRANCH  20  21
HETATM   21  C   UNL     1      41.346 -15.446  -0.758  1.00  0.00     0.000 A 
HETATM   22  S   UNL     1      41.594 -13.763  -0.527  1.00  0.00    -0.105 SA
HETATM   23  C   UNL     1      41.202 -13.416  -2.155  1.00  0.00     0.050 A 
HETATM   24  C   UNL     1      40.890 -14.553  -2.865  1.00  0.00     0.008 A 
HETATM   25  C   UNL     1      40.971 -15.726  -2.059  1.00  0.00     0.017 A 
ENDBRANCH  20  21
ENDBRANCH  17  20
ENDBRANCH   2  16
BRANCH   1  26
HETATM   26  C   UNL     1      42.999 -16.976   5.221  1.00  0.00     0.042 A 
HETATM   27  C   UNL     1      43.076 -18.087   4.371  1.00  0.00     0.030 A 
HETATM   28  C   UNL     1      44.111 -19.020   4.500  1.00  0.00     0.002 A 
HETATM   29  C   UNL     1      45.079 -18.861   5.489  1.00  0.00     0.000 A 
HETATM   30  C   UNL     1      45.007 -17.775   6.355  1.00  0.00     0.002 A 
HETATM   31  C   UNL     1      43.971 -16.845   6.225  1.00  0.00     0.030 A 
ENDBRANCH   1  26
TORSDOF 5
ENDMDL
MODEL 4
REMARK VINA RESULT:      -8.0      2.549      5.383
REMARK  5 active torsions:
REMARK  status: ('A' for Active; 'I' for Inactive)
REMARK    1  A    between atoms: C_4  and  N_5 
REMARK    2  A    between atoms: C_6  and  O_7 
REMARK    3  A    between atoms: C_6  and  C_8 
REMARK       I    between atoms: C_8  and  N_9 
REMARK    4  A    between atoms: N_9  and  C_10 
REMARK    5  A    between atoms: C_10  and  C_11 
ROOT
HETATM    1  N   UNL     1      41.583 -14.814   3.767  1.00  0.00    -0.254 N 
HETATM    2  C   UNL     1      42.000 -15.285   2.435  1.00  0.00     0.256 C 
HETATM    3  C   UNL     1      41.241 -14.599   1.320  1.00  0.00     0.035 A 
HETATM    4  C   UNL     1      39.942 -14.183   1.591  1.00  0.00     0.048 A 
HETATM    5  N   UNL     1      39.454 -14.341   2.884  1.00  0.00    -0.308 N 
HETATM    6  C   UNL     1      40.226 -14.595   3.989  1.00  0.00     0.330 C 
HETATM    7  O   UNL     1      39.668 -14.532   5.084  1.00  0.00    -0.246 OA
HETATM    8  C   UNL     1      41.739 -14.459   0.014  1.00  0.00     0.034 A 
HETATM    9  C   UNL     1      40.938 -13.901  -0.981  1.00  0.00     0.011 A 
HETATM   10 BR   UNL     1      41.618 -13.707  -2.733  1.00  0.00    -0.051 Br
HETATM   11  C   UNL     1      39.634 -13.496  -0.697  1.00  0.00     0.021 A 
HETATM   12  C   UNL     1      39.129 -13.644   0.594  1.00  0.00     0.031 A 
HETATM   13  H   UNL     1      38.508 -14.056   3.107  1.00  0.00     0.170 HD
ENDROOT
BRANCH   2  14
HETATM   14  O   UNL     1      43.390 -15.033   2.202  1.00  0.00    -0.359 OA
HETATM   15  H   UNL     1      43.397 -14.389   1.464  1.00  0.00     0.213 HD
ENDBRANCH   2  14
BRANCH   2  16
HETATM   16  C   UNL     1      41.800 -16.858   2.364  1.00  0.00     0.279 C 
HETATM   17  N   UNL     1      42.849 -17.618   1.895  1.00  0.00    -0.352 N 
HETATM   18  H   UNL     1      43.715 -17.173   1.616  1.00  0.00     0.162 HD
HETATM   19  O   UNL     1      40.730 -17.375   2.707  1.00  0.00    -0.268 OA
BRANCH  17  20
HETATM   20  C   UNL     1      42.815 -19.059   1.949  1.00  0.00     0.168 C 
BRANCH  20  21
HETATM   21  C   UNL     1      43.686 -19.519   3.075  1.00  0.00     0.000 A 
HETATM   22  S   UNL     1      44.525 -21.013   2.963  1.00  0.00    -0.105 SA
HETATM   23  C   UNL     1      45.227 -20.809   4.509  1.00  0.00     0.050 A 
HETATM   24  C   UNL     1      44.836 -19.630   5.102  1.00  0.00     0.008 A 
HETATM   25  C   UNL     1      43.945 -18.885   4.276  1.00  0.00     0.017 A 
ENDBRANCH  20  21
ENDBRANCH  17  20
ENDBRANCH   2  16
BRANCH   1  26
HETATM   26  C   UNL     1      42.485 -14.921   4.877  1.00  0.00     0.042 A 
HETATM   27  C   UNL     1      42.531 -16.065   5.683  1.00  0.00     0.030 A 
HETATM   28  C   UNL     1      43.389 -16.134   6.786  1.00  0.00     0.002 A 
HETATM   29  C   UNL     1      44.206 -15.052   7.107  1.00  0.00     0.000 A 
HETATM   30  C   UNL     1      44.159 -13.900   6.330  1.00  0.00     0.002 A 
HETATM   31  C   UNL     1      43.299 -13.833   5.230  1.00  0.00     0.030 A 
ENDBRANCH   1  26
TORSDOF 5
ENDMDL
MODEL 5
REMARK VINA RESULT:      -7.8      3.212      4.252
REMARK  5 active torsions:
REMARK  status: ('A' for Active; 'I' for Inactive)
REMARK    1  A    between atoms: C_4  and  N_5 
REMARK    2  A    between atoms: C_6  and  O_7 
REMARK    3  A    between atoms: C_6  and  C_8 
REMARK       I    between atoms: C_8  and  N_9 
REMARK    4  A    between atoms: N_9  and  C_10 
REMARK    5  A    between atoms: C_10  and  C_11 
ROOT
HETATM    1  N   UNL     1      41.539 -14.012   3.717  1.00  0.00    -0.254 N 
HETATM    2  C   UNL     1      41.360 -13.960   5.178  1.00  0.00     0.256 C 
HETATM    3  C   UNL     1      40.956 -12.584   5.659  1.00  0.00     0.035 A 
HETATM    4  C   UNL     1      41.404 -11.492   4.923  1.00  0.00     0.048 A 
HETATM    5  N   UNL     1      42.114 -11.731   3.751  1.00  0.00    -0.308 N 
HETATM    6  C   UNL     1      42.163 -12.935   3.094  1.00  0.00     0.330 C 
HETATM    7  O   UNL     1      42.687 -12.940   1.981  1.00  0.00    -0.246 OA
HETATM    8  C   UNL     1      40.251 -12.355   6.851  1.00  0.00     0.034 A 
HETATM    9  C   UNL     1      40.003 -11.050   7.273  1.00  0.00     0.011 A 
HETATM   10 BR   UNL     1      39.046 -10.748   8.875  1.00  0.00    -0.051 Br
HETATM   11  C   UNL     1      40.464  -9.964   6.530  1.00  0.00     0.021 A 
HETATM   12  C   UNL     1      41.175 -10.184   5.351  1.00  0.00     0.031 A 
HETATM   13  H   UNL     1      42.460 -10.954   3.200  1.00  0.00     0.170 HD
ENDROOT
BRANCH   2  14
HETATM   14  O   UNL     1      40.338 -14.864   5.612  1.00  0.00    -0.359 OA
HETATM   15  H   UNL     1      40.450 -15.649   5.038  1.00  0.00     0.213 HD
ENDBRANCH   2  14
BRANCH   2  16
HETATM   16  C   UNL     1      42.710 -14.423   5.873  1.00  0.00     0.279 C 
HETATM   17  N   UNL     1      42.689 -15.596   6.598  1.00  0.00    -0.352 N 
HETATM   18  H   UNL     1      41.836 -16.136   6.667  1.00  0.00     0.162 HD
HETATM   19  O   UNL     1      43.737 -13.742   5.775  1.00  0.00    -0.268 OA
BRANCH  17  20
HETATM   20  C   UNL     1      43.901 -16.173   7.125  1.00  0.00     0.168 C 
BRANCH  20  21
HETATM   21  C   UNL     1      44.043 -17.564   6.590  1.00  0.00     0.000 A 
HETATM   22  S   UNL     1      43.825 -18.914   7.628  1.00  0.00    -0.105 SA
HETATM   23  C   UNL     1      44.124 -20.020   6.359  1.00  0.00     0.050 A 
HETATM   24  C   UNL     1      44.384 -19.381   5.168  1.00  0.00     0.008 A 
HETATM   25  C   UNL     1      44.339 -17.963   5.300  1.00  0.00     0.017 A 
ENDBRANCH  20  21
ENDBRANCH  17  20
ENDBRANCH   2  16
BRANCH   1  26
HETATM   26  C   UNL     1      41.400 -15.260   3.023  1.00  0.00     0.042 A 
HETATM   27  C   UNL     1      42.465 -16.164   2.911  1.00  0.00     0.030 A 
HETATM   28  C   UNL     1      42.321 -17.358   2.195  1.00  0.00     0.002 A 
HETATM   29  C   UNL     1      41.113 -17.661   1.572  1.00  0.00     0.000 A 
HETATM   30  C   UNL     1      40.052 -16.766   1.656  1.00  0.00     0.002 A 
HETATM   31  C   UNL     1      40.198 -15.573   2.370  1.00  0.00     0.030 A 
ENDBRANCH   1  26
TORSDOF 5
ENDMDL
MODEL 6
REMARK VINA RESULT:      -7.7      3.212      5.562
REMARK  5 active torsions:
REMARK  status: ('A' for Active; 'I' for Inactive)
REMARK    1  A    between atoms: C_4  and  N_5 
REMARK    2  A    between atoms: C_6  and  O_7 
REMARK    3  A    between atoms: C_6  and  C_8 
REMARK       I    between atoms: C_8  and  N_9 
REMARK    4  A    between atoms: N_9  and  C_10 
REMARK    5  A    between atoms: C_10  and  C_11 
ROOT
HETATM    1  N   UNL     1      42.041 -15.407   5.848  1.00  0.00    -0.254 N 
HETATM    2  C   UNL     1      42.250 -14.208   5.019  1.00  0.00     0.256 C 
HETATM    3  C   UNL     1      41.392 -13.044   5.464  1.00  0.00     0.035 A 
HETATM    4  C   UNL     1      40.167 -13.341   6.051  1.00  0.00     0.048 A 
HETATM    5  N   UNL     1      39.846 -14.675   6.272  1.00  0.00    -0.308 N 
HETATM    6  C   UNL     1      40.741 -15.715   6.239  1.00  0.00     0.330 C 
HETATM    7  O   UNL     1      40.337 -16.810   6.629  1.00  0.00    -0.246 OA
HETATM    8  C   UNL     1      41.721 -11.701   5.222  1.00  0.00     0.034 A 
HETATM    9  C   UNL     1      40.829 -10.690   5.578  1.00  0.00     0.011 A 
HETATM   10 BR   UNL     1      41.282  -8.884   5.258  1.00  0.00    -0.051 Br
HETATM   11  C   UNL     1      39.600 -11.002   6.159  1.00  0.00     0.021 A 
HETATM   12  C   UNL     1      39.263 -12.335   6.391  1.00  0.00     0.031 A 
HETATM   13  H   UNL     1      38.956 -14.921   6.690  1.00  0.00     0.170 HD
ENDROOT
BRANCH   2  14
HETATM   14  O   UNL     1      43.610 -13.763   5.076  1.00  0.00    -0.359 OA
HETATM   15  H   UNL     1      44.090 -14.508   5.492  1.00  0.00     0.213 HD
ENDBRANCH   2  14
BRANCH   2  16
HETATM   16  C   UNL     1      41.951 -14.578   3.504  1.00  0.00     0.279 C 
HETATM   17  N   UNL     1      43.028 -14.811   2.676  1.00  0.00    -0.352 N 
HETATM   18  H   UNL     1      43.972 -14.753   3.039  1.00  0.00     0.162 HD
HETATM   19  O   UNL     1      40.790 -14.638   3.086  1.00  0.00    -0.268 OA
BRANCH  17  20
HETATM   20  C   UNL     1      42.848 -15.309   1.334  1.00  0.00     0.168 C 
BRANCH  20  21
HETATM   21  C   UNL     1      42.965 -16.801   1.355  1.00  0.00     0.000 A 
HETATM   22  S   UNL     1      41.552 -17.776   1.364  1.00  0.00    -0.105 SA
HETATM   23  C   UNL     1      42.470 -19.219   1.380  1.00  0.00     0.050 A 
HETATM   24  C   UNL     1      43.824 -18.969   1.377  1.00  0.00     0.008 A 
HETATM   25  C   UNL     1      44.111 -17.573   1.363  1.00  0.00     0.017 A 
ENDBRANCH  20  21
ENDBRANCH  17  20
ENDBRANCH   2  16
BRANCH   1  26
HETATM   26  C   UNL     1      43.074 -16.397   5.947  1.00  0.00     0.042 A 
HETATM   27  C   UNL     1      43.217 -17.411   4.990  1.00  0.00     0.030 A 
HETATM   28  C   UNL     1      44.206 -18.392   5.126  1.00  0.00     0.002 A 
HETATM   29  C   UNL     1      45.059 -18.381   6.226  1.00  0.00     0.000 A 
HETATM   30  C   UNL     1      44.919 -17.394   7.196  1.00  0.00     0.002 A 
HETATM   31  C   UNL     1      43.929 -16.416   7.059  1.00  0.00     0.030 A 
ENDBRANCH   1  26
TORSDOF 5
ENDMDL
MODEL 7
REMARK VINA RESULT:      -7.6      2.640      5.244
REMARK  5 active torsions:
REMARK  status: ('A' for Active; 'I' for Inactive)
REMARK    1  A    between atoms: C_4  and  N_5 
REMARK    2  A    between atoms: C_6  and  O_7 
REMARK    3  A    between atoms: C_6  and  C_8 
REMARK       I    between atoms: C_8  and  N_9 
REMARK    4  A    between atoms: N_9  and  C_10 
REMARK    5  A    between atoms: C_10  and  C_11 
ROOT
HETATM    1  N   UNL     1      41.900 -15.755   4.820  1.00  0.00    -0.254 N 
HETATM    2  C   UNL     1      42.219 -15.508   3.403  1.00  0.00     0.256 C 
HETATM    3  C   UNL     1      41.582 -14.238   2.883  1.00  0.00     0.035 A 
HETATM    4  C   UNL     1      40.376 -13.847   3.454  1.00  0.00     0.048 A 
HETATM    5  N   UNL     1      39.879 -14.589   4.520  1.00  0.00    -0.308 N 
HETATM    6  C   UNL     1      40.603 -15.494   5.254  1.00  0.00     0.330 C 
HETATM    7  O   UNL     1      40.072 -15.937   6.272  1.00  0.00    -0.246 OA
HETATM    8  C   UNL     1      42.088 -13.506   1.797  1.00  0.00     0.034 A 
HETATM    9  C   UNL     1      41.387 -12.401   1.316  1.00  0.00     0.011 A 
HETATM   10 BR   UNL     1      42.077 -11.413  -0.140  1.00  0.00    -0.051 Br
HETATM   11  C   UNL     1      40.175 -12.023   1.893  1.00  0.00     0.021 A 
HETATM   12  C   UNL     1      39.662 -12.754   2.965  1.00  0.00     0.031 A 
HETATM   13  H   UNL     1      38.997 -14.332   4.949  1.00  0.00     0.170 HD
ENDROOT
BRANCH   2  14
HETATM   14  O   UNL     1      43.630 -15.373   3.201  1.00  0.00    -0.359 OA
HETATM   15  H   UNL     1      43.731 -14.492   2.787  1.00  0.00     0.213 HD
ENDBRANCH   2  14
BRANCH   2  16
HETATM   16  C   UNL     1      41.750 -16.762   2.550  1.00  0.00     0.279 C 
HETATM   17  N   UNL     1      42.716 -17.655   2.138  1.00  0.00    -0.352 N 
HETATM   18  H   UNL     1      43.686 -17.507   2.387  1.00  0.00     0.162 HD
HETATM   19  O   UNL     1      40.560 -16.916   2.256  1.00  0.00    -0.268 OA
BRANCH  17  20
HETATM   20  C   UNL     1      42.363 -18.900   1.501  1.00  0.00     0.168 C 
BRANCH  20  21
HETATM   21  C   UNL     1      43.258 -19.979   2.024  1.00  0.00     0.000 A 
HETATM   22  S   UNL     1      44.466 -19.609   3.187  1.00  0.00    -0.105 SA
HETATM   23  C   UNL     1      44.991 -21.235   3.253  1.00  0.00     0.050 A 
HETATM   24  C   UNL     1      44.266 -22.047   2.411  1.00  0.00     0.008 A 
HETATM   25  C   UNL     1      43.265 -21.323   1.700  1.00  0.00     0.017 A 
ENDBRANCH  20  21
ENDBRANCH  17  20
ENDBRANCH   2  16
BRANCH   1  26
HETATM   26  C   UNL     1      42.778 -16.556   5.622  1.00  0.00     0.042 A 
HETATM   27  C   UNL     1      43.915 -16.015   6.236  1.00  0.00     0.030 A 
HETATM   28  C   UNL     1      44.783 -16.822   6.981  1.00  0.00     0.002 A 
HETATM   29  C   UNL     1      44.532 -18.186   7.113  1.00  0.00     0.000 A 
HETATM   30  C   UNL     1      43.419 -18.744   6.493  1.00  0.00     0.002 A 
HETATM   31  C   UNL     1      42.555 -17.936   5.748  1.00  0.00     0.030 A 
ENDBRANCH   1  26
TORSDOF 5
ENDMDL
MODEL 8
REMARK VINA RESULT:      -7.3      4.277      6.969
REMARK  5 active torsions:
REMARK  status: ('A' for Active; 'I' for Inactive)
REMARK    1  A    between atoms: C_4  and  N_5 
REMARK    2  A    between atoms: C_6  and  O_7 
REMARK    3  A    between atoms: C_6  and  C_8 
REMARK       I    between atoms: C_8  and  N_9 
REMARK    4  A    between atoms: N_9  and  C_10 
REMARK    5  A    between atoms: C_10  and  C_11 
ROOT
HETATM    1  N   UNL     1      39.377 -14.283  -0.429  1.00  0.00    -0.254 N 
HETATM    2  C   UNL     1      40.785 -14.713  -0.415  1.00  0.00     0.256 C 
HETATM    3  C   UNL     1      41.073 -15.701   0.695  1.00  0.00     0.035 A 
HETATM    4  C   UNL     1      40.313 -15.600   1.855  1.00  0.00     0.048 A 
HETATM    5  N   UNL     1      39.284 -14.664   1.890  1.00  0.00    -0.308 N 
HETATM    6  C   UNL     1      38.755 -14.035   0.792  1.00  0.00     0.330 C 
HETATM    7  O   UNL     1      37.735 -13.370   0.969  1.00  0.00    -0.246 OA
HETATM    8  C   UNL     1      42.124 -16.632   0.652  1.00  0.00     0.034 A 
HETATM    9  C   UNL     1      42.383 -17.440   1.757  1.00  0.00     0.011 A 
HETATM   10 BR   UNL     1      43.793 -18.697   1.691  1.00  0.00    -0.051 Br
HETATM   11  C   UNL     1      41.618 -17.323   2.917  1.00  0.00     0.021 A 
HETATM   12  C   UNL     1      40.580 -16.393   2.970  1.00  0.00     0.031 A 
HETATM   13  H   UNL     1      38.720 -14.562   2.727  1.00  0.00     0.170 HD
ENDROOT
BRANCH   2  14
HETATM   14  O   UNL     1      41.148 -15.357  -1.642  1.00  0.00    -0.359 OA
HETATM   15  H   UNL     1      42.021 -14.973  -1.866  1.00  0.00     0.213 HD
ENDBRANCH   2  14
BRANCH   2  16
HETATM   16  C   UNL     1      41.709 -13.430  -0.277  1.00  0.00     0.279 C 
HETATM   17  N   UNL     1      42.238 -12.893  -1.432  1.00  0.00    -0.352 N 
HETATM   18  H   UNL     1      42.027 -13.310  -2.330  1.00  0.00     0.162 HD
HETATM   19  O   UNL     1      41.954 -12.944   0.833  1.00  0.00    -0.268 OA
BRANCH  17  20
HETATM   20  C   UNL     1      42.952 -11.640  -1.417  1.00  0.00     0.168 C 
BRANCH  20  21
HETATM   21  C   UNL     1      42.657 -10.904  -2.686  1.00  0.00     0.000 A 
HETATM   22  S   UNL     1      42.663  -9.187  -2.710  1.00  0.00    -0.105 SA
HETATM   23  C   UNL     1      42.277  -9.145  -4.375  1.00  0.00     0.050 A 
HETATM   24  C   UNL     1      42.146 -10.407  -4.908  1.00  0.00     0.008 A 
HETATM   25  C   UNL     1      42.364 -11.424  -3.933  1.00  0.00     0.017 A 
ENDBRANCH  20  21
ENDBRANCH  17  20
ENDBRANCH   2  16
BRANCH   1  26
HETATM   26  C   UNL     1      38.789 -13.801  -1.645  1.00  0.00     0.042 A 
HETATM   27  C   UNL     1      38.914 -12.464  -2.045  1.00  0.00     0.030 A 
HETATM   28  C   UNL     1      38.299 -12.003  -3.215  1.00  0.00     0.002 A 
HETATM   29  C   UNL     1      37.539 -12.870  -3.995  1.00  0.00     0.000 A 
HETATM   30  C   UNL     1      37.387 -14.196  -3.603  1.00  0.00     0.002 A 
HETATM   31  C   UNL     1      38.001 -14.653  -2.434  1.00  0.00     0.030 A 
ENDBRANCH   1  26
TORSDOF 5
ENDMDL
MODEL 9
REMARK VINA RESULT:      -7.3      3.001      4.362
REMARK  5 active torsions:
REMARK  status: ('A' for Active; 'I' for Inactive)
REMARK    1  A    between atoms: C_4  and  N_5 
REMARK    2  A    between atoms: C_6  and  O_7 
REMARK    3  A    between atoms: C_6  and  C_8 
REMARK       I    between atoms: C_8  and  N_9 
REMARK    4  A    between atoms: N_9  and  C_10 
REMARK    5  A    between atoms: C_10  and  C_11 
ROOT
HETATM    1  N   UNL     1      39.982 -13.537  -0.915  1.00  0.00    -0.254 N 
HETATM    2  C   UNL     1      39.931 -14.110   0.441  1.00  0.00     0.256 C 
HETATM    3  C   UNL     1      40.038 -13.052   1.517  1.00  0.00     0.035 A 
HETATM    4  C   UNL     1      40.771 -11.908   1.218  1.00  0.00     0.048 A 
HETATM    5  N   UNL     1      41.280 -11.767  -0.068  1.00  0.00    -0.308 N 
HETATM    6  C   UNL     1      40.884 -12.505  -1.156  1.00  0.00     0.330 C 
HETATM    7  O   UNL     1      41.300 -12.141  -2.255  1.00  0.00    -0.246 OA
HETATM    8  C   UNL     1      39.532 -13.212   2.817  1.00  0.00     0.034 A 
HETATM    9  C   UNL     1      39.758 -12.229   3.779  1.00  0.00     0.011 A 
HETATM   10 BR   UNL     1      39.066 -12.447   5.524  1.00  0.00    -0.051 Br
HETATM   11  C   UNL     1      40.501 -11.091   3.468  1.00  0.00     0.021 A 
HETATM   12  C   UNL     1      41.017 -10.931   2.182  1.00  0.00     0.031 A 
HETATM   13  H   UNL     1      41.826 -10.948  -0.311  1.00  0.00     0.170 HD
ENDROOT
BRANCH   2  14
HETATM   14  O   UNL     1      38.699 -14.805   0.669  1.00  0.00    -0.359 OA
HETATM   15  H   UNL     1      38.975 -15.666   1.046  1.00  0.00     0.213 HD
ENDBRANCH   2  14
BRANCH   2  16
HETATM   16  C   UNL     1      41.095 -15.179   0.587  1.00  0.00     0.279 C 
HETATM   17  N   UNL     1      40.758 -16.438   1.036  1.00  0.00    -0.352 N 
HETATM   18  H   UNL     1      39.794 -16.660   1.252  1.00  0.00     0.162 HD
HETATM   19  O   UNL     1      42.264 -14.880   0.320  1.00  0.00    -0.268 OA
BRANCH  17  20
HETATM   20  C   UNL     1      41.719 -17.514   1.044  1.00  0.00     0.168 C 
BRANCH  20  21
HETATM   21  C   UNL     1      42.136 -17.775   2.458  1.00  0.00     0.000 A 
HETATM   22  S   UNL     1      41.257 -17.080   3.759  1.00  0.00    -0.105 SA
HETATM   23  C   UNL     1      42.279 -17.807   4.922  1.00  0.00     0.050 A 
HETATM   24  C   UNL     1      43.269 -18.564   4.338  1.00  0.00     0.008 A 
HETATM   25  C   UNL     1      43.188 -18.546   2.915  1.00  0.00     0.017 A 
ENDBRANCH  20  21
ENDBRANCH  17  20
ENDBRANCH   2  16
BRANCH   1  26
HETATM   26  C   UNL     1      39.391 -14.246  -2.013  1.00  0.00     0.042 A 
HETATM   27  C   UNL     1      38.056 -14.044  -2.387  1.00  0.00     0.030 A 
HETATM   28  C   UNL     1      37.486 -14.775  -3.436  1.00  0.00     0.002 A 
HETATM   29  C   UNL     1      38.239 -15.727  -4.118  1.00  0.00     0.000 A 
HETATM   30  C   UNL     1      39.559 -15.955  -3.746  1.00  0.00     0.002 A 
HETATM   31  C   UNL     1      40.127 -15.225  -2.698  1.00  0.00     0.030 A 
ENDBRANCH   1  26
TORSDOF 5
ENDMDL
MODEL 10
REMARK VINA RESULT:      -7.3      3.516      6.036
REMARK  5 active torsions:
REMARK  status: ('A' for Active; 'I' for Inactive)
REMARK    1  A    between atoms: C_4  and  N_5 
REMARK    2  A    between atoms: C_6  and  O_7 
REMARK    3  A    between atoms: C_6  and  C_8 
REMARK       I    between atoms: C_8  and  N_9 
REMARK    4  A    between atoms: N_9  and  C_10 
REMARK    5  A    between atoms: C_10  and  C_11 
ROOT
HETATM    1  N   UNL     1      39.888 -14.031   1.230  1.00  0.00    -0.254 N 
HETATM    2  C   UNL     1      41.024 -13.981   0.295  1.00  0.00     0.256 C 
HETATM    3  C   UNL     1      40.655 -13.341  -1.025  1.00  0.00     0.035 A 
HETATM    4  C   UNL     1      39.339 -13.478  -1.457  1.00  0.00     0.048 A 
HETATM    5  N   UNL     1      38.431 -14.110  -0.615  1.00  0.00    -0.308 N 
HETATM    6  C   UNL     1      38.633 -14.353   0.721  1.00  0.00     0.330 C 
HETATM    7  O   UNL     1      37.667 -14.760   1.364  1.00  0.00    -0.246 OA
HETATM    8  C   UNL     1      41.585 -12.717  -1.872  1.00  0.00     0.034 A 
HETATM    9  C   UNL     1      41.181 -12.238  -3.118  1.00  0.00     0.011 A 
HETATM   10 BR   UNL     1      42.435 -11.391  -4.249  1.00  0.00    -0.051 Br
HETATM   11  C   UNL     1      39.861 -12.388  -3.541  1.00  0.00     0.021 A 
HETATM   12  C   UNL     1      38.935 -13.018  -2.709  1.00  0.00     0.031 A 
HETATM   13  H   UNL     1      37.468 -14.232  -0.908  1.00  0.00     0.170 HD
ENDROOT
BRANCH   2  14
HETATM   14  O   UNL     1      42.111 -13.218   0.832  1.00  0.00    -0.359 OA
HETATM   15  H   UNL     1      41.676 -12.472   1.293  1.00  0.00     0.213 HD
ENDBRANCH   2  14
BRANCH   2  16
HETATM   16  C   UNL     1      41.565 -15.457   0.071  1.00  0.00     0.279 C 
HETATM   17  N   UNL     1      42.649 -15.863   0.819  1.00  0.00    -0.352 N 
HETATM   18  H   UNL     1      43.069 -15.233   1.491  1.00  0.00     0.162 HD
HETATM   19  O   UNL     1      41.035 -16.204  -0.758  1.00  0.00    -0.268 OA
BRANCH  17  20
HETATM   20  C   UNL     1      43.103 -17.232   0.799  1.00  0.00     0.168 C 
BRANCH  20  21
HETATM   21  C   UNL     1      43.373 -17.670   2.204  1.00  0.00     0.000 A 
HETATM   22  S   UNL     1      43.531 -19.340   2.572  1.00  0.00    -0.105 SA
HETATM   23  C   UNL     1      43.808 -19.015   4.228  1.00  0.00     0.050 A 
HETATM   24  C   UNL     1      43.783 -17.666   4.501  1.00  0.00     0.008 A 
HETATM   25  C   UNL     1      43.531 -16.889   3.333  1.00  0.00     0.017 A 
ENDBRANCH  20  21
ENDBRANCH  17  20
ENDBRANCH   2  16
BRANCH   1  26
HETATM   26  C   UNL     1      40.127 -14.095   2.643  1.00  0.00     0.042 A 
HETATM   27  C   UNL     1      40.212 -12.939   3.430  1.00  0.00     0.030 A 
HETATM   28  C   UNL     1      40.487 -13.021   4.800  1.00  0.00     0.002 A 
HETATM   29  C   UNL     1      40.693 -14.260   5.401  1.00  0.00     0.000 A 
HETATM   30  C   UNL     1      40.633 -15.417   4.632  1.00  0.00     0.002 A 
HETATM   31  C   UNL     1      40.360 -15.333   3.263  1.00  0.00     0.030 A 
ENDBRANCH   1  26
TORSDOF 5
ENDMDL
