MODEL 1
REMARK VINA RESULT:      -9.0      0.000      0.000
REMARK  7 active torsions:
REMARK  status: ('A' for Active; 'I' for Inactive)
REMARK    1  A    between atoms: C_5  and  N_6 
REMARK    2  A    between atoms: N_6  and  C_7 
REMARK    3  A    between atoms: C_7  and  N_8 
REMARK    4  A    between atoms: N_8  and  C_9 
REMARK    5  A    between atoms: C_9  and  C_10 
REMARK    6  A    between atoms: C_10  and  C_11 
REMARK    7  A    between atoms: C_14  and  C_15 
ROOT
HETATM    1  C   UNL     1      41.366 -13.762   2.193  1.00  0.00     0.102 C 
HETATM    2  C   UNL     1      40.518 -13.441   1.174  1.00  0.00     0.139 C 
HETATM    3  C   UNL     1      40.887 -13.704  -0.238  1.00  0.00     0.270 C 
HETATM    4  O   UNL     1      42.027 -13.566  -0.673  1.00  0.00    -0.267 OA
HETATM    5  N   UNL     1      39.815 -14.040  -1.044  1.00  0.00    -0.270 N 
HETATM    6  C   UNL     1      40.117 -14.572  -2.360  1.00  0.00     0.164 C 
HETATM    7  C   UNL     1      38.523 -13.594  -0.822  1.00  0.00     0.333 C 
HETATM    8  O   UNL     1      37.624 -13.783  -1.644  1.00  0.00    -0.246 OA
HETATM    9  N   UNL     1      38.299 -12.904   0.361  1.00  0.00    -0.270 N 
HETATM   10  C   UNL     1      36.965 -12.377   0.592  1.00  0.00     0.164 C 
HETATM   11  C   UNL     1      39.174 -12.877   1.437  1.00  0.00     0.270 C 
HETATM   12  O   UNL     1      38.842 -12.468   2.552  1.00  0.00    -0.267 OA
ENDROOT
BRANCH   1  13
HETATM   13  N   UNL     1      42.556 -14.434   1.948  1.00  0.00    -0.245 NA
HETATM   14  H   UNL     1      43.296 -14.032   2.519  1.00  0.00     0.135 HD
BRANCH  13  15
HETATM   15  C   UNL     1      42.682 -15.850   1.956  1.00  0.00     0.014 A 
HETATM   16  C   UNL     1      41.685 -16.715   1.489  1.00  0.00     0.024 A 
HETATM   17  C   UNL     1      41.876 -18.101   1.493  1.00  0.00     0.008 A 
HETATM   18  C   UNL     1      43.084 -18.651   1.935  1.00  0.00    -0.062 A 
HETATM   19  C   UNL     1      43.269 -20.138   1.983  1.00  0.00     0.048 C 
HETATM   20  C   UNL     1      44.092 -17.792   2.381  1.00  0.00     0.008 A 
HETATM   21  C   UNL     1      43.897 -16.407   2.375  1.00  0.00     0.024 A 
ENDBRANCH  13  15
ENDBRANCH   1  13
BRANCH   1  22
HETATM   22  N   UNL     1      41.116 -13.401   3.520  1.00  0.00    -0.379 N 
HETATM   23  H   UNL     1      40.622 -14.147   4.030  1.00  0.00     0.160 HD
BRANCH  22  24
HETATM   24  C   UNL     1      42.080 -12.704   4.372  1.00  0.00     0.125 C 
BRANCH  24  25
HETATM   25  C   UNL     1      41.986 -13.214   5.814  1.00  0.00     0.061 C 
BRANCH  25  26
HETATM   26  C   UNL     1      42.799 -14.457   6.023  1.00  0.00    -0.022 A 
HETATM   27  C   UNL     1      42.383 -15.797   5.728  1.00  0.00    -0.000 A 
HETATM   28  C   UNL     1      43.421 -16.651   6.093  1.00  0.00     0.058 A 
HETATM   29  C   UNL     1      41.205 -16.355   5.192  1.00  0.00     0.014 A 
HETATM   30  C   UNL     1      43.353 -18.054   5.955  1.00  0.00     0.075 A 
HETATM   31  N   UNL     1      44.438 -15.856   6.577  1.00  0.00    -0.358 N 
HETATM   32  C   UNL     1      42.156 -18.570   5.416  1.00  0.00     0.018 A 
HETATM   33  C   UNL     1      41.102 -17.740   5.042  1.00  0.00     0.002 A 
HETATM   34  H   UNL     1      45.325 -16.210   6.913  1.00  0.00     0.166 HD
HETATM   35  C   UNL     1      44.077 -14.533   6.550  1.00  0.00     0.013 A 
HETATM   36  C   UNL     1      44.995 -13.468   7.031  1.00  0.00     0.068 C 
BRANCH  30  37
HETATM   37  C   UNL     1      44.462 -18.997   6.344  1.00  0.00     0.419 C 
HETATM   38  F   UNL     1      45.607 -18.810   5.624  1.00  0.00    -0.166 F 
HETATM   39  F   UNL     1      44.825 -18.871   7.651  1.00  0.00    -0.166 F 
HETATM   40  F   UNL     1      44.126 -20.306   6.173  1.00  0.00    -0.166 F 
ENDBRANCH  30  37
ENDBRANCH  25  26
ENDBRANCH  24  25
ENDBRANCH  22  24
ENDBRANCH   1  22
TORSDOF 7
ENDMDL
MODEL 2
REMARK VINA RESULT:      -8.7      1.858      3.961
REMARK  7 active torsions:
REMARK  status: ('A' for Active; 'I' for Inactive)
REMARK    1  A    between atoms: C_5  and  N_6 
REMARK    2  A    between atoms: N_6  and  C_7 
REMARK    3  A    between atoms: C_7  and  N_8 
REMARK    4  A    between atoms: N_8  and  C_9 
REMARK    5  A    between atoms: C_9  and  C_10 
REMARK    6  A    between atoms: C_10  and  C_11 
REMARK    7  A    between atoms: C_14  and  C_15 
ROOT
HETATM    1  C   UNL     1      40.398 -13.315   1.520  1.00  0.00     0.102 C 
HETATM    2  C   UNL     1      40.772 -12.912   0.271  1.00  0.00     0.139 C 
HETATM    3  C   UNL     1      41.508 -11.642   0.067  1.00  0.00     0.270 C 
HETATM    4  O   UNL     1      41.283 -10.621   0.712  1.00  0.00    -0.267 OA
HETATM    5  N   UNL     1      42.418 -11.683  -0.973  1.00  0.00    -0.270 N 
HETATM    6  C   UNL     1      43.364 -10.586  -1.069  1.00  0.00     0.164 C 
HETATM    7  C   UNL     1      42.267 -12.488  -2.089  1.00  0.00     0.333 C 
HETATM    8  O   UNL     1      43.013 -12.386  -3.066  1.00  0.00    -0.246 OA
HETATM    9  N   UNL     1      41.221 -13.399  -2.060  1.00  0.00    -0.270 N 
HETATM   10  C   UNL     1      41.007 -14.218  -3.241  1.00  0.00     0.164 C 
HETATM   11  C   UNL     1      40.515 -13.754  -0.920  1.00  0.00     0.270 C 
HETATM   12  O   UNL     1      39.769 -14.735  -0.881  1.00  0.00    -0.267 OA
ENDROOT
BRANCH   1  13
HETATM   13  N   UNL     1      40.781 -12.599   2.646  1.00  0.00    -0.245 NA
HETATM   14  H   UNL     1      39.952 -12.285   3.146  1.00  0.00     0.135 HD
BRANCH  13  15
HETATM   15  C   UNL     1      41.743 -13.059   3.586  1.00  0.00     0.014 A 
HETATM   16  C   UNL     1      43.005 -13.545   3.224  1.00  0.00     0.024 A 
HETATM   17  C   UNL     1      43.924 -13.956   4.195  1.00  0.00     0.008 A 
HETATM   18  C   UNL     1      43.613 -13.857   5.555  1.00  0.00    -0.062 A 
HETATM   19  C   UNL     1      44.581 -14.341   6.593  1.00  0.00     0.048 C 
HETATM   20  C   UNL     1      42.364 -13.351   5.926  1.00  0.00     0.008 A 
HETATM   21  C   UNL     1      41.449 -12.941   4.951  1.00  0.00     0.024 A 
ENDBRANCH  13  15
ENDBRANCH   1  13
BRANCH   1  22
HETATM   22  N   UNL     1      39.583 -14.429   1.737  1.00  0.00    -0.379 N 
HETATM   23  H   UNL     1      39.160 -14.768   0.861  1.00  0.00     0.160 HD
BRANCH  22  24
HETATM   24  C   UNL     1      39.928 -15.531   2.637  1.00  0.00     0.125 C 
BRANCH  24  25
HETATM   25  C   UNL     1      40.838 -16.538   1.926  1.00  0.00     0.061 C 
BRANCH  25  26
HETATM   26  C   UNL     1      41.928 -17.040   2.826  1.00  0.00    -0.022 A 
HETATM   27  C   UNL     1      41.887 -17.081   4.258  1.00  0.00    -0.000 A 
HETATM   28  C   UNL     1      43.107 -17.591   4.701  1.00  0.00     0.058 A 
HETATM   29  C   UNL     1      40.920 -16.718   5.216  1.00  0.00     0.014 A 
HETATM   30  C   UNL     1      43.426 -17.760   6.065  1.00  0.00     0.075 A 
HETATM   31  N   UNL     1      43.855 -17.864   3.575  1.00  0.00    -0.358 N 
HETATM   32  C   UNL     1      42.429 -17.381   6.989  1.00  0.00     0.018 A 
HETATM   33  C   UNL     1      41.201 -16.871   6.576  1.00  0.00     0.002 A 
HETATM   34  H   UNL     1      44.790 -18.250   3.593  1.00  0.00     0.166 HD
HETATM   35  C   UNL     1      43.164 -17.529   2.438  1.00  0.00     0.013 A 
HETATM   36  C   UNL     1      43.755 -17.715   1.087  1.00  0.00     0.068 C 
BRANCH  30  37
HETATM   37  C   UNL     1      44.738 -18.307   6.565  1.00  0.00     0.419 C 
HETATM   38  F   UNL     1      45.770 -17.420   6.451  1.00  0.00    -0.166 F 
HETATM   39  F   UNL     1      44.695 -18.655   7.881  1.00  0.00    -0.166 F 
HETATM   40  F   UNL     1      45.133 -19.424   5.894  1.00  0.00    -0.166 F 
ENDBRANCH  30  37
ENDBRANCH  25  26
ENDBRANCH  24  25
ENDBRANCH  22  24
ENDBRANCH   1  22
TORSDOF 7
ENDMDL
MODEL 3
REMARK VINA RESULT:      -8.6      2.034      4.103
REMARK  7 active torsions:
REMARK  status: ('A' for Active; 'I' for Inactive)
REMARK    1  A    between atoms: C_5  and  N_6 
REMARK    2  A    between atoms: N_6  and  C_7 
REMARK    3  A    between atoms: C_7  and  N_8 
REMARK    4  A    between atoms: N_8  and  C_9 
REMARK    5  A    between atoms: C_9  and  C_10 
REMARK    6  A    between atoms: C_10  and  C_11 
REMARK    7  A    between atoms: C_14  and  C_15 
ROOT
HETATM    1  C   UNL     1      41.881 -13.410   1.214  1.00  0.00     0.102 C 
HETATM    2  C   UNL     1      41.754 -12.900  -0.044  1.00  0.00     0.139 C 
HETATM    3  C   UNL     1      42.172 -11.511  -0.352  1.00  0.00     0.270 C 
HETATM    4  O   UNL     1      42.013 -10.573   0.425  1.00  0.00    -0.267 OA
HETATM    5  N   UNL     1      42.682 -11.349  -1.626  1.00  0.00    -0.270 N 
HETATM    6  C   UNL     1      43.358 -10.097  -1.914  1.00  0.00     0.164 C 
HETATM    7  C   UNL     1      42.301 -12.126  -2.707  1.00  0.00     0.333 C 
HETATM    8  O   UNL     1      42.657 -11.855  -3.856  1.00  0.00    -0.246 OA
HETATM    9  N   UNL     1      41.481 -13.211  -2.432  1.00  0.00    -0.270 N 
HETATM   10  C   UNL     1      41.022 -14.010  -3.555  1.00  0.00     0.164 C 
HETATM   11  C   UNL     1      41.255 -13.729  -1.165  1.00  0.00     0.270 C 
HETATM   12  O   UNL     1      40.729 -14.829  -0.983  1.00  0.00    -0.267 OA
ENDROOT
BRANCH   1  13
HETATM   13  N   UNL     1      42.496 -12.679   2.223  1.00  0.00    -0.245 NA
HETATM   14  H   UNL     1      41.960 -11.834   2.405  1.00  0.00     0.135 HD
BRANCH  13  15
HETATM   15  C   UNL     1      42.915 -13.237   3.461  1.00  0.00     0.014 A 
HETATM   16  C   UNL     1      43.944 -14.181   3.573  1.00  0.00     0.024 A 
HETATM   17  C   UNL     1      44.335 -14.674   4.823  1.00  0.00     0.008 A 
HETATM   18  C   UNL     1      43.727 -14.207   5.993  1.00  0.00    -0.062 A 
HETATM   19  C   UNL     1      44.115 -14.770   7.328  1.00  0.00     0.048 C 
HETATM   20  C   UNL     1      42.716 -13.248   5.891  1.00  0.00     0.008 A 
HETATM   21  C   UNL     1      42.328 -12.758   4.640  1.00  0.00     0.024 A 
ENDBRANCH  13  15
ENDBRANCH   1  13
BRANCH   1  22
HETATM   22  N   UNL     1      41.370 -14.660   1.574  1.00  0.00    -0.379 N 
HETATM   23  H   UNL     1      42.121 -15.328   1.796  1.00  0.00     0.160 HD
BRANCH  22  24
HETATM   24  C   UNL     1      40.202 -14.847   2.436  1.00  0.00     0.125 C 
BRANCH  24  25
HETATM   25  C   UNL     1      39.958 -16.338   2.690  1.00  0.00     0.061 C 
BRANCH  25  26
HETATM   26  C   UNL     1      41.055 -16.954   3.507  1.00  0.00    -0.022 A 
HETATM   27  C   UNL     1      42.089 -17.817   3.017  1.00  0.00    -0.000 A 
HETATM   28  C   UNL     1      42.882 -18.185   4.102  1.00  0.00     0.058 A 
HETATM   29  C   UNL     1      42.412 -18.325   1.742  1.00  0.00     0.014 A 
HETATM   30  C   UNL     1      43.995 -19.046   3.992  1.00  0.00     0.075 A 
HETATM   31  N   UNL     1      42.356 -17.554   5.210  1.00  0.00    -0.358 N 
HETATM   32  C   UNL     1      44.279 -19.533   2.699  1.00  0.00     0.018 A 
HETATM   33  C   UNL     1      43.506 -19.181   1.595  1.00  0.00     0.002 A 
HETATM   34  H   UNL     1      42.735 -17.636   6.145  1.00  0.00     0.166 HD
HETATM   35  C   UNL     1      41.250 -16.817   4.871  1.00  0.00     0.013 A 
HETATM   36  C   UNL     1      40.488 -16.047   5.889  1.00  0.00     0.068 C 
BRANCH  30  37
HETATM   37  C   UNL     1      44.863 -19.458   5.152  1.00  0.00     0.419 C 
HETATM   38  F   UNL     1      44.170 -20.077   6.152  1.00  0.00    -0.166 F 
HETATM   39  F   UNL     1      45.845 -20.331   4.790  1.00  0.00    -0.166 F 
HETATM   40  F   UNL     1      45.496 -18.404   5.737  1.00  0.00    -0.166 F 
ENDBRANCH  30  37
ENDBRANCH  25  26
ENDBRANCH  24  25
ENDBRANCH  22  24
ENDBRANCH   1  22
TORSDOF 7
ENDMDL
MODEL 4
REMARK VINA RESULT:      -8.6      3.347      6.407
REMARK  7 active torsions:
REMARK  status: ('A' for Active; 'I' for Inactive)
REMARK    1  A    between atoms: C_5  and  N_6 
REMARK    2  A    between atoms: N_6  and  C_7 
REMARK    3  A    between atoms: C_7  and  N_8 
REMARK    4  A    between atoms: N_8  and  C_9 
REMARK    5  A    between atoms: C_9  and  C_10 
REMARK    6  A    between atoms: C_10  and  C_11 
REMARK    7  A    between atoms: C_14  and  C_15 
ROOT
HETATM    1  C   UNL     1      42.526 -14.306   5.971  1.00  0.00     0.102 C 
HETATM    2  C   UNL     1      42.862 -13.147   6.606  1.00  0.00     0.139 C 
HETATM    3  C   UNL     1      42.070 -11.909   6.407  1.00  0.00     0.270 C 
HETATM    4  O   UNL     1      41.583 -11.589   5.326  1.00  0.00    -0.267 OA
HETATM    5  N   UNL     1      41.998 -11.103   7.528  1.00  0.00    -0.270 N 
HETATM    6  C   UNL     1      41.032 -10.021   7.504  1.00  0.00     0.164 C 
HETATM    7  C   UNL     1      42.990 -11.046   8.492  1.00  0.00     0.333 C 
HETATM    8  O   UNL     1      42.966 -10.206   9.395  1.00  0.00    -0.246 OA
HETATM    9  N   UNL     1      44.021 -11.968   8.378  1.00  0.00    -0.270 N 
HETATM   10  C   UNL     1      45.102 -11.893   9.346  1.00  0.00     0.164 C 
HETATM   11  C   UNL     1      43.988 -13.092   7.566  1.00  0.00     0.270 C 
HETATM   12  O   UNL     1      44.803 -14.011   7.673  1.00  0.00    -0.267 OA
ENDROOT
BRANCH   1  13
HETATM   13  N   UNL     1      41.376 -14.390   5.196  1.00  0.00    -0.245 NA
HETATM   14  H   UNL     1      40.837 -13.532   5.296  1.00  0.00     0.135 HD
BRANCH  13  15
HETATM   15  C   UNL     1      41.369 -14.786   3.831  1.00  0.00     0.014 A 
HETATM   16  C   UNL     1      42.098 -14.129   2.833  1.00  0.00     0.024 A 
HETATM   17  C   UNL     1      42.077 -14.583   1.510  1.00  0.00     0.008 A 
HETATM   18  C   UNL     1      41.350 -15.726   1.162  1.00  0.00    -0.062 A 
HETATM   19  C   UNL     1      41.291 -16.184  -0.265  1.00  0.00     0.048 C 
HETATM   20  C   UNL     1      40.639 -16.401   2.158  1.00  0.00     0.008 A 
HETATM   21  C   UNL     1      40.663 -15.944   3.479  1.00  0.00     0.024 A 
ENDBRANCH  13  15
ENDBRANCH   1  13
BRANCH   1  22
HETATM   22  N   UNL     1      43.326 -15.450   6.022  1.00  0.00    -0.379 N 
HETATM   23  H   UNL     1      44.308 -15.219   6.230  1.00  0.00     0.160 HD
BRANCH  22  24
HETATM   24  C   UNL     1      42.917 -16.706   6.654  1.00  0.00     0.125 C 
BRANCH  24  25
HETATM   25  C   UNL     1      44.114 -17.653   6.787  1.00  0.00     0.061 C 
BRANCH  25  26
HETATM   26  C   UNL     1      44.041 -18.788   5.810  1.00  0.00    -0.022 A 
HETATM   27  C   UNL     1      44.028 -18.673   4.382  1.00  0.00    -0.000 A 
HETATM   28  C   UNL     1      43.926 -19.959   3.855  1.00  0.00     0.058 A 
HETATM   29  C   UNL     1      44.085 -17.582   3.492  1.00  0.00     0.014 A 
HETATM   30  C   UNL     1      43.873 -20.227   2.470  1.00  0.00     0.075 A 
HETATM   31  N   UNL     1      43.894 -20.826   4.927  1.00  0.00    -0.358 N 
HETATM   32  C   UNL     1      43.929 -19.105   1.617  1.00  0.00     0.018 A 
HETATM   33  C   UNL     1      44.034 -17.808   2.115  1.00  0.00     0.002 A 
HETATM   34  H   UNL     1      43.826 -21.832   4.843  1.00  0.00     0.166 HD
HETATM   35  C   UNL     1      43.952 -20.137   6.112  1.00  0.00     0.013 A 
HETATM   36  C   UNL     1      43.922 -20.840   7.421  1.00  0.00     0.068 C 
BRANCH  30  37
HETATM   37  C   UNL     1      43.760 -21.608   1.880  1.00  0.00     0.419 C 
HETATM   38  F   UNL     1      42.469 -22.004   1.675  1.00  0.00    -0.166 F 
HETATM   39  F   UNL     1      44.374 -21.715   0.669  1.00  0.00    -0.166 F 
HETATM   40  F   UNL     1      44.320 -22.567   2.669  1.00  0.00    -0.166 F 
ENDBRANCH  30  37
ENDBRANCH  25  26
ENDBRANCH  24  25
ENDBRANCH  22  24
ENDBRANCH   1  22
TORSDOF 7
ENDMDL
MODEL 5
REMARK VINA RESULT:      -8.4      2.332      5.066
REMARK  7 active torsions:
REMARK  status: ('A' for Active; 'I' for Inactive)
REMARK    1  A    between atoms: C_5  and  N_6 
REMARK    2  A    between atoms: N_6  and  C_7 
REMARK    3  A    between atoms: C_7  and  N_8 
REMARK    4  A    between atoms: N_8  and  C_9 
REMARK    5  A    between atoms: C_9  and  C_10 
REMARK    6  A    between atoms: C_10  and  C_11 
REMARK    7  A    between atoms: C_14  and  C_15 
ROOT
HETATM    1  C   UNL     1      41.302 -15.012   1.026  1.00  0.00     0.102 C 
HETATM    2  C   UNL     1      41.260 -14.089   2.030  1.00  0.00     0.139 C 
HETATM    3  C   UNL     1      41.562 -12.661   1.768  1.00  0.00     0.270 C 
HETATM    4  O   UNL     1      42.433 -12.290   0.987  1.00  0.00    -0.267 OA
HETATM    5  N   UNL     1      40.832 -11.783   2.546  1.00  0.00    -0.270 N 
HETATM    6  C   UNL     1      40.865 -10.381   2.170  1.00  0.00     0.164 C 
HETATM    7  C   UNL     1      40.370 -12.088   3.815  1.00  0.00     0.333 C 
HETATM    8  O   UNL     1      39.859 -11.231   4.540  1.00  0.00    -0.246 OA
HETATM    9  N   UNL     1      40.533 -13.400   4.236  1.00  0.00    -0.270 N 
HETATM   10  C   UNL     1      40.107 -13.732   5.585  1.00  0.00     0.164 C 
HETATM   11  C   UNL     1      40.850 -14.462   3.403  1.00  0.00     0.270 C 
HETATM   12  O   UNL     1      40.744 -15.638   3.759  1.00  0.00    -0.267 OA
ENDROOT
BRANCH   1  13
HETATM   13  N   UNL     1      41.532 -14.628  -0.289  1.00  0.00    -0.245 NA
HETATM   14  H   UNL     1      42.388 -15.063  -0.624  1.00  0.00     0.135 HD
BRANCH  13  15
HETATM   15  C   UNL     1      40.549 -14.687  -1.314  1.00  0.00     0.014 A 
HETATM   16  C   UNL     1      40.694 -15.450  -2.479  1.00  0.00     0.024 A 
HETATM   17  C   UNL     1      39.680 -15.494  -3.441  1.00  0.00     0.008 A 
HETATM   18  C   UNL     1      38.481 -14.800  -3.243  1.00  0.00    -0.062 A 
HETATM   19  C   UNL     1      37.414 -14.811  -4.296  1.00  0.00     0.048 C 
HETATM   20  C   UNL     1      38.320 -14.055  -2.072  1.00  0.00     0.008 A 
HETATM   21  C   UNL     1      39.336 -14.015  -1.112  1.00  0.00     0.024 A 
ENDBRANCH  13  15
ENDBRANCH   1  13
BRANCH   1  22
HETATM   22  N   UNL     1      41.163 -16.382   1.259  1.00  0.00    -0.379 N 
HETATM   23  H   UNL     1      40.240 -16.728   0.960  1.00  0.00     0.160 HD
BRANCH  22  24
HETATM   24  C   UNL     1      42.219 -17.365   1.008  1.00  0.00     0.125 C 
BRANCH  24  25
HETATM   25  C   UNL     1      43.467 -17.031   1.832  1.00  0.00     0.061 C 
BRANCH  25  26
HETATM   26  C   UNL     1      43.770 -18.095   2.844  1.00  0.00    -0.022 A 
HETATM   27  C   UNL     1      43.986 -19.485   2.569  1.00  0.00    -0.000 A 
HETATM   28  C   UNL     1      44.210 -20.127   3.786  1.00  0.00     0.058 A 
HETATM   29  C   UNL     1      43.999 -20.253   1.388  1.00  0.00     0.014 A 
HETATM   30  C   UNL     1      44.448 -21.514   3.897  1.00  0.00     0.075 A 
HETATM   31  N   UNL     1      44.148 -19.157   4.763  1.00  0.00    -0.358 N 
HETATM   32  C   UNL     1      44.449 -22.244   2.690  1.00  0.00     0.018 A 
HETATM   33  C   UNL     1      44.230 -21.629   1.459  1.00  0.00     0.002 A 
HETATM   34  H   UNL     1      44.279 -19.336   5.751  1.00  0.00     0.166 HD
HETATM   35  C   UNL     1      43.875 -17.930   4.215  1.00  0.00     0.013 A 
HETATM   36  C   UNL     1      43.744 -16.714   5.060  1.00  0.00     0.068 C 
BRANCH  30  37
HETATM   37  C   UNL     1      44.690 -22.228   5.201  1.00  0.00     0.419 C 
HETATM   38  F   UNL     1      43.996 -23.398   5.312  1.00  0.00    -0.166 F 
HETATM   39  F   UNL     1      45.999 -22.557   5.386  1.00  0.00    -0.166 F 
HETATM   40  F   UNL     1      44.335 -21.483   6.284  1.00  0.00    -0.166 F 
ENDBRANCH  30  37
ENDBRANCH  25  26
ENDBRANCH  24  25
ENDBRANCH  22  24
ENDBRANCH   1  22
TORSDOF 7
ENDMDL
MODEL 6
REMARK VINA RESULT:      -8.3      1.733      4.519
REMARK  7 active torsions:
REMARK  status: ('A' for Active; 'I' for Inactive)
REMARK    1  A    between atoms: C_5  and  N_6 
REMARK    2  A    between atoms: N_6  and  C_7 
REMARK    3  A    between atoms: C_7  and  N_8 
REMARK    4  A    between atoms: N_8  and  C_9 
REMARK    5  A    between atoms: C_9  and  C_10 
REMARK    6  A    between atoms: C_10  and  C_11 
REMARK    7  A    between atoms: C_14  and  C_15 
ROOT
HETATM    1  C   UNL     1      40.297 -14.913   0.959  1.00  0.00     0.102 C 
HETATM    2  C   UNL     1      39.569 -14.271   0.001  1.00  0.00     0.139 C 
HETATM    3  C   UNL     1      38.205 -13.766   0.289  1.00  0.00     0.270 C 
HETATM    4  O   UNL     1      37.401 -14.364   0.999  1.00  0.00    -0.267 OA
HETATM    5  N   UNL     1      37.886 -12.600  -0.381  1.00  0.00    -0.270 N 
HETATM    6  C   UNL     1      36.690 -11.897   0.045  1.00  0.00     0.164 C 
HETATM    7  C   UNL     1      38.418 -12.256  -1.612  1.00  0.00     0.333 C 
HETATM    8  O   UNL     1      37.997 -11.289  -2.251  1.00  0.00    -0.246 OA
HETATM    9  N   UNL     1      39.433 -13.069  -2.098  1.00  0.00    -0.270 N 
HETATM   10  C   UNL     1      39.970 -12.762  -3.413  1.00  0.00     0.164 C 
HETATM   11  C   UNL     1      40.131 -13.998  -1.342  1.00  0.00     0.270 C 
HETATM   12  O   UNL     1      41.178 -14.519  -1.732  1.00  0.00    -0.267 OA
ENDROOT
BRANCH   1  13
HETATM   13  N   UNL     1      39.826 -15.026   2.260  1.00  0.00    -0.245 NA
HETATM   14  H   UNL     1      39.943 -15.983   2.582  1.00  0.00     0.135 HD
BRANCH  13  15
HETATM   15  C   UNL     1      40.182 -14.137   3.311  1.00  0.00     0.014 A 
HETATM   16  C   UNL     1      40.793 -12.895   3.097  1.00  0.00     0.024 A 
HETATM   17  C   UNL     1      41.094 -12.048   4.169  1.00  0.00     0.008 A 
HETATM   18  C   UNL     1      40.759 -12.410   5.477  1.00  0.00    -0.062 A 
HETATM   19  C   UNL     1      41.123 -11.521   6.629  1.00  0.00     0.048 C 
HETATM   20  C   UNL     1      40.127 -13.637   5.696  1.00  0.00     0.008 A 
HETATM   21  C   UNL     1      39.828 -14.481   4.622  1.00  0.00     0.024 A 
ENDBRANCH  13  15
ENDBRANCH   1  13
BRANCH   1  22
HETATM   22  N   UNL     1      41.523 -15.526   0.686  1.00  0.00    -0.379 N 
HETATM   23  H   UNL     1      42.308 -15.010   1.107  1.00  0.00     0.160 HD
BRANCH  22  24
HETATM   24  C   UNL     1      41.739 -16.973   0.725  1.00  0.00     0.125 C 
BRANCH  24  25
HETATM   25  C   UNL     1      43.209 -17.287   1.021  1.00  0.00     0.061 C 
BRANCH  25  26
HETATM   26  C   UNL     1      43.412 -17.726   2.441  1.00  0.00    -0.022 A 
HETATM   27  C   UNL     1      43.465 -16.871   3.590  1.00  0.00    -0.000 A 
HETATM   28  C   UNL     1      43.694 -17.675   4.705  1.00  0.00     0.058 A 
HETATM   29  C   UNL     1      43.347 -15.479   3.774  1.00  0.00     0.014 A 
HETATM   30  C   UNL     1      43.817 -17.165   6.015  1.00  0.00     0.075 A 
HETATM   31  N   UNL     1      43.762 -18.975   4.250  1.00  0.00    -0.358 N 
HETATM   32  C   UNL     1      43.696 -15.767   6.152  1.00  0.00     0.018 A 
HETATM   33  C   UNL     1      43.465 -14.938   5.057  1.00  0.00     0.002 A 
HETATM   34  H   UNL     1      43.917 -19.779   4.845  1.00  0.00     0.166 HD
HETATM   35  C   UNL     1      43.604 -19.023   2.888  1.00  0.00     0.013 A 
HETATM   36  C   UNL     1      43.648 -20.310   2.146  1.00  0.00     0.068 C 
BRANCH  30  37
HETATM   37  C   UNL     1      44.067 -18.015   7.234  1.00  0.00     0.419 C 
HETATM   38  F   UNL     1      43.790 -17.373   8.406  1.00  0.00    -0.166 F 
HETATM   39  F   UNL     1      43.312 -19.149   7.248  1.00  0.00    -0.166 F 
HETATM   40  F   UNL     1      45.361 -18.426   7.334  1.00  0.00    -0.166 F 
ENDBRANCH  30  37
ENDBRANCH  25  26
ENDBRANCH  24  25
ENDBRANCH  22  24
ENDBRANCH   1  22
TORSDOF 7
ENDMDL
MODEL 7
REMARK VINA RESULT:      -8.2      2.233      4.712
REMARK  7 active torsions:
REMARK  status: ('A' for Active; 'I' for Inactive)
REMARK    1  A    between atoms: C_5  and  N_6 
REMARK    2  A    between atoms: N_6  and  C_7 
REMARK    3  A    between atoms: C_7  and  N_8 
REMARK    4  A    between atoms: N_8  and  C_9 
REMARK    5  A    between atoms: C_9  and  C_10 
REMARK    6  A    between atoms: C_10  and  C_11 
REMARK    7  A    between atoms: C_14  and  C_15 
ROOT
HETATM    1  C   UNL     1      41.667 -14.579   0.366  1.00  0.00     0.102 C 
HETATM    2  C   UNL     1      41.771 -13.363   0.977  1.00  0.00     0.139 C 
HETATM    3  C   UNL     1      42.059 -12.137   0.195  1.00  0.00     0.270 C 
HETATM    4  O   UNL     1      42.826 -12.115  -0.764  1.00  0.00    -0.267 OA
HETATM    5  N   UNL     1      41.450 -11.000   0.692  1.00  0.00    -0.270 N 
HETATM    6  C   UNL     1      41.456  -9.822  -0.156  1.00  0.00     0.164 C 
HETATM    7  C   UNL     1      41.153 -10.815   2.031  1.00  0.00     0.333 C 
HETATM    8  O   UNL     1      40.754  -9.731   2.462  1.00  0.00    -0.246 OA
HETATM    9  N   UNL     1      41.350 -11.906   2.867  1.00  0.00    -0.270 N 
HETATM   10  C   UNL     1      41.099 -11.721   4.286  1.00  0.00     0.164 C 
HETATM   11  C   UNL     1      41.539 -13.209   2.432  1.00  0.00     0.270 C 
HETATM   12  O   UNL     1      41.462 -14.179   3.190  1.00  0.00    -0.267 OA
ENDROOT
BRANCH   1  13
HETATM   13  N   UNL     1      41.729 -14.691  -1.016  1.00  0.00    -0.245 NA
HETATM   14  H   UNL     1      42.364 -15.446  -1.267  1.00  0.00     0.135 HD
BRANCH  13  15
HETATM   15  C   UNL     1      40.585 -14.750  -1.858  1.00  0.00     0.014 A 
HETATM   16  C   UNL     1      40.515 -15.541  -3.011  1.00  0.00     0.024 A 
HETATM   17  C   UNL     1      39.350 -15.582  -3.785  1.00  0.00     0.008 A 
HETATM   18  C   UNL     1      38.217 -14.857  -3.404  1.00  0.00    -0.062 A 
HETATM   19  C   UNL     1      36.986 -14.865  -4.260  1.00  0.00     0.048 C 
HETATM   20  C   UNL     1      38.272 -14.083  -2.241  1.00  0.00     0.008 A 
HETATM   21  C   UNL     1      39.437 -14.045  -1.470  1.00  0.00     0.024 A 
ENDBRANCH  13  15
ENDBRANCH   1  13
BRANCH   1  22
HETATM   22  N   UNL     1      41.539 -15.771   1.083  1.00  0.00    -0.379 N 
HETATM   23  H   UNL     1      40.597 -16.175   0.984  1.00  0.00     0.160 HD
BRANCH  22  24
HETATM   24  C   UNL     1      42.572 -16.806   1.138  1.00  0.00     0.125 C 
BRANCH  24  25
HETATM   25  C   UNL     1      42.018 -18.082   1.780  1.00  0.00     0.061 C 
BRANCH  25  26
HETATM   26  C   UNL     1      42.664 -18.370   3.102  1.00  0.00    -0.022 A 
HETATM   27  C   UNL     1      42.276 -17.822   4.369  1.00  0.00    -0.000 A 
HETATM   28  C   UNL     1      43.147 -18.325   5.332  1.00  0.00     0.058 A 
HETATM   29  C   UNL     1      41.261 -16.931   4.774  1.00  0.00     0.014 A 
HETATM   30  C   UNL     1      43.069 -17.985   6.700  1.00  0.00     0.075 A 
HETATM   31  N   UNL     1      44.025 -19.162   4.676  1.00  0.00    -0.358 N 
HETATM   32  C   UNL     1      42.041 -17.088   7.060  1.00  0.00     0.018 A 
HETATM   33  C   UNL     1      41.154 -16.571   6.120  1.00  0.00     0.002 A 
HETATM   34  H   UNL     1      44.771 -19.673   5.130  1.00  0.00     0.166 HD
HETATM   35  C   UNL     1      43.754 -19.193   3.331  1.00  0.00     0.013 A 
HETATM   36  C   UNL     1      44.565 -20.014   2.395  1.00  0.00     0.068 C 
BRANCH  30  37
HETATM   37  C   UNL     1      44.002 -18.514   7.758  1.00  0.00     0.419 C 
HETATM   38  F   UNL     1      43.829 -19.844   8.013  1.00  0.00    -0.166 F 
HETATM   39  F   UNL     1      45.315 -18.372   7.421  1.00  0.00    -0.166 F 
HETATM   40  F   UNL     1      43.852 -17.885   8.956  1.00  0.00    -0.166 F 
ENDBRANCH  30  37
ENDBRANCH  25  26
ENDBRANCH  24  25
ENDBRANCH  22  24
ENDBRANCH   1  22
TORSDOF 7
ENDMDL
MODEL 8
REMARK VINA RESULT:      -8.0      2.320      4.748
REMARK  7 active torsions:
REMARK  status: ('A' for Active; 'I' for Inactive)
REMARK    1  A    between atoms: C_5  and  N_6 
REMARK    2  A    between atoms: N_6  and  C_7 
REMARK    3  A    between atoms: C_7  and  N_8 
REMARK    4  A    between atoms: N_8  and  C_9 
REMARK    5  A    between atoms: C_9  and  C_10 
REMARK    6  A    between atoms: C_10  and  C_11 
REMARK    7  A    between atoms: C_14  and  C_15 
ROOT
HETATM    1  C   UNL     1      41.915 -13.927   1.654  1.00  0.00     0.102 C 
HETATM    2  C   UNL     1      41.807 -13.420   0.393  1.00  0.00     0.139 C 
HETATM    3  C   UNL     1      42.147 -12.005   0.106  1.00  0.00     0.270 C 
HETATM    4  O   UNL     1      41.897 -11.083   0.878  1.00  0.00    -0.267 OA
HETATM    5  N   UNL     1      42.698 -11.804  -1.146  1.00  0.00    -0.270 N 
HETATM    6  C   UNL     1      43.303 -10.510  -1.402  1.00  0.00     0.164 C 
HETATM    7  C   UNL     1      42.412 -12.599  -2.243  1.00  0.00     0.333 C 
HETATM    8  O   UNL     1      42.796 -12.299  -3.376  1.00  0.00    -0.246 OA
HETATM    9  N   UNL     1      41.652 -13.735  -2.005  1.00  0.00    -0.270 N 
HETATM   10  C   UNL     1      41.292 -14.556  -3.148  1.00  0.00     0.164 C 
HETATM   11  C   UNL     1      41.408 -14.273  -0.750  1.00  0.00     0.270 C 
HETATM   12  O   UNL     1      40.947 -15.406  -0.593  1.00  0.00    -0.267 OA
ENDROOT
BRANCH   1  13
HETATM   13  N   UNL     1      42.440 -13.164   2.689  1.00  0.00    -0.245 NA
HETATM   14  H   UNL     1      42.926 -12.358   2.303  1.00  0.00     0.135 HD
BRANCH  13  15
HETATM   15  C   UNL     1      41.693 -12.754   3.827  1.00  0.00     0.014 A 
HETATM   16  C   UNL     1      40.339 -12.399   3.775  1.00  0.00     0.024 A 
HETATM   17  C   UNL     1      39.647 -12.032   4.934  1.00  0.00     0.008 A 
HETATM   18  C   UNL     1      40.286 -12.044   6.177  1.00  0.00    -0.062 A 
HETATM   19  C   UNL     1      39.556 -11.605   7.412  1.00  0.00     0.048 C 
HETATM   20  C   UNL     1      41.631 -12.419   6.241  1.00  0.00     0.008 A 
HETATM   21  C   UNL     1      42.319 -12.786   5.080  1.00  0.00     0.024 A 
ENDBRANCH  13  15
ENDBRANCH   1  13
BRANCH   1  22
HETATM   22  N   UNL     1      41.471 -15.209   1.989  1.00  0.00    -0.379 N 
HETATM   23  H   UNL     1      41.333 -15.794   1.154  1.00  0.00     0.160 HD
BRANCH  22  24
HETATM   24  C   UNL     1      41.989 -15.984   3.118  1.00  0.00     0.125 C 
BRANCH  24  25
HETATM   25  C   UNL     1      43.415 -16.462   2.829  1.00  0.00     0.061 C 
BRANCH  25  26
HETATM   26  C   UNL     1      43.764 -17.690   3.616  1.00  0.00    -0.022 A 
HETATM   27  C   UNL     1      43.907 -19.016   3.091  1.00  0.00    -0.000 A 
HETATM   28  C   UNL     1      44.209 -19.862   4.157  1.00  0.00     0.058 A 
HETATM   29  C   UNL     1      43.794 -19.570   1.800  1.00  0.00     0.014 A 
HETATM   30  C   UNL     1      44.406 -21.252   4.010  1.00  0.00     0.075 A 
HETATM   31  N   UNL     1      44.264 -19.073   5.286  1.00  0.00    -0.358 N 
HETATM   32  C   UNL     1      44.281 -21.763   2.702  1.00  0.00     0.018 A 
HETATM   33  C   UNL     1      43.981 -20.942   1.617  1.00  0.00     0.002 A 
HETATM   34  H   UNL     1      44.470 -19.422   6.214  1.00  0.00     0.166 HD
HETATM   35  C   UNL     1      43.989 -17.765   4.980  1.00  0.00     0.013 A 
HETATM   36  C   UNL     1      43.972 -16.710   6.027  1.00  0.00     0.068 C 
BRANCH  30  37
HETATM   37  C   UNL     1      44.731 -22.184   5.148  1.00  0.00     0.419 C 
HETATM   38  F   UNL     1      44.385 -21.685   6.371  1.00  0.00    -0.166 F 
HETATM   39  F   UNL     1      44.092 -23.383   5.045  1.00  0.00    -0.166 F 
HETATM   40  F   UNL     1      46.060 -22.474   5.230  1.00  0.00    -0.166 F 
ENDBRANCH  30  37
ENDBRANCH  25  26
ENDBRANCH  24  25
ENDBRANCH  22  24
ENDBRANCH   1  22
TORSDOF 7
ENDMDL
MODEL 9
REMARK VINA RESULT:      -7.9      1.805      3.595
REMARK  7 active torsions:
REMARK  status: ('A' for Active; 'I' for Inactive)
REMARK    1  A    between atoms: C_5  and  N_6 
REMARK    2  A    between atoms: N_6  and  C_7 
REMARK    3  A    between atoms: C_7  and  N_8 
REMARK    4  A    between atoms: N_8  and  C_9 
REMARK    5  A    between atoms: C_9  and  C_10 
REMARK    6  A    between atoms: C_10  and  C_11 
REMARK    7  A    between atoms: C_14  and  C_15 
ROOT
HETATM    1  C   UNL     1      40.918 -12.750   1.661  1.00  0.00     0.102 C 
HETATM    2  C   UNL     1      40.744 -12.780   0.309  1.00  0.00     0.139 C 
HETATM    3  C   UNL     1      41.838 -12.386  -0.612  1.00  0.00     0.270 C 
HETATM    4  O   UNL     1      42.615 -11.464  -0.378  1.00  0.00    -0.267 OA
HETATM    5  N   UNL     1      41.855 -13.096  -1.797  1.00  0.00    -0.270 N 
HETATM    6  C   UNL     1      43.038 -12.967  -2.629  1.00  0.00     0.164 C 
HETATM    7  C   UNL     1      40.721 -13.625  -2.388  1.00  0.00     0.333 C 
HETATM    8  O   UNL     1      40.749 -14.116  -3.519  1.00  0.00    -0.246 OA
HETATM    9  N   UNL     1      39.547 -13.555  -1.650  1.00  0.00    -0.270 N 
HETATM   10  C   UNL     1      38.331 -14.054  -2.270  1.00  0.00     0.164 C 
HETATM   11  C   UNL     1      39.482 -13.265  -0.296  1.00  0.00     0.270 C 
HETATM   12  O   UNL     1      38.464 -13.453   0.374  1.00  0.00    -0.267 OA
ENDROOT
BRANCH   1  13
HETATM   13  N   UNL     1      42.154 -12.445   2.216  1.00  0.00    -0.245 NA
HETATM   14  H   UNL     1      42.245 -11.436   2.309  1.00  0.00     0.135 HD
BRANCH  13  15
HETATM   15  C   UNL     1      42.671 -13.066   3.386  1.00  0.00     0.014 A 
HETATM   16  C   UNL     1      43.655 -14.062   3.360  1.00  0.00     0.024 A 
HETATM   17  C   UNL     1      44.148 -14.616   4.546  1.00  0.00     0.008 A 
HETATM   18  C   UNL     1      43.691 -14.162   5.787  1.00  0.00    -0.062 A 
HETATM   19  C   UNL     1      44.187 -14.789   7.056  1.00  0.00     0.048 C 
HETATM   20  C   UNL     1      42.727 -13.151   5.822  1.00  0.00     0.008 A 
HETATM   21  C   UNL     1      42.237 -12.599   4.634  1.00  0.00     0.024 A 
ENDBRANCH  13  15
ENDBRANCH   1  13
BRANCH   1  22
HETATM   22  N   UNL     1      39.871 -12.976   2.559  1.00  0.00    -0.379 N 
HETATM   23  H   UNL     1      38.958 -12.738   2.147  1.00  0.00     0.160 HD
BRANCH  22  24
HETATM   24  C   UNL     1      39.784 -14.146   3.434  1.00  0.00     0.125 C 
BRANCH  24  25
HETATM   25  C   UNL     1      39.697 -15.431   2.603  1.00  0.00     0.061 C 
BRANCH  25  26
HETATM   26  C   UNL     1      40.852 -16.349   2.870  1.00  0.00    -0.022 A 
HETATM   27  C   UNL     1      41.289 -16.804   4.157  1.00  0.00    -0.000 A 
HETATM   28  C   UNL     1      42.404 -17.616   3.962  1.00  0.00     0.058 A 
HETATM   29  C   UNL     1      40.836 -16.584   5.473  1.00  0.00     0.014 A 
HETATM   30  C   UNL     1      43.109 -18.231   5.019  1.00  0.00     0.075 A 
HETATM   31  N   UNL     1      42.627 -17.666   2.602  1.00  0.00    -0.358 N 
HETATM   32  C   UNL     1      42.622 -17.981   6.319  1.00  0.00     0.018 A 
HETATM   33  C   UNL     1      41.509 -17.175   6.545  1.00  0.00     0.002 A 
HETATM   34  H   UNL     1      43.375 -18.190   2.167  1.00  0.00     0.166 HD
HETATM   35  C   UNL     1      41.707 -16.901   1.930  1.00  0.00     0.013 A 
HETATM   36  C   UNL     1      41.735 -16.776   0.450  1.00  0.00     0.068 C 
BRANCH  30  37
HETATM   37  C   UNL     1      44.318 -19.111   4.831  1.00  0.00     0.419 C 
HETATM   38  F   UNL     1      44.640 -19.312   3.520  1.00  0.00    -0.166 F 
HETATM   39  F   UNL     1      45.438 -18.597   5.412  1.00  0.00    -0.166 F 
HETATM   40  F   UNL     1      44.154 -20.352   5.366  1.00  0.00    -0.166 F 
ENDBRANCH  30  37
ENDBRANCH  25  26
ENDBRANCH  24  25
ENDBRANCH  22  24
ENDBRANCH   1  22
TORSDOF 7
ENDMDL
MODEL 10
REMARK VINA RESULT:      -7.9      2.084      5.323
REMARK  7 active torsions:
REMARK  status: ('A' for Active; 'I' for Inactive)
REMARK    1  A    between atoms: C_5  and  N_6 
REMARK    2  A    between atoms: N_6  and  C_7 
REMARK    3  A    between atoms: C_7  and  N_8 
REMARK    4  A    between atoms: N_8  and  C_9 
REMARK    5  A    between atoms: C_9  and  C_10 
REMARK    6  A    between atoms: C_10  and  C_11 
REMARK    7  A    between atoms: C_14  and  C_15 
ROOT
HETATM    1  C   UNL     1      41.952 -14.461   1.340  1.00  0.00     0.102 C 
HETATM    2  C   UNL     1      42.205 -13.733   2.466  1.00  0.00     0.139 C 
HETATM    3  C   UNL     1      41.493 -12.458   2.728  1.00  0.00     0.270 C 
HETATM    4  O   UNL     1      41.208 -11.653   1.845  1.00  0.00    -0.267 OA
HETATM    5  N   UNL     1      41.252 -12.217   4.067  1.00  0.00    -0.270 N 
HETATM    6  C   UNL     1      40.333 -11.141   4.390  1.00  0.00     0.164 C 
HETATM    7  C   UNL     1      42.063 -12.685   5.086  1.00  0.00     0.333 C 
HETATM    8  O   UNL     1      41.908 -12.323   6.255  1.00  0.00    -0.246 OA
HETATM    9  N   UNL     1      43.073 -13.564   4.721  1.00  0.00    -0.270 N 
HETATM   10  C   UNL     1      43.973 -14.027   5.765  1.00  0.00     0.164 C 
HETATM   11  C   UNL     1      43.150 -14.214   3.499  1.00  0.00     0.270 C 
HETATM   12  O   UNL     1      43.910 -15.165   3.300  1.00  0.00    -0.267 OA
ENDROOT
BRANCH   1  13
HETATM   13  N   UNL     1      40.951 -14.083   0.455  1.00  0.00    -0.245 NA
HETATM   14  H   UNL     1      40.245 -13.544   0.950  1.00  0.00     0.135 HD
BRANCH  13  15
HETATM   15  C   UNL     1      41.198 -13.475  -0.806  1.00  0.00     0.014 A 
HETATM   16  C   UNL     1      40.252 -13.427  -1.838  1.00  0.00     0.024 A 
HETATM   17  C   UNL     1      40.541 -12.788  -3.049  1.00  0.00     0.008 A 
HETATM   18  C   UNL     1      41.772 -12.153  -3.242  1.00  0.00    -0.062 A 
HETATM   19  C   UNL     1      42.097 -11.509  -4.557  1.00  0.00     0.048 C 
HETATM   20  C   UNL     1      42.712 -12.177  -2.208  1.00  0.00     0.008 A 
HETATM   21  C   UNL     1      42.419 -12.816  -0.999  1.00  0.00     0.024 A 
ENDBRANCH  13  15
ENDBRANCH   1  13
BRANCH   1  22
HETATM   22  N   UNL     1      42.700 -15.587   0.990  1.00  0.00    -0.379 N 
HETATM   23  H   UNL     1      43.507 -15.718   1.616  1.00  0.00     0.160 HD
BRANCH  22  24
HETATM   24  C   UNL     1      42.112 -16.866   0.586  1.00  0.00     0.125 C 
BRANCH  24  25
HETATM   25  C   UNL     1      41.200 -17.408   1.692  1.00  0.00     0.061 C 
BRANCH  25  26
HETATM   26  C   UNL     1      41.984 -17.899   2.873  1.00  0.00    -0.022 A 
HETATM   27  C   UNL     1      41.826 -17.466   4.230  1.00  0.00    -0.000 A 
HETATM   28  C   UNL     1      42.762 -18.150   5.003  1.00  0.00     0.058 A 
HETATM   29  C   UNL     1      40.971 -16.543   4.864  1.00  0.00     0.014 A 
HETATM   30  C   UNL     1      42.901 -17.962   6.395  1.00  0.00     0.075 A 
HETATM   31  N   UNL     1      43.454 -18.980   4.147  1.00  0.00    -0.358 N 
HETATM   32  C   UNL     1      42.028 -17.026   6.987  1.00  0.00     0.018 A 
HETATM   33  C   UNL     1      41.081 -16.329   6.240  1.00  0.00     0.002 A 
HETATM   34  H   UNL     1      44.197 -19.603   4.436  1.00  0.00     0.166 HD
HETATM   35  C   UNL     1      43.005 -18.835   2.859  1.00  0.00     0.013 A 
HETATM   36  C   UNL     1      43.596 -19.612   1.739  1.00  0.00     0.068 C 
BRANCH  30  37
HETATM   37  C   UNL     1      43.908 -18.688   7.250  1.00  0.00     0.419 C 
HETATM   38  F   UNL     1      43.905 -18.278   8.552  1.00  0.00    -0.166 F 
HETATM   39  F   UNL     1      43.695 -20.033   7.286  1.00  0.00    -0.166 F 
HETATM   40  F   UNL     1      45.187 -18.522   6.813  1.00  0.00    -0.166 F 
ENDBRANCH  30  37
ENDBRANCH  25  26
ENDBRANCH  24  25
ENDBRANCH  22  24
ENDBRANCH   1  22
TORSDOF 7
ENDMDL
