MODEL 1
REMARK VINA RESULT:      -7.2      0.000      0.000
REMARK  8 active torsions:
REMARK  status: ('A' for Active; 'I' for Inactive)
REMARK    1  A    between atoms: C_2  and  N_3 
REMARK    2  A    between atoms: C_2  and  C_17 
REMARK    3  A    between atoms: N_3  and  C_6 
REMARK    4  A    between atoms: C_6  and  C_7 
REMARK    5  A    between atoms: C_7  and  O_8 
REMARK    6  A    between atoms: C_7  and  C_9 
REMARK    7  A    between atoms: C_11  and  O_12 
REMARK    8  A    between atoms: C_17  and  C_18 
ROOT
HETATM    1  N   UNL     1      40.362 -16.941   2.454  1.00  0.00    -0.068 N 
HETATM    2  H   UNL     1      40.961 -16.772   3.275  1.00  0.00     0.277 HD
HETATM    3  H   UNL     1      39.697 -17.674   2.760  1.00  0.00     0.277 HD
ENDROOT
BRANCH   1   4
HETATM    4  C   UNL     1      39.665 -15.660   2.068  1.00  0.00     0.188 C 
HETATM    5  C   UNL     1      40.345 -15.157   0.791  1.00  0.00     0.040 C 
BRANCH   4   6
HETATM    6  C   UNL     1      39.754 -14.627   3.207  1.00  0.00     0.099 C 
BRANCH   6   7
HETATM    7  C   UNL     1      40.787 -15.017   4.220  1.00  0.00     0.078 A 
HETATM    8  S   UNL     1      42.338 -14.291   4.196  1.00  0.00    -0.073 SA
HETATM    9  C   UNL     1      42.810 -15.254   5.544  1.00  0.00     0.035 A 
HETATM   10  C   UNL     1      41.739 -16.069   5.916  1.00  0.00     0.074 A 
HETATM   11  C   UNL     1      44.039 -15.286   6.223  1.00  0.00     0.021 A 
HETATM   12  N   UNL     1      40.592 -15.928   5.144  1.00  0.00    -0.245 NA
HETATM   13  C   UNL     1      41.898 -16.944   7.009  1.00  0.00     0.033 A 
HETATM   14  C   UNL     1      43.117 -16.982   7.695  1.00  0.00     0.002 A 
HETATM   15  C   UNL     1      44.172 -16.164   7.304  1.00  0.00     0.002 A 
ENDBRANCH   6   7
ENDBRANCH   4   6
ENDBRANCH   1   4
BRANCH   1  16
HETATM   16  C   UNL     1      41.237 -17.588   1.402  1.00  0.00     0.269 C 
BRANCH  16  17
HETATM   17  C   UNL     1      42.714 -17.311   1.762  1.00  0.00     0.177 C 
BRANCH  17  18
HETATM   18  O   UNL     1      43.388 -16.992   0.534  1.00  0.00    -0.389 OA
HETATM   19  H   UNL     1      43.305 -17.784  -0.037  1.00  0.00     0.210 HD
ENDBRANCH  17  18
BRANCH  17  20
HETATM   20  C   UNL     1      43.362 -18.501   2.436  1.00  0.00    -0.025 A 
HETATM   21  C   UNL     1      43.698 -18.416   3.801  1.00  0.00     0.046 A 
HETATM   22  C   UNL     1      44.258 -19.507   4.469  1.00  0.00     0.068 A 
HETATM   23  C   UNL     1      44.469 -20.698   3.775  1.00  0.00     0.037 A 
HETATM   24  C   UNL     1      44.153 -20.797   2.422  1.00  0.00     0.003 A 
HETATM   25  C   UNL     1      43.607 -19.704   1.752  1.00  0.00     0.010 A 
BRANCH  22  26
HETATM   26  O   UNL     1      44.616 -19.542   5.786  1.00  0.00    -0.356 OA
HETATM   27  C   UNL     1      43.872 -20.403   6.641  1.00  0.00     0.210 C 
ENDBRANCH  22  26
ENDBRANCH  17  20
ENDBRANCH  16  17
ENDBRANCH   1  16
TORSDOF 8
ENDMDL
MODEL 2
REMARK VINA RESULT:      -7.1      2.413      6.224
REMARK  8 active torsions:
REMARK  status: ('A' for Active; 'I' for Inactive)
REMARK    1  A    between atoms: C_2  and  N_3 
REMARK    2  A    between atoms: C_2  and  C_17 
REMARK    3  A    between atoms: N_3  and  C_6 
REMARK    4  A    between atoms: C_6  and  C_7 
REMARK    5  A    between atoms: C_7  and  O_8 
REMARK    6  A    between atoms: C_7  and  C_9 
REMARK    7  A    between atoms: C_11  and  O_12 
REMARK    8  A    between atoms: C_17  and  C_18 
ROOT
HETATM    1  N   UNL     1      41.987 -15.590   6.675  1.00  0.00    -0.068 N 
HETATM    2  H   UNL     1      40.987 -15.796   6.811  1.00  0.00     0.277 HD
HETATM    3  H   UNL     1      42.237 -14.967   7.465  1.00  0.00     0.277 HD
ENDROOT
BRANCH   1   4
HETATM    4  C   UNL     1      42.772 -16.878   6.689  1.00  0.00     0.188 C 
HETATM    5  C   UNL     1      43.314 -17.046   8.112  1.00  0.00     0.040 C 
BRANCH   4   6
HETATM    6  C   UNL     1      43.905 -16.837   5.647  1.00  0.00     0.099 C 
BRANCH   6   7
HETATM    7  C   UNL     1      44.016 -18.136   4.908  1.00  0.00     0.078 A 
HETATM    8  S   UNL     1      44.644 -19.524   5.690  1.00  0.00    -0.073 SA
HETATM    9  C   UNL     1      44.444 -20.432   4.240  1.00  0.00     0.035 A 
HETATM   10  C   UNL     1      43.909 -19.600   3.254  1.00  0.00     0.074 A 
HETATM   11  C   UNL     1      44.739 -21.782   3.992  1.00  0.00     0.021 A 
HETATM   12  N   UNL     1      43.677 -18.288   3.649  1.00  0.00    -0.245 NA
HETATM   13  C   UNL     1      43.653 -20.136   1.977  1.00  0.00     0.033 A 
HETATM   14  C   UNL     1      43.941 -21.482   1.720  1.00  0.00     0.002 A 
HETATM   15  C   UNL     1      44.477 -22.291   2.715  1.00  0.00     0.002 A 
ENDBRANCH   6   7
ENDBRANCH   4   6
ENDBRANCH   1   4
BRANCH   1  16
HETATM   16  C   UNL     1      42.091 -14.739   5.428  1.00  0.00     0.269 C 
BRANCH  16  17
HETATM   17  C   UNL     1      40.694 -14.671   4.769  1.00  0.00     0.177 C 
BRANCH  17  18
HETATM   18  O   UNL     1      39.799 -15.412   5.614  1.00  0.00    -0.389 OA
HETATM   19  H   UNL     1      39.306 -14.747   6.138  1.00  0.00     0.210 HD
ENDBRANCH  17  18
BRANCH  17  20
HETATM   20  C   UNL     1      40.704 -15.241   3.368  1.00  0.00    -0.025 A 
HETATM   21  C   UNL     1      40.676 -14.361   2.269  1.00  0.00     0.046 A 
HETATM   22  C   UNL     1      40.727 -14.848   0.961  1.00  0.00     0.068 A 
HETATM   23  C   UNL     1      40.825 -16.222   0.746  1.00  0.00     0.037 A 
HETATM   24  C   UNL     1      40.843 -17.108   1.820  1.00  0.00     0.003 A 
HETATM   25  C   UNL     1      40.778 -16.624   3.125  1.00  0.00     0.010 A 
BRANCH  22  26
HETATM   26  O   UNL     1      40.713 -14.091  -0.176  1.00  0.00    -0.356 OA
HETATM   27  C   UNL     1      41.074 -14.735  -1.392  1.00  0.00     0.210 C 
ENDBRANCH  22  26
ENDBRANCH  17  20
ENDBRANCH  16  17
ENDBRANCH   1  16
TORSDOF 8
ENDMDL
MODEL 3
REMARK VINA RESULT:      -7.0      2.718      6.696
REMARK  8 active torsions:
REMARK  status: ('A' for Active; 'I' for Inactive)
REMARK    1  A    between atoms: C_2  and  N_3 
REMARK    2  A    between atoms: C_2  and  C_17 
REMARK    3  A    between atoms: N_3  and  C_6 
REMARK    4  A    between atoms: C_6  and  C_7 
REMARK    5  A    between atoms: C_7  and  O_8 
REMARK    6  A    between atoms: C_7  and  C_9 
REMARK    7  A    between atoms: C_11  and  O_12 
REMARK    8  A    between atoms: C_17  and  C_18 
ROOT
HETATM    1  N   UNL     1      41.279 -16.527   3.044  1.00  0.00    -0.068 N 
HETATM    2  H   UNL     1      41.693 -17.391   2.665  1.00  0.00     0.277 HD
HETATM    3  H   UNL     1      40.269 -16.740   3.138  1.00  0.00     0.277 HD
ENDROOT
BRANCH   1   4
HETATM    4  C   UNL     1      41.923 -16.202   4.370  1.00  0.00     0.188 C 
HETATM    5  C   UNL     1      41.629 -14.725   4.650  1.00  0.00     0.040 C 
BRANCH   4   6
HETATM    6  C   UNL     1      43.436 -16.486   4.325  1.00  0.00     0.099 C 
BRANCH   6   7
HETATM    7  C   UNL     1      43.713 -17.924   4.008  1.00  0.00     0.078 A 
HETATM    8  S   UNL     1      44.428 -18.945   5.182  1.00  0.00    -0.073 SA
HETATM    9  C   UNL     1      44.400 -20.253   4.062  1.00  0.00     0.035 A 
HETATM   10  C   UNL     1      43.842 -19.809   2.861  1.00  0.00     0.074 A 
HETATM   11  C   UNL     1      44.837 -21.576   4.233  1.00  0.00     0.021 A 
HETATM   12  N   UNL     1      43.462 -18.473   2.843  1.00  0.00    -0.245 NA
HETATM   13  C   UNL     1      43.712 -20.721   1.794  1.00  0.00     0.033 A 
HETATM   14  C   UNL     1      44.143 -22.042   1.955  1.00  0.00     0.002 A 
HETATM   15  C   UNL     1      44.699 -22.462   3.159  1.00  0.00     0.002 A 
ENDBRANCH   6   7
ENDBRANCH   4   6
ENDBRANCH   1   4
BRANCH   1  16
HETATM   16  C   UNL     1      41.384 -15.480   1.957  1.00  0.00     0.269 C 
BRANCH  16  17
HETATM   17  C   UNL     1      41.562 -16.203   0.603  1.00  0.00     0.177 C 
BRANCH  17  18
HETATM   18  O   UNL     1      42.920 -16.670   0.557  1.00  0.00    -0.389 OA
HETATM   19  H   UNL     1      43.052 -17.205   1.367  1.00  0.00     0.210 HD
ENDBRANCH  17  18
BRANCH  17  20
HETATM   20  C   UNL     1      41.270 -15.288  -0.566  1.00  0.00    -0.025 A 
HETATM   21  C   UNL     1      40.885 -15.851  -1.799  1.00  0.00     0.046 A 
HETATM   22  C   UNL     1      40.566 -15.038  -2.888  1.00  0.00     0.068 A 
HETATM   23  C   UNL     1      40.613 -13.652  -2.744  1.00  0.00     0.037 A 
HETATM   24  C   UNL     1      41.002 -13.078  -1.536  1.00  0.00     0.003 A 
HETATM   25  C   UNL     1      41.334 -13.889  -0.453  1.00  0.00     0.010 A 
BRANCH  22  26
HETATM   26  O   UNL     1      40.176 -15.472  -4.123  1.00  0.00    -0.356 OA
HETATM   27  C   UNL     1      38.820 -15.877  -4.273  1.00  0.00     0.210 C 
ENDBRANCH  22  26
ENDBRANCH  17  20
ENDBRANCH  16  17
ENDBRANCH   1  16
TORSDOF 8
ENDMDL
MODEL 4
REMARK VINA RESULT:      -6.9      2.201      4.407
REMARK  8 active torsions:
REMARK  status: ('A' for Active; 'I' for Inactive)
REMARK    1  A    between atoms: C_2  and  N_3 
REMARK    2  A    between atoms: C_2  and  C_17 
REMARK    3  A    between atoms: N_3  and  C_6 
REMARK    4  A    between atoms: C_6  and  C_7 
REMARK    5  A    between atoms: C_7  and  O_8 
REMARK    6  A    between atoms: C_7  and  C_9 
REMARK    7  A    between atoms: C_11  and  O_12 
REMARK    8  A    between atoms: C_17  and  C_18 
ROOT
HETATM    1  N   UNL     1      42.075 -12.513   4.487  1.00  0.00    -0.068 N 
HETATM    2  H   UNL     1      42.697 -13.020   3.840  1.00  0.00     0.277 HD
HETATM    3  H   UNL     1      42.578 -11.632   4.697  1.00  0.00     0.277 HD
ENDROOT
BRANCH   1   4
HETATM    4  C   UNL     1      40.746 -12.268   3.816  1.00  0.00     0.188 C 
HETATM    5  C   UNL     1      39.707 -13.087   4.589  1.00  0.00     0.040 C 
BRANCH   4   6
HETATM    6  C   UNL     1      40.802 -12.672   2.331  1.00  0.00     0.099 C 
BRANCH   6   7
HETATM    7  C   UNL     1      41.322 -14.067   2.162  1.00  0.00     0.078 A 
HETATM    8  S   UNL     1      40.244 -15.357   1.835  1.00  0.00    -0.073 SA
HETATM    9  C   UNL     1      41.566 -16.461   1.826  1.00  0.00     0.035 A 
HETATM   10  C   UNL     1      42.746 -15.756   2.078  1.00  0.00     0.074 A 
HETATM   11  C   UNL     1      41.562 -17.848   1.612  1.00  0.00     0.021 A 
HETATM   12  N   UNL     1      42.589 -14.390   2.276  1.00  0.00    -0.245 NA
HETATM   13  C   UNL     1      43.965 -16.462   2.112  1.00  0.00     0.033 A 
HETATM   14  C   UNL     1      43.972 -17.845   1.896  1.00  0.00     0.002 A 
HETATM   15  C   UNL     1      42.785 -18.527   1.651  1.00  0.00     0.002 A 
ENDBRANCH   6   7
ENDBRANCH   4   6
ENDBRANCH   1   4
BRANCH   1  16
HETATM   16  C   UNL     1      42.055 -13.299   5.780  1.00  0.00     0.269 C 
BRANCH  16  17
HETATM   17  C   UNL     1      43.335 -14.165   5.841  1.00  0.00     0.177 C 
BRANCH  17  18
HETATM   18  O   UNL     1      44.203 -13.698   4.797  1.00  0.00    -0.389 OA
HETATM   19  H   UNL     1      45.065 -14.141   4.940  1.00  0.00     0.210 HD
ENDBRANCH  17  18
BRANCH  17  20
HETATM   20  C   UNL     1      43.027 -15.636   5.665  1.00  0.00    -0.025 A 
HETATM   21  C   UNL     1      44.078 -16.570   5.748  1.00  0.00     0.046 A 
HETATM   22  C   UNL     1      43.828 -17.940   5.633  1.00  0.00     0.068 A 
HETATM   23  C   UNL     1      42.518 -18.382   5.453  1.00  0.00     0.037 A 
HETATM   24  C   UNL     1      41.468 -17.472   5.357  1.00  0.00     0.003 A 
HETATM   25  C   UNL     1      41.719 -16.105   5.457  1.00  0.00     0.010 A 
BRANCH  22  26
HETATM   26  O   UNL     1      44.763 -18.933   5.704  1.00  0.00    -0.356 OA
HETATM   27  C   UNL     1      44.561 -20.077   4.882  1.00  0.00     0.210 C 
ENDBRANCH  22  26
ENDBRANCH  17  20
ENDBRANCH  16  17
ENDBRANCH   1  16
TORSDOF 8
ENDMDL
MODEL 5
REMARK VINA RESULT:      -6.9      3.710      7.265
REMARK  8 active torsions:
REMARK  status: ('A' for Active; 'I' for Inactive)
REMARK    1  A    between atoms: C_2  and  N_3 
REMARK    2  A    between atoms: C_2  and  C_17 
REMARK    3  A    between atoms: N_3  and  C_6 
REMARK    4  A    between atoms: C_6  and  C_7 
REMARK    5  A    between atoms: C_7  and  O_8 
REMARK    6  A    between atoms: C_7  and  C_9 
REMARK    7  A    between atoms: C_11  and  O_12 
REMARK    8  A    between atoms: C_17  and  C_18 
ROOT
HETATM    1  N   UNL     1      42.131 -16.299  -0.229  1.00  0.00    -0.068 N 
HETATM    2  H   UNL     1      43.095 -15.995  -0.429  1.00  0.00     0.277 HD
HETATM    3  H   UNL     1      41.851 -16.847  -1.063  1.00  0.00     0.277 HD
ENDROOT
BRANCH   1   4
HETATM    4  C   UNL     1      42.117 -17.125   1.033  1.00  0.00     0.188 C 
HETATM    5  C   UNL     1      40.972 -16.589   1.896  1.00  0.00     0.040 C 
BRANCH   4   6
HETATM    6  C   UNL     1      43.472 -17.035   1.759  1.00  0.00     0.099 C 
BRANCH   6   7
HETATM    7  C   UNL     1      43.788 -18.305   2.488  1.00  0.00     0.078 A 
HETATM    8  S   UNL     1      44.084 -18.281   4.175  1.00  0.00    -0.073 SA
HETATM    9  C   UNL     1      44.354 -19.983   4.151  1.00  0.00     0.035 A 
HETATM   10  C   UNL     1      44.198 -20.448   2.844  1.00  0.00     0.074 A 
HETATM   11  C   UNL     1      44.679 -20.844   5.212  1.00  0.00     0.021 A 
HETATM   12  N   UNL     1      43.883 -19.476   1.903  1.00  0.00    -0.245 NA
HETATM   13  C   UNL     1      44.368 -21.823   2.587  1.00  0.00     0.033 A 
HETATM   14  C   UNL     1      44.689 -22.690   3.637  1.00  0.00     0.002 A 
HETATM   15  C   UNL     1      44.843 -22.204   4.931  1.00  0.00     0.002 A 
ENDBRANCH   6   7
ENDBRANCH   4   6
ENDBRANCH   1   4
BRANCH   1  16
HETATM   16  C   UNL     1      41.270 -15.054  -0.242  1.00  0.00     0.269 C 
BRANCH  16  17
HETATM   17  C   UNL     1      40.956 -14.697  -1.713  1.00  0.00     0.177 C 
BRANCH  17  18
HETATM   18  O   UNL     1      41.478 -15.764  -2.521  1.00  0.00    -0.389 OA
HETATM   19  H   UNL     1      42.123 -16.241  -1.959  1.00  0.00     0.210 HD
ENDBRANCH  17  18
BRANCH  17  20
HETATM   20  C   UNL     1      41.567 -13.372  -2.113  1.00  0.00    -0.025 A 
HETATM   21  C   UNL     1      42.208 -12.589  -1.134  1.00  0.00     0.046 A 
HETATM   22  C   UNL     1      42.820 -11.380  -1.473  1.00  0.00     0.068 A 
HETATM   23  C   UNL     1      42.810 -10.958  -2.802  1.00  0.00     0.037 A 
HETATM   24  C   UNL     1      42.171 -11.714  -3.781  1.00  0.00     0.003 A 
HETATM   25  C   UNL     1      41.548 -12.913  -3.441  1.00  0.00     0.010 A 
BRANCH  22  26
HETATM   26  O   UNL     1      43.474 -10.546  -0.612  1.00  0.00    -0.356 OA
HETATM   27  C   UNL     1      44.081  -9.384  -1.166  1.00  0.00     0.210 C 
ENDBRANCH  22  26
ENDBRANCH  17  20
ENDBRANCH  16  17
ENDBRANCH   1  16
TORSDOF 8
ENDMDL
MODEL 6
REMARK VINA RESULT:      -6.8      2.630      5.690
REMARK  8 active torsions:
REMARK  status: ('A' for Active; 'I' for Inactive)
REMARK    1  A    between atoms: C_2  and  N_3 
REMARK    2  A    between atoms: C_2  and  C_17 
REMARK    3  A    between atoms: N_3  and  C_6 
REMARK    4  A    between atoms: C_6  and  C_7 
REMARK    5  A    between atoms: C_7  and  O_8 
REMARK    6  A    between atoms: C_7  and  C_9 
REMARK    7  A    between atoms: C_11  and  O_12 
REMARK    8  A    between atoms: C_17  and  C_18 
ROOT
HETATM    1  N   UNL     1      40.674 -15.599   1.930  1.00  0.00    -0.068 N 
HETATM    2  H   UNL     1      39.745 -15.533   2.371  1.00  0.00     0.277 HD
HETATM    3  H   UNL     1      40.482 -15.594   0.912  1.00  0.00     0.277 HD
ENDROOT
BRANCH   1   4
HETATM    4  C   UNL     1      41.519 -14.426   2.362  1.00  0.00     0.188 C 
HETATM    5  C   UNL     1      40.792 -13.771   3.539  1.00  0.00     0.040 C 
BRANCH   4   6
HETATM    6  C   UNL     1      41.721 -13.442   1.194  1.00  0.00     0.099 C 
BRANCH   6   7
HETATM    7  C   UNL     1      40.947 -13.864  -0.017  1.00  0.00     0.078 A 
HETATM    8  S   UNL     1      39.416 -13.171  -0.349  1.00  0.00    -0.073 SA
HETATM    9  C   UNL     1      39.274 -14.157  -1.754  1.00  0.00     0.035 A 
HETATM   10  C   UNL     1      40.417 -14.953  -1.868  1.00  0.00     0.074 A 
HETATM   11  C   UNL     1      38.229 -14.223  -2.690  1.00  0.00     0.021 A 
HETATM   12  N   UNL     1      41.360 -14.779  -0.862  1.00  0.00    -0.245 NA
HETATM   13  C   UNL     1      40.522 -15.841  -2.956  1.00  0.00     0.033 A 
HETATM   14  C   UNL     1      39.487 -15.912  -3.896  1.00  0.00     0.002 A 
HETATM   15  C   UNL     1      38.356 -15.113  -3.761  1.00  0.00     0.002 A 
ENDBRANCH   6   7
ENDBRANCH   4   6
ENDBRANCH   1   4
BRANCH   1  16
HETATM   16  C   UNL     1      41.208 -16.980   2.244  1.00  0.00     0.269 C 
BRANCH  16  17
HETATM   17  C   UNL     1      42.722 -16.997   1.931  1.00  0.00     0.177 C 
BRANCH  17  18
HETATM   18  O   UNL     1      42.850 -17.029   0.501  1.00  0.00    -0.389 OA
HETATM   19  H   UNL     1      43.560 -16.392   0.276  1.00  0.00     0.210 HD
ENDBRANCH  17  18
BRANCH  17  20
HETATM   20  C   UNL     1      43.413 -18.188   2.559  1.00  0.00    -0.025 A 
HETATM   21  C   UNL     1      43.795 -18.123   3.913  1.00  0.00     0.046 A 
HETATM   22  C   UNL     1      44.397 -19.217   4.539  1.00  0.00     0.068 A 
HETATM   23  C   UNL     1      44.602 -20.391   3.815  1.00  0.00     0.037 A 
HETATM   24  C   UNL     1      44.240 -20.469   2.472  1.00  0.00     0.003 A 
HETATM   25  C   UNL     1      43.653 -19.373   1.843  1.00  0.00     0.010 A 
BRANCH  22  26
HETATM   26  O   UNL     1      44.801 -19.271   5.842  1.00  0.00    -0.356 OA
HETATM   27  C   UNL     1      45.186 -18.046   6.456  1.00  0.00     0.210 C 
ENDBRANCH  22  26
ENDBRANCH  17  20
ENDBRANCH  16  17
ENDBRANCH   1  16
TORSDOF 8
ENDMDL
MODEL 7
REMARK VINA RESULT:      -6.8      4.256      7.914
REMARK  8 active torsions:
REMARK  status: ('A' for Active; 'I' for Inactive)
REMARK    1  A    between atoms: C_2  and  N_3 
REMARK    2  A    between atoms: C_2  and  C_17 
REMARK    3  A    between atoms: N_3  and  C_6 
REMARK    4  A    between atoms: C_6  and  C_7 
REMARK    5  A    between atoms: C_7  and  O_8 
REMARK    6  A    between atoms: C_7  and  C_9 
REMARK    7  A    between atoms: C_11  and  O_12 
REMARK    8  A    between atoms: C_17  and  C_18 
ROOT
HETATM    1  N   UNL     1      43.093 -14.800   6.629  1.00  0.00    -0.068 N 
HETATM    2  H   UNL     1      43.074 -14.078   5.894  1.00  0.00     0.277 HD
HETATM    3  H   UNL     1      42.319 -14.544   7.268  1.00  0.00     0.277 HD
ENDROOT
BRANCH   1   4
HETATM    4  C   UNL     1      42.895 -16.159   6.003  1.00  0.00     0.188 C 
HETATM    5  C   UNL     1      41.785 -16.851   6.798  1.00  0.00     0.040 C 
BRANCH   4   6
HETATM    6  C   UNL     1      44.206 -16.966   6.029  1.00  0.00     0.099 C 
BRANCH   6   7
HETATM    7  C   UNL     1      44.170 -18.099   5.049  1.00  0.00     0.078 A 
HETATM    8  S   UNL     1      43.525 -17.864   3.480  1.00  0.00    -0.073 SA
HETATM    9  C   UNL     1      43.835 -19.516   3.105  1.00  0.00     0.035 A 
HETATM   10  C   UNL     1      44.413 -20.133   4.217  1.00  0.00     0.074 A 
HETATM   11  C   UNL     1      43.586 -20.217   1.914  1.00  0.00     0.021 A 
HETATM   12  N   UNL     1      44.591 -19.312   5.324  1.00  0.00    -0.245 NA
HETATM   13  C   UNL     1      44.759 -21.497   4.135  1.00  0.00     0.033 A 
HETATM   14  C   UNL     1      44.518 -22.203   2.951  1.00  0.00     0.002 A 
HETATM   15  C   UNL     1      43.938 -21.569   1.857  1.00  0.00     0.002 A 
ENDBRANCH   6   7
ENDBRANCH   4   6
ENDBRANCH   1   4
BRANCH   1  16
HETATM   16  C   UNL     1      44.368 -14.588   7.416  1.00  0.00     0.269 C 
BRANCH  16  17
HETATM   17  C   UNL     1      44.853 -13.141   7.173  1.00  0.00     0.177 C 
BRANCH  17  18
HETATM   18  O   UNL     1      46.229 -13.226   6.770  1.00  0.00    -0.389 OA
HETATM   19  H   UNL     1      46.451 -14.180   6.755  1.00  0.00     0.210 HD
ENDBRANCH  17  18
BRANCH  17  20
HETATM   20  C   UNL     1      44.709 -12.283   8.411  1.00  0.00    -0.025 A 
HETATM   21  C   UNL     1      43.497 -11.602   8.636  1.00  0.00     0.046 A 
HETATM   22  C   UNL     1      43.311 -10.835   9.789  1.00  0.00     0.068 A 
HETATM   23  C   UNL     1      44.335 -10.762  10.733  1.00  0.00     0.037 A 
HETATM   24  C   UNL     1      45.544 -11.419  10.522  1.00  0.00     0.003 A 
HETATM   25  C   UNL     1      45.735 -12.173   9.366  1.00  0.00     0.010 A 
BRANCH  22  26
HETATM   26  O   UNL     1      42.181 -10.141  10.114  1.00  0.00    -0.356 OA
HETATM   27  C   UNL     1      40.971 -10.528   9.474  1.00  0.00     0.210 C 
ENDBRANCH  22  26
ENDBRANCH  17  20
ENDBRANCH  16  17
ENDBRANCH   1  16
TORSDOF 8
ENDMDL
MODEL 8
REMARK VINA RESULT:      -6.8      2.782      6.496
REMARK  8 active torsions:
REMARK  status: ('A' for Active; 'I' for Inactive)
REMARK    1  A    between atoms: C_2  and  N_3 
REMARK    2  A    between atoms: C_2  and  C_17 
REMARK    3  A    between atoms: N_3  and  C_6 
REMARK    4  A    between atoms: C_6  and  C_7 
REMARK    5  A    between atoms: C_7  and  O_8 
REMARK    6  A    between atoms: C_7  and  C_9 
REMARK    7  A    between atoms: C_11  and  O_12 
REMARK    8  A    between atoms: C_17  and  C_18 
ROOT
HETATM    1  N   UNL     1      40.773 -16.533   2.405  1.00  0.00    -0.068 N 
HETATM    2  H   UNL     1      41.334 -17.327   2.066  1.00  0.00     0.277 HD
HETATM    3  H   UNL     1      39.814 -16.914   2.506  1.00  0.00     0.277 HD
ENDROOT
BRANCH   1   4
HETATM    4  C   UNL     1      41.336 -16.043   3.716  1.00  0.00     0.188 C 
HETATM    5  C   UNL     1      40.889 -14.587   3.870  1.00  0.00     0.040 C 
BRANCH   4   6
HETATM    6  C   UNL     1      42.871 -16.175   3.733  1.00  0.00     0.099 C 
BRANCH   6   7
HETATM    7  C   UNL     1      43.298 -17.608   3.629  1.00  0.00     0.078 A 
HETATM    8  S   UNL     1      44.096 -18.368   4.940  1.00  0.00    -0.073 SA
HETATM    9  C   UNL     1      44.217 -19.821   4.024  1.00  0.00     0.035 A 
HETATM   10  C   UNL     1      43.634 -19.617   2.771  1.00  0.00     0.074 A 
HETATM   11  C   UNL     1      44.785 -21.053   4.386  1.00  0.00     0.021 A 
HETATM   12  N   UNL     1      43.121 -18.344   2.557  1.00  0.00    -0.245 NA
HETATM   13  C   UNL     1      43.614 -20.683   1.849  1.00  0.00     0.033 A 
HETATM   14  C   UNL     1      44.174 -21.915   2.202  1.00  0.00     0.002 A 
HETATM   15  C   UNL     1      44.753 -22.095   3.454  1.00  0.00     0.002 A 
ENDBRANCH   6   7
ENDBRANCH   4   6
ENDBRANCH   1   4
BRANCH   1  16
HETATM   16  C   UNL     1      40.704 -15.531   1.273  1.00  0.00     0.269 C 
BRANCH  16  17
HETATM   17  C   UNL     1      41.279 -16.196   0.001  1.00  0.00     0.177 C 
BRANCH  17  18
HETATM   18  O   UNL     1      42.647 -16.528   0.288  1.00  0.00    -0.389 OA
HETATM   19  H   UNL     1      43.137 -15.679   0.299  1.00  0.00     0.210 HD
ENDBRANCH  17  18
BRANCH  17  20
HETATM   20  C   UNL     1      41.189 -15.282  -1.201  1.00  0.00    -0.025 A 
HETATM   21  C   UNL     1      41.595 -13.939  -1.074  1.00  0.00     0.046 A 
HETATM   22  C   UNL     1      41.567 -13.076  -2.171  1.00  0.00     0.068 A 
HETATM   23  C   UNL     1      41.148 -13.560  -3.410  1.00  0.00     0.037 A 
HETATM   24  C   UNL     1      40.732 -14.882  -3.552  1.00  0.00     0.003 A 
HETATM   25  C   UNL     1      40.747 -15.739  -2.454  1.00  0.00     0.010 A 
BRANCH  22  26
HETATM   26  O   UNL     1      41.942 -11.763  -2.167  1.00  0.00    -0.356 OA
HETATM   27  C   UNL     1      42.949 -11.376  -1.239  1.00  0.00     0.210 C 
ENDBRANCH  22  26
ENDBRANCH  17  20
ENDBRANCH  16  17
ENDBRANCH   1  16
TORSDOF 8
ENDMDL
MODEL 9
REMARK VINA RESULT:      -6.7      2.673      6.088
REMARK  8 active torsions:
REMARK  status: ('A' for Active; 'I' for Inactive)
REMARK    1  A    between atoms: C_2  and  N_3 
REMARK    2  A    between atoms: C_2  and  C_17 
REMARK    3  A    between atoms: N_3  and  C_6 
REMARK    4  A    between atoms: C_6  and  C_7 
REMARK    5  A    between atoms: C_7  and  O_8 
REMARK    6  A    between atoms: C_7  and  C_9 
REMARK    7  A    between atoms: C_11  and  O_12 
REMARK    8  A    between atoms: C_17  and  C_18 
ROOT
HETATM    1  N   UNL     1      43.081 -15.107   4.572  1.00  0.00    -0.068 N 
HETATM    2  H   UNL     1      44.009 -14.687   4.418  1.00  0.00     0.277 HD
HETATM    3  H   UNL     1      43.115 -16.011   4.066  1.00  0.00     0.277 HD
ENDROOT
BRANCH   1   4
HETATM    4  C   UNL     1      42.849 -15.286   6.052  1.00  0.00     0.188 C 
HETATM    5  C   UNL     1      44.202 -15.078   6.737  1.00  0.00     0.040 C 
BRANCH   4   6
HETATM    6  C   UNL     1      42.267 -16.682   6.347  1.00  0.00     0.099 C 
BRANCH   6   7
HETATM    7  C   UNL     1      42.824 -17.715   5.415  1.00  0.00     0.078 A 
HETATM    8  S   UNL     1      44.126 -18.711   5.908  1.00  0.00    -0.073 SA
HETATM    9  C   UNL     1      44.118 -19.485   4.369  1.00  0.00     0.035 A 
HETATM   10  C   UNL     1      43.112 -18.918   3.582  1.00  0.00     0.074 A 
HETATM   11  C   UNL     1      44.940 -20.518   3.891  1.00  0.00     0.021 A 
HETATM   12  N   UNL     1      42.386 -17.902   4.191  1.00  0.00    -0.245 NA
HETATM   13  C   UNL     1      42.917 -19.404   2.274  1.00  0.00     0.033 A 
HETATM   14  C   UNL     1      43.729 -20.436   1.790  1.00  0.00     0.002 A 
HETATM   15  C   UNL     1      44.727 -20.983   2.589  1.00  0.00     0.002 A 
ENDBRANCH   6   7
ENDBRANCH   4   6
ENDBRANCH   1   4
BRANCH   1  16
HETATM   16  C   UNL     1      42.085 -14.249   3.822  1.00  0.00     0.269 C 
BRANCH  16  17
HETATM   17  C   UNL     1      42.734 -13.802   2.492  1.00  0.00     0.177 C 
BRANCH  17  18
HETATM   18  O   UNL     1      42.536 -12.383   2.389  1.00  0.00    -0.389 OA
HETATM   19  H   UNL     1      41.917 -12.141   3.108  1.00  0.00     0.210 HD
ENDBRANCH  17  18
BRANCH  17  20
HETATM   20  C   UNL     1      42.129 -14.516   1.303  1.00  0.00    -0.025 A 
HETATM   21  C   UNL     1      41.687 -13.759   0.201  1.00  0.00     0.046 A 
HETATM   22  C   UNL     1      41.163 -14.384  -0.933  1.00  0.00     0.068 A 
HETATM   23  C   UNL     1      41.095 -15.776  -0.975  1.00  0.00     0.037 A 
HETATM   24  C   UNL     1      41.517 -16.541   0.110  1.00  0.00     0.003 A 
HETATM   25  C   UNL     1      42.028 -15.916   1.246  1.00  0.00     0.010 A 
BRANCH  22  26
HETATM   26  O   UNL     1      40.712 -13.755  -2.058  1.00  0.00    -0.356 OA
HETATM   27  C   UNL     1      41.196 -14.230  -3.308  1.00  0.00     0.210 C 
ENDBRANCH  22  26
ENDBRANCH  17  20
ENDBRANCH  16  17
ENDBRANCH   1  16
TORSDOF 8
ENDMDL
MODEL 10
REMARK VINA RESULT:      -6.7      2.505      5.236
REMARK  8 active torsions:
REMARK  status: ('A' for Active; 'I' for Inactive)
REMARK    1  A    between atoms: C_2  and  N_3 
REMARK    2  A    between atoms: C_2  and  C_17 
REMARK    3  A    between atoms: N_3  and  C_6 
REMARK    4  A    between atoms: C_6  and  C_7 
REMARK    5  A    between atoms: C_7  and  O_8 
REMARK    6  A    between atoms: C_7  and  C_9 
REMARK    7  A    between atoms: C_11  and  O_12 
REMARK    8  A    between atoms: C_17  and  C_18 
ROOT
HETATM    1  N   UNL     1      39.888 -16.131   2.743  1.00  0.00    -0.068 N 
HETATM    2  H   UNL     1      39.429 -16.642   3.511  1.00  0.00     0.277 HD
HETATM    3  H   UNL     1      39.112 -15.832   2.126  1.00  0.00     0.277 HD
ENDROOT
BRANCH   1   4
HETATM    4  C   UNL     1      40.656 -14.960   3.308  1.00  0.00     0.188 C 
HETATM    5  C   UNL     1      40.441 -14.984   4.824  1.00  0.00     0.040 C 
BRANCH   4   6
HETATM    6  C   UNL     1      40.171 -13.639   2.682  1.00  0.00     0.099 C 
BRANCH   6   7
HETATM    7  C   UNL     1      40.763 -13.427   1.322  1.00  0.00     0.078 A 
HETATM    8  S   UNL     1      41.858 -12.139   1.049  1.00  0.00    -0.073 SA
HETATM    9  C   UNL     1      41.986 -12.600  -0.606  1.00  0.00     0.035 A 
HETATM   10  C   UNL     1      41.174 -13.714  -0.831  1.00  0.00     0.074 A 
HETATM   11  C   UNL     1      42.750 -12.019  -1.632  1.00  0.00     0.021 A 
HETATM   12  N   UNL     1      40.475 -14.170   0.280  1.00  0.00    -0.245 NA
HETATM   13  C   UNL     1      41.127 -14.271  -2.125  1.00  0.00     0.033 A 
HETATM   14  C   UNL     1      41.887 -13.701  -3.153  1.00  0.00     0.002 A 
HETATM   15  C   UNL     1      42.686 -12.590  -2.907  1.00  0.00     0.002 A 
ENDBRANCH   6   7
ENDBRANCH   4   6
ENDBRANCH   1   4
BRANCH   1  16
HETATM   16  C   UNL     1      40.679 -17.150   1.952  1.00  0.00     0.269 C 
BRANCH  16  17
HETATM   17  C   UNL     1      42.177 -16.777   2.041  1.00  0.00     0.177 C 
BRANCH  17  18
HETATM   18  O   UNL     1      42.664 -16.694   0.692  1.00  0.00    -0.389 OA
HETATM   19  H   UNL     1      41.953 -17.052   0.122  1.00  0.00     0.210 HD
ENDBRANCH  17  18
BRANCH  17  20
HETATM   20  C   UNL     1      42.965 -17.796   2.834  1.00  0.00    -0.025 A 
HETATM   21  C   UNL     1      43.498 -18.918   2.171  1.00  0.00     0.046 A 
HETATM   22  C   UNL     1      44.267 -19.858   2.861  1.00  0.00     0.068 A 
HETATM   23  C   UNL     1      44.521 -19.669   4.218  1.00  0.00     0.037 A 
HETATM   24  C   UNL     1      43.993 -18.571   4.893  1.00  0.00     0.003 A 
HETATM   25  C   UNL     1      43.214 -17.641   4.208  1.00  0.00     0.010 A 
BRANCH  22  26
HETATM   26  O   UNL     1      44.838 -20.975   2.322  1.00  0.00    -0.356 OA
HETATM   27  C   UNL     1      43.974 -21.900   1.671  1.00  0.00     0.210 C 
ENDBRANCH  22  26
ENDBRANCH  17  20
ENDBRANCH  16  17
ENDBRANCH   1  16
TORSDOF 8
ENDMDL
