MODEL 1
REMARK VINA RESULT:      -8.3      0.000      0.000
REMARK  5 active torsions:
REMARK  status: ('A' for Active; 'I' for Inactive)
REMARK    1  A    between atoms: N_2  and  C_4 
REMARK    2  A    between atoms: C_4  and  C_5 
REMARK    3  A    between atoms: C_5  and  N_6 
REMARK    4  A    between atoms: C_11  and  C_12 
REMARK    5  A    between atoms: C_14  and  O_15 
ROOT
HETATM    1  N   UNL     1      42.961 -14.192   4.090  1.00  0.00    -0.332 N 
HETATM    2  C   UNL     1      43.157 -15.134   5.098  1.00  0.00     0.279 C 
HETATM    3  O   UNL     1      43.060 -14.931   6.294  1.00  0.00    -0.265 OA
HETATM    4  C   UNL     1      43.480 -16.411   4.440  1.00  0.00     0.156 A 
HETATM    5  C   UNL     1      43.349 -16.199   3.132  1.00  0.00     0.060 A 
HETATM    6  C   UNL     1      42.923 -14.829   2.772  1.00  0.00     0.161 C 
HETATM    7  O   UNL     1      43.830 -17.570   5.069  1.00  0.00    -0.303 OA
HETATM    8  C   UNL     1      44.049 -18.656   4.245  1.00  0.00     0.090 A 
HETATM    9  C   UNL     1      43.978 -18.578   2.843  1.00  0.00     0.051 A 
HETATM   10  C   UNL     1      43.655 -17.281   2.207  1.00  0.00     0.196 A 
HETATM   11  O   UNL     1      43.660 -17.105   0.999  1.00  0.00    -0.287 OA
HETATM   12  C   UNL     1      44.351 -19.870   4.862  1.00  0.00     0.041 A 
HETATM   13  C   UNL     1      44.577 -21.002   4.078  1.00  0.00     0.045 A 
HETATM   14  C   UNL     1      44.503 -20.911   2.688  1.00  0.00     0.117 A 
HETATM   15  F   UNL     1      44.720 -22.005   1.948  1.00  0.00    -0.206 F 
HETATM   16  C   UNL     1      44.207 -19.708   2.058  1.00  0.00     0.060 A 
ENDROOT
BRANCH   6  17
HETATM   17  C   UNL     1      41.553 -14.753   2.124  1.00  0.00    -0.028 A 
HETATM   18  C   UNL     1      41.344 -13.863   1.056  1.00  0.00     0.046 A 
HETATM   19  C   UNL     1      40.081 -13.748   0.483  1.00  0.00     0.066 A 
HETATM   20  C   UNL     1      39.013 -14.504   0.945  1.00  0.00     0.036 A 
HETATM   21  C   UNL     1      39.210 -15.410   1.984  1.00  0.00     0.003 A 
HETATM   22  C   UNL     1      40.471 -15.537   2.568  1.00  0.00     0.010 A 
BRANCH  19  23
HETATM   23  O   UNL     1      39.848 -12.884  -0.545  1.00  0.00    -0.361 OA
HETATM   24  H   UNL     1      40.686 -12.697  -1.000  1.00  0.00     0.217 HD
ENDBRANCH  19  23
ENDBRANCH   6  17
BRANCH   1  25
HETATM   25  C   UNL     1      42.370 -12.886   4.350  1.00  0.00     0.155 C 
BRANCH  25  26
HETATM   26  C   UNL     1      40.921 -12.937   4.874  1.00  0.00     0.254 C 
BRANCH  26  27
HETATM   27  N   UNL     1      40.853 -12.643   6.368  1.00  0.00    -0.077 N 
HETATM   28  C   UNL     1      39.457 -12.458   6.894  1.00  0.00     0.269 C 
HETATM   29  H   UNL     1      41.262 -13.456   6.850  1.00  0.00     0.279 HD
HETATM   30  C   UNL     1      41.731 -11.471   6.727  1.00  0.00     0.269 C 
ENDBRANCH  26  27
ENDBRANCH  25  26
ENDBRANCH   1  25
TORSDOF 5
ENDMDL
MODEL 2
REMARK VINA RESULT:      -8.0      2.301      4.770
REMARK  5 active torsions:
REMARK  status: ('A' for Active; 'I' for Inactive)
REMARK    1  A    between atoms: N_2  and  C_4 
REMARK    2  A    between atoms: C_4  and  C_5 
REMARK    3  A    between atoms: C_5  and  N_6 
REMARK    4  A    between atoms: C_11  and  C_12 
REMARK    5  A    between atoms: C_14  and  O_15 
ROOT
HETATM    1  N   UNL     1      40.170 -15.265   1.942  1.00  0.00    -0.332 N 
HETATM    2  C   UNL     1      41.174 -15.861   1.182  1.00  0.00     0.279 C 
HETATM    3  O   UNL     1      41.453 -15.591   0.029  1.00  0.00    -0.265 OA
HETATM    4  C   UNL     1      41.837 -16.855   2.042  1.00  0.00     0.156 A 
HETATM    5  C   UNL     1      41.294 -16.721   3.251  1.00  0.00     0.060 A 
HETATM    6  C   UNL     1      40.268 -15.660   3.349  1.00  0.00     0.161 C 
HETATM    7  O   UNL     1      42.817 -17.722   1.657  1.00  0.00    -0.303 OA
HETATM    8  C   UNL     1      43.320 -18.538   2.651  1.00  0.00     0.090 A 
HETATM    9  C   UNL     1      42.826 -18.532   3.968  1.00  0.00     0.051 A 
HETATM   10  C   UNL     1      41.718 -17.616   4.319  1.00  0.00     0.196 A 
HETATM   11  O   UNL     1      41.172 -17.609   5.411  1.00  0.00    -0.287 OA
HETATM   12  C   UNL     1      44.365 -19.394   2.301  1.00  0.00     0.041 A 
HETATM   13  C   UNL     1      44.914 -20.237   3.267  1.00  0.00     0.045 A 
HETATM   14  C   UNL     1      44.415 -20.222   4.569  1.00  0.00     0.117 A 
HETATM   15  F   UNL     1      44.953 -21.034   5.487  1.00  0.00    -0.206 F 
HETATM   16  C   UNL     1      43.373 -19.378   4.933  1.00  0.00     0.060 A 
ENDROOT
BRANCH   6  17
HETATM   17  C   UNL     1      40.651 -14.505   4.256  1.00  0.00    -0.028 A 
HETATM   18  C   UNL     1      39.838 -14.198   5.361  1.00  0.00     0.046 A 
HETATM   19  C   UNL     1      40.150 -13.113   6.175  1.00  0.00     0.066 A 
HETATM   20  C   UNL     1      41.261 -12.321   5.918  1.00  0.00     0.036 A 
HETATM   21  C   UNL     1      42.091 -12.629   4.843  1.00  0.00     0.003 A 
HETATM   22  C   UNL     1      41.792 -13.715   4.019  1.00  0.00     0.010 A 
BRANCH  19  23
HETATM   23  O   UNL     1      39.373 -12.785   7.245  1.00  0.00    -0.361 OA
HETATM   24  H   UNL     1      38.451 -12.695   6.953  1.00  0.00     0.217 HD
ENDBRANCH  19  23
ENDBRANCH   6  17
BRANCH   1  25
HETATM   25  C   UNL     1      39.481 -14.056   1.511  1.00  0.00     0.155 C 
BRANCH  25  26
HETATM   26  C   UNL     1      38.419 -14.285   0.418  1.00  0.00     0.254 C 
BRANCH  26  27
HETATM   27  N   UNL     1      38.982 -14.035  -0.976  1.00  0.00    -0.077 N 
HETATM   28  C   UNL     1      39.813 -12.788  -1.087  1.00  0.00     0.269 C 
HETATM   29  H   UNL     1      39.591 -14.836  -1.198  1.00  0.00     0.279 HD
HETATM   30  C   UNL     1      37.887 -14.057  -2.012  1.00  0.00     0.269 C 
ENDBRANCH  26  27
ENDBRANCH  25  26
ENDBRANCH   1  25
TORSDOF 5
ENDMDL
MODEL 3
REMARK VINA RESULT:      -7.9      1.652      2.070
REMARK  5 active torsions:
REMARK  status: ('A' for Active; 'I' for Inactive)
REMARK    1  A    between atoms: N_2  and  C_4 
REMARK    2  A    between atoms: C_4  and  C_5 
REMARK    3  A    between atoms: C_5  and  N_6 
REMARK    4  A    between atoms: C_11  and  C_12 
REMARK    5  A    between atoms: C_14  and  O_15 
ROOT
HETATM    1  N   UNL     1      42.941 -15.494   5.364  1.00  0.00    -0.332 N 
HETATM    2  C   UNL     1      42.985 -16.568   6.250  1.00  0.00     0.279 C 
HETATM    3  O   UNL     1      42.684 -16.535   7.429  1.00  0.00    -0.265 OA
HETATM    4  C   UNL     1      43.442 -17.741   5.486  1.00  0.00     0.156 A 
HETATM    5  C   UNL     1      43.528 -17.348   4.217  1.00  0.00     0.060 A 
HETATM    6  C   UNL     1      43.139 -15.940   3.984  1.00  0.00     0.161 C 
HETATM    7  O   UNL     1      43.707 -18.978   5.999  1.00  0.00    -0.303 OA
HETATM    8  C   UNL     1      44.084 -19.938   5.081  1.00  0.00     0.090 A 
HETATM    9  C   UNL     1      44.248 -19.664   3.712  1.00  0.00     0.051 A 
HETATM   10  C   UNL     1      44.009 -18.290   3.217  1.00  0.00     0.196 A 
HETATM   11  O   UNL     1      44.213 -17.946   2.063  1.00  0.00    -0.287 OA
HETATM   12  C   UNL     1      44.304 -21.227   5.567  1.00  0.00     0.041 A 
HETATM   13  C   UNL     1      44.683 -22.238   4.683  1.00  0.00     0.045 A 
HETATM   14  C   UNL     1      44.843 -21.954   3.328  1.00  0.00     0.117 A 
HETATM   15  F   UNL     1      45.204 -22.933   2.490  1.00  0.00    -0.206 F 
HETATM   16  C   UNL     1      44.631 -20.674   2.829  1.00  0.00     0.060 A 
ENDROOT
BRANCH   6  17
HETATM   17  C   UNL     1      41.896 -15.771   3.130  1.00  0.00    -0.028 A 
HETATM   18  C   UNL     1      41.743 -14.606   2.357  1.00  0.00     0.046 A 
HETATM   19  C   UNL     1      40.587 -14.416   1.605  1.00  0.00     0.066 A 
HETATM   20  C   UNL     1      39.573 -15.363   1.599  1.00  0.00     0.036 A 
HETATM   21  C   UNL     1      39.721 -16.535   2.337  1.00  0.00     0.003 A 
HETATM   22  C   UNL     1      40.875 -16.740   3.095  1.00  0.00     0.010 A 
BRANCH  19  23
HETATM   23  O   UNL     1      40.408 -13.291   0.858  1.00  0.00    -0.361 OA
HETATM   24  H   UNL     1      40.825 -13.416  -0.011  1.00  0.00     0.217 HD
ENDBRANCH  19  23
ENDBRANCH   6  17
BRANCH   1  25
HETATM   25  C   UNL     1      42.286 -14.237   5.698  1.00  0.00     0.155 C 
BRANCH  25  26
HETATM   26  C   UNL     1      43.250 -13.109   6.117  1.00  0.00     0.254 C 
BRANCH  26  27
HETATM   27  N   UNL     1      44.092 -13.508   7.323  1.00  0.00    -0.077 N 
HETATM   28  C   UNL     1      44.097 -12.492   8.431  1.00  0.00     0.269 C 
HETATM   29  H   UNL     1      43.682 -14.375   7.698  1.00  0.00     0.279 HD
HETATM   30  C   UNL     1      45.495 -13.868   6.906  1.00  0.00     0.269 C 
ENDBRANCH  26  27
ENDBRANCH  25  26
ENDBRANCH   1  25
TORSDOF 5
ENDMDL
MODEL 4
REMARK VINA RESULT:      -7.6      3.438      6.840
REMARK  5 active torsions:
REMARK  status: ('A' for Active; 'I' for Inactive)
REMARK    1  A    between atoms: N_2  and  C_4 
REMARK    2  A    between atoms: C_4  and  C_5 
REMARK    3  A    between atoms: C_5  and  N_6 
REMARK    4  A    between atoms: C_11  and  C_12 
REMARK    5  A    between atoms: C_14  and  O_15 
ROOT
HETATM    1  N   UNL     1      43.313 -16.373   5.984  1.00  0.00    -0.332 N 
HETATM    2  C   UNL     1      43.603 -15.040   6.269  1.00  0.00     0.279 C 
HETATM    3  O   UNL     1      44.528 -14.640   6.951  1.00  0.00    -0.265 OA
HETATM    4  C   UNL     1      42.594 -14.221   5.577  1.00  0.00     0.156 A 
HETATM    5  C   UNL     1      41.862 -15.065   4.853  1.00  0.00     0.060 A 
HETATM    6  C   UNL     1      42.282 -16.480   4.950  1.00  0.00     0.161 C 
HETATM    7  O   UNL     1      42.464 -12.865   5.668  1.00  0.00    -0.303 OA
HETATM    8  C   UNL     1      41.467 -12.306   4.893  1.00  0.00     0.090 A 
HETATM    9  C   UNL     1      40.594 -13.074   4.101  1.00  0.00     0.051 A 
HETATM   10  C   UNL     1      40.738 -14.546   4.087  1.00  0.00     0.196 A 
HETATM   11  O   UNL     1      39.969 -15.291   3.498  1.00  0.00    -0.287 OA
HETATM   12  C   UNL     1      41.348 -10.917   4.919  1.00  0.00     0.041 A 
HETATM   13  C   UNL     1      40.360 -10.298   4.151  1.00  0.00     0.045 A 
HETATM   14  C   UNL     1      39.501 -11.070   3.370  1.00  0.00     0.117 A 
HETATM   15  F   UNL     1      38.559 -10.464   2.637  1.00  0.00    -0.206 F 
HETATM   16  C   UNL     1      39.604 -12.456   3.336  1.00  0.00     0.060 A 
ENDROOT
BRANCH   6  17
HETATM   17  C   UNL     1      42.812 -17.062   3.653  1.00  0.00    -0.028 A 
HETATM   18  C   UNL     1      42.554 -18.410   3.346  1.00  0.00     0.046 A 
HETATM   19  C   UNL     1      43.073 -18.971   2.183  1.00  0.00     0.066 A 
HETATM   20  C   UNL     1      43.844 -18.219   1.307  1.00  0.00     0.036 A 
HETATM   21  C   UNL     1      44.084 -16.876   1.583  1.00  0.00     0.003 A 
HETATM   22  C   UNL     1      43.570 -16.299   2.745  1.00  0.00     0.010 A 
BRANCH  19  23
HETATM   23  O   UNL     1      42.849 -20.278   1.867  1.00  0.00    -0.361 OA
HETATM   24  H   UNL     1      42.360 -20.324   1.029  1.00  0.00     0.217 HD
ENDBRANCH  19  23
ENDBRANCH   6  17
BRANCH   1  25
HETATM   25  C   UNL     1      44.246 -17.452   6.278  1.00  0.00     0.155 C 
BRANCH  25  26
HETATM   26  C   UNL     1      43.669 -18.566   7.173  1.00  0.00     0.254 C 
BRANCH  26  27
HETATM   27  N   UNL     1      43.621 -19.904   6.446  1.00  0.00    -0.077 N 
HETATM   28  C   UNL     1      43.593 -21.098   7.359  1.00  0.00     0.269 C 
HETATM   29  H   UNL     1      42.750 -19.913   5.895  1.00  0.00     0.279 HD
HETATM   30  C   UNL     1      44.739 -20.013   5.441  1.00  0.00     0.269 C 
ENDBRANCH  26  27
ENDBRANCH  25  26
ENDBRANCH   1  25
TORSDOF 5
ENDMDL
MODEL 5
REMARK VINA RESULT:      -7.6      3.314      6.683
REMARK  5 active torsions:
REMARK  status: ('A' for Active; 'I' for Inactive)
REMARK    1  A    between atoms: N_2  and  C_4 
REMARK    2  A    between atoms: C_4  and  C_5 
REMARK    3  A    between atoms: C_5  and  N_6 
REMARK    4  A    between atoms: C_11  and  C_12 
REMARK    5  A    between atoms: C_14  and  O_15 
ROOT
HETATM    1  N   UNL     1      42.229 -15.651   5.460  1.00  0.00    -0.332 N 
HETATM    2  C   UNL     1      42.069 -14.271   5.345  1.00  0.00     0.279 C 
HETATM    3  O   UNL     1      42.662 -13.427   5.989  1.00  0.00    -0.265 OA
HETATM    4  C   UNL     1      41.068 -14.038   4.291  1.00  0.00     0.156 A 
HETATM    5  C   UNL     1      40.785 -15.233   3.775  1.00  0.00     0.060 A 
HETATM    6  C   UNL     1      41.540 -16.354   4.376  1.00  0.00     0.161 C 
HETATM    7  O   UNL     1      40.555 -12.827   3.926  1.00  0.00    -0.303 OA
HETATM    8  C   UNL     1      39.656 -12.849   2.878  1.00  0.00     0.090 A 
HETATM    9  C   UNL     1      39.238 -14.037   2.255  1.00  0.00     0.051 A 
HETATM   10  C   UNL     1      39.776 -15.331   2.730  1.00  0.00     0.196 A 
HETATM   11  O   UNL     1      39.401 -16.412   2.305  1.00  0.00    -0.287 OA
HETATM   12  C   UNL     1      39.160 -11.619   2.443  1.00  0.00     0.041 A 
HETATM   13  C   UNL     1      38.251 -11.582   1.385  1.00  0.00     0.045 A 
HETATM   14  C   UNL     1      37.844 -12.767   0.775  1.00  0.00     0.117 A 
HETATM   15  F   UNL     1      36.973 -12.717  -0.240  1.00  0.00    -0.206 F 
HETATM   16  C   UNL     1      38.326 -14.000   1.199  1.00  0.00     0.060 A 
ENDROOT
BRANCH   6  17
HETATM   17  C   UNL     1      42.499 -17.042   3.422  1.00  0.00    -0.028 A 
HETATM   18  C   UNL     1      42.676 -18.434   3.508  1.00  0.00     0.046 A 
HETATM   19  C   UNL     1      43.587 -19.073   2.671  1.00  0.00     0.066 A 
HETATM   20  C   UNL     1      44.328 -18.357   1.741  1.00  0.00     0.036 A 
HETATM   21  C   UNL     1      44.143 -16.983   1.625  1.00  0.00     0.003 A 
HETATM   22  C   UNL     1      43.233 -16.328   2.456  1.00  0.00     0.010 A 
BRANCH  19  23
HETATM   23  O   UNL     1      43.788 -20.419   2.741  1.00  0.00    -0.361 OA
HETATM   24  H   UNL     1      42.927 -20.868   2.773  1.00  0.00     0.217 HD
ENDBRANCH  19  23
ENDBRANCH   6  17
BRANCH   1  25
HETATM   25  C   UNL     1      43.325 -16.246   6.213  1.00  0.00     0.155 C 
BRANCH  25  26
HETATM   26  C   UNL     1      42.915 -17.447   7.089  1.00  0.00     0.254 C 
BRANCH  26  27
HETATM   27  N   UNL     1      44.068 -18.425   7.278  1.00  0.00    -0.077 N 
HETATM   28  C   UNL     1      45.326 -18.039   6.550  1.00  0.00     0.269 C 
HETATM   29  H   UNL     1      44.284 -18.439   8.285  1.00  0.00     0.279 HD
HETATM   30  C   UNL     1      43.647 -19.830   6.931  1.00  0.00     0.269 C 
ENDBRANCH  26  27
ENDBRANCH  25  26
ENDBRANCH   1  25
TORSDOF 5
ENDMDL
MODEL 6
REMARK VINA RESULT:      -7.4      3.622      7.332
REMARK  5 active torsions:
REMARK  status: ('A' for Active; 'I' for Inactive)
REMARK    1  A    between atoms: N_2  and  C_4 
REMARK    2  A    between atoms: C_4  and  C_5 
REMARK    3  A    between atoms: C_5  and  N_6 
REMARK    4  A    between atoms: C_11  and  C_12 
REMARK    5  A    between atoms: C_14  and  O_15 
ROOT
HETATM    1  N   UNL     1      42.615 -17.759   2.134  1.00  0.00    -0.332 N 
HETATM    2  C   UNL     1      41.570 -17.390   1.289  1.00  0.00     0.279 C 
HETATM    3  O   UNL     1      40.842 -18.150   0.679  1.00  0.00    -0.265 OA
HETATM    4  C   UNL     1      41.509 -15.918   1.293  1.00  0.00     0.156 A 
HETATM    5  C   UNL     1      42.403 -15.512   2.193  1.00  0.00     0.060 A 
HETATM    6  C   UNL     1      43.122 -16.606   2.881  1.00  0.00     0.161 C 
HETATM    7  O   UNL     1      40.684 -15.148   0.527  1.00  0.00    -0.303 OA
HETATM    8  C   UNL     1      40.773 -13.786   0.733  1.00  0.00     0.090 A 
HETATM    9  C   UNL     1      41.692 -13.207   1.627  1.00  0.00     0.051 A 
HETATM   10  C   UNL     1      42.609 -14.084   2.388  1.00  0.00     0.196 A 
HETATM   11  O   UNL     1      43.493 -13.661   3.117  1.00  0.00    -0.287 OA
HETATM   12  C   UNL     1      39.900 -12.976   0.007  1.00  0.00     0.041 A 
HETATM   13  C   UNL     1      39.944 -11.592   0.179  1.00  0.00     0.045 A 
HETATM   14  C   UNL     1      40.859 -11.030   1.068  1.00  0.00     0.117 A 
HETATM   15  F   UNL     1      40.889  -9.701   1.225  1.00  0.00    -0.206 F 
HETATM   16  C   UNL     1      41.738 -11.823   1.796  1.00  0.00     0.060 A 
ENDROOT
BRANCH   6  17
HETATM   17  C   UNL     1      42.835 -16.700   4.369  1.00  0.00    -0.028 A 
HETATM   18  C   UNL     1      41.502 -16.735   4.813  1.00  0.00     0.046 A 
HETATM   19  C   UNL     1      41.224 -16.774   6.177  1.00  0.00     0.066 A 
HETATM   20  C   UNL     1      42.246 -16.784   7.116  1.00  0.00     0.036 A 
HETATM   21  C   UNL     1      43.571 -16.779   6.691  1.00  0.00     0.003 A 
HETATM   22  C   UNL     1      43.866 -16.740   5.327  1.00  0.00     0.010 A 
BRANCH  19  23
HETATM   23  O   UNL     1      39.941 -16.795   6.635  1.00  0.00    -0.361 OA
HETATM   24  H   UNL     1      39.540 -17.654   6.421  1.00  0.00     0.217 HD
ENDBRANCH  19  23
ENDBRANCH   6  17
BRANCH   1  25
HETATM   25  C   UNL     1      42.805 -19.131   2.582  1.00  0.00     0.155 C 
BRANCH  25  26
HETATM   26  C   UNL     1      43.925 -19.892   1.846  1.00  0.00     0.254 C 
BRANCH  26  27
HETATM   27  N   UNL     1      44.761 -20.730   2.805  1.00  0.00    -0.077 N 
HETATM   28  C   UNL     1      44.420 -22.194   2.797  1.00  0.00     0.269 C 
HETATM   29  H   UNL     1      45.742 -20.637   2.504  1.00  0.00     0.279 HD
HETATM   30  C   UNL     1      44.708 -20.165   4.202  1.00  0.00     0.269 C 
ENDBRANCH  26  27
ENDBRANCH  25  26
ENDBRANCH   1  25
TORSDOF 5
ENDMDL
MODEL 7
REMARK VINA RESULT:      -7.2      3.426      6.474
REMARK  5 active torsions:
REMARK  status: ('A' for Active; 'I' for Inactive)
REMARK    1  A    between atoms: N_2  and  C_4 
REMARK    2  A    between atoms: C_4  and  C_5 
REMARK    3  A    between atoms: C_5  and  N_6 
REMARK    4  A    between atoms: C_11  and  C_12 
REMARK    5  A    between atoms: C_14  and  O_15 
ROOT
HETATM    1  N   UNL     1      41.447 -14.642   3.145  1.00  0.00    -0.332 N 
HETATM    2  C   UNL     1      41.957 -13.356   2.979  1.00  0.00     0.279 C 
HETATM    3  O   UNL     1      42.303 -12.604   3.871  1.00  0.00    -0.265 OA
HETATM    4  C   UNL     1      42.012 -13.095   1.531  1.00  0.00     0.156 A 
HETATM    5  C   UNL     1      41.660 -14.233   0.934  1.00  0.00     0.060 A 
HETATM    6  C   UNL     1      41.361 -15.345   1.863  1.00  0.00     0.161 C 
HETATM    7  O   UNL     1      42.367 -11.917   0.941  1.00  0.00    -0.303 OA
HETATM    8  C   UNL     1      42.386 -11.920  -0.439  1.00  0.00     0.090 A 
HETATM    9  C   UNL     1      42.010 -13.037  -1.207  1.00  0.00     0.051 A 
HETATM   10  C   UNL     1      41.572 -14.271  -0.519  1.00  0.00     0.196 A 
HETATM   11  O   UNL     1      41.147 -15.253  -1.106  1.00  0.00    -0.287 OA
HETATM   12  C   UNL     1      42.803 -10.747  -1.070  1.00  0.00     0.041 A 
HETATM   13  C   UNL     1      42.845 -10.695  -2.464  1.00  0.00     0.045 A 
HETATM   14  C   UNL     1      42.470 -11.809  -3.213  1.00  0.00     0.117 A 
HETATM   15  F   UNL     1      42.518 -11.747  -4.550  1.00  0.00    -0.206 F 
HETATM   16  C   UNL     1      42.050 -12.983  -2.600  1.00  0.00     0.060 A 
ENDROOT
BRANCH   6  17
HETATM   17  C   UNL     1      42.327 -16.512   1.768  1.00  0.00    -0.028 A 
HETATM   18  C   UNL     1      41.831 -17.825   1.840  1.00  0.00     0.046 A 
HETATM   19  C   UNL     1      42.710 -18.904   1.803  1.00  0.00     0.066 A 
HETATM   20  C   UNL     1      44.079 -18.709   1.689  1.00  0.00     0.036 A 
HETATM   21  C   UNL     1      44.583 -17.415   1.588  1.00  0.00     0.003 A 
HETATM   22  C   UNL     1      43.715 -16.323   1.625  1.00  0.00     0.010 A 
BRANCH  19  23
HETATM   23  O   UNL     1      42.257 -20.187   1.883  1.00  0.00    -0.361 OA
HETATM   24  H   UNL     1      42.237 -20.459   2.816  1.00  0.00     0.217 HD
ENDBRANCH  19  23
ENDBRANCH   6  17
BRANCH   1  25
HETATM   25  C   UNL     1      41.497 -15.340   4.422  1.00  0.00     0.155 C 
BRANCH  25  26
HETATM   26  C   UNL     1      42.921 -15.557   4.973  1.00  0.00     0.254 C 
BRANCH  26  27
HETATM   27  N   UNL     1      43.034 -15.115   6.427  1.00  0.00    -0.077 N 
HETATM   28  C   UNL     1      43.961 -13.952   6.644  1.00  0.00     0.269 C 
HETATM   29  H   UNL     1      42.092 -14.822   6.723  1.00  0.00     0.279 HD
HETATM   30  C   UNL     1      43.398 -16.276   7.317  1.00  0.00     0.269 C 
ENDBRANCH  26  27
ENDBRANCH  25  26
ENDBRANCH   1  25
TORSDOF 5
ENDMDL
MODEL 8
REMARK VINA RESULT:      -7.1      3.656      7.308
REMARK  5 active torsions:
REMARK  status: ('A' for Active; 'I' for Inactive)
REMARK    1  A    between atoms: N_2  and  C_4 
REMARK    2  A    between atoms: C_4  and  C_5 
REMARK    3  A    between atoms: C_5  and  N_6 
REMARK    4  A    between atoms: C_11  and  C_12 
REMARK    5  A    between atoms: C_14  and  O_15 
ROOT
HETATM    1  N   UNL     1      41.980 -14.054   4.363  1.00  0.00    -0.332 N 
HETATM    2  C   UNL     1      41.346 -13.101   5.158  1.00  0.00     0.279 C 
HETATM    3  O   UNL     1      40.222 -12.664   4.990  1.00  0.00    -0.265 OA
HETATM    4  C   UNL     1      42.282 -12.744   6.237  1.00  0.00     0.156 A 
HETATM    5  C   UNL     1      43.331 -13.554   6.102  1.00  0.00     0.060 A 
HETATM    6  C   UNL     1      43.221 -14.518   4.986  1.00  0.00     0.161 C 
HETATM    7  O   UNL     1      42.086 -11.779   7.181  1.00  0.00    -0.303 OA
HETATM    8  C   UNL     1      43.088 -11.650   8.123  1.00  0.00     0.090 A 
HETATM    9  C   UNL     1      44.268 -12.414   8.092  1.00  0.00     0.051 A 
HETATM   10  C   UNL     1      44.460 -13.404   7.009  1.00  0.00     0.196 A 
HETATM   11  O   UNL     1      45.489 -14.044   6.857  1.00  0.00    -0.287 OA
HETATM   12  C   UNL     1      42.889 -10.712   9.136  1.00  0.00     0.041 A 
HETATM   13  C   UNL     1      43.868 -10.543  10.116  1.00  0.00     0.045 A 
HETATM   14  C   UNL     1      45.033 -11.306  10.075  1.00  0.00     0.117 A 
HETATM   15  F   UNL     1      45.963 -11.136  11.023  1.00  0.00    -0.206 F 
HETATM   16  C   UNL     1      45.248 -12.242   9.070  1.00  0.00     0.060 A 
ENDROOT
BRANCH   6  17
HETATM   17  C   UNL     1      43.150 -15.970   5.422  1.00  0.00    -0.028 A 
HETATM   18  C   UNL     1      43.688 -16.967   4.589  1.00  0.00     0.046 A 
HETATM   19  C   UNL     1      43.589 -18.307   4.953  1.00  0.00     0.066 A 
HETATM   20  C   UNL     1      42.968 -18.683   6.135  1.00  0.00     0.036 A 
HETATM   21  C   UNL     1      42.455 -17.706   6.984  1.00  0.00     0.003 A 
HETATM   22  C   UNL     1      42.548 -16.359   6.633  1.00  0.00     0.010 A 
BRANCH  19  23
HETATM   23  O   UNL     1      44.090 -19.294   4.158  1.00  0.00    -0.361 OA
HETATM   24  H   UNL     1      43.644 -19.266   3.295  1.00  0.00     0.217 HD
ENDBRANCH  19  23
ENDBRANCH   6  17
BRANCH   1  25
HETATM   25  C   UNL     1      41.265 -14.831   3.360  1.00  0.00     0.155 C 
BRANCH  25  26
HETATM   26  C   UNL     1      41.975 -14.914   1.995  1.00  0.00     0.254 C 
BRANCH  26  27
HETATM   27  N   UNL     1      41.606 -16.188   1.245  1.00  0.00    -0.077 N 
HETATM   28  C   UNL     1      40.522 -16.995   1.902  1.00  0.00     0.269 C 
HETATM   29  H   UNL     1      41.261 -15.898   0.319  1.00  0.00     0.279 HD
HETATM   30  C   UNL     1      42.828 -17.030   0.978  1.00  0.00     0.269 C 
ENDBRANCH  26  27
ENDBRANCH  25  26
ENDBRANCH   1  25
TORSDOF 5
ENDMDL
MODEL 9
REMARK VINA RESULT:      -7.1      3.243      6.514
REMARK  5 active torsions:
REMARK  status: ('A' for Active; 'I' for Inactive)
REMARK    1  A    between atoms: N_2  and  C_4 
REMARK    2  A    between atoms: C_4  and  C_5 
REMARK    3  A    between atoms: C_5  and  N_6 
REMARK    4  A    between atoms: C_11  and  C_12 
REMARK    5  A    between atoms: C_14  and  O_15 
ROOT
HETATM    1  N   UNL     1      42.720 -16.555   2.953  1.00  0.00    -0.332 N 
HETATM    2  C   UNL     1      42.099 -17.161   1.862  1.00  0.00     0.279 C 
HETATM    3  O   UNL     1      41.816 -18.340   1.766  1.00  0.00    -0.265 OA
HETATM    4  C   UNL     1      41.841 -16.105   0.870  1.00  0.00     0.156 A 
HETATM    5  C   UNL     1      42.197 -14.958   1.445  1.00  0.00     0.060 A 
HETATM    6  C   UNL     1      42.693 -15.096   2.832  1.00  0.00     0.161 C 
HETATM    7  O   UNL     1      41.327 -16.289  -0.381  1.00  0.00    -0.303 OA
HETATM    8  C   UNL     1      41.131 -15.141  -1.123  1.00  0.00     0.090 A 
HETATM    9  C   UNL     1      41.488 -13.862  -0.661  1.00  0.00     0.051 A 
HETATM   10  C   UNL     1      42.100 -13.724   0.679  1.00  0.00     0.196 A 
HETATM   11  O   UNL     1      42.519 -12.665   1.121  1.00  0.00    -0.287 OA
HETATM   12  C   UNL     1      40.552 -15.292  -2.383  1.00  0.00     0.041 A 
HETATM   13  C   UNL     1      40.327 -14.165  -3.175  1.00  0.00     0.045 A 
HETATM   14  C   UNL     1      40.685 -12.902  -2.705  1.00  0.00     0.117 A 
HETATM   15  F   UNL     1      40.462 -11.829  -3.474  1.00  0.00    -0.206 F 
HETATM   16  C   UNL     1      41.267 -12.736  -1.454  1.00  0.00     0.060 A 
ENDROOT
BRANCH   6  17
HETATM   17  C   UNL     1      41.812 -14.438   3.877  1.00  0.00    -0.028 A 
HETATM   18  C   UNL     1      42.396 -13.592   4.837  1.00  0.00     0.046 A 
HETATM   19  C   UNL     1      41.608 -13.018   5.830  1.00  0.00     0.066 A 
HETATM   20  C   UNL     1      40.243 -13.262   5.892  1.00  0.00     0.036 A 
HETATM   21  C   UNL     1      39.646 -14.075   4.932  1.00  0.00     0.003 A 
HETATM   22  C   UNL     1      40.423 -14.657   3.929  1.00  0.00     0.010 A 
BRANCH  19  23
HETATM   23  O   UNL     1      42.149 -12.205   6.780  1.00  0.00    -0.361 OA
HETATM   24  H   UNL     1      42.298 -12.719   7.592  1.00  0.00     0.217 HD
ENDBRANCH  19  23
ENDBRANCH   6  17
BRANCH   1  25
HETATM   25  C   UNL     1      42.886 -17.235   4.230  1.00  0.00     0.155 C 
BRANCH  25  26
HETATM   26  C   UNL     1      44.106 -18.175   4.297  1.00  0.00     0.254 C 
BRANCH  26  27
HETATM   27  N   UNL     1      44.225 -18.846   5.660  1.00  0.00    -0.077 N 
HETATM   28  C   UNL     1      45.148 -18.140   6.613  1.00  0.00     0.269 C 
HETATM   29  H   UNL     1      43.283 -18.841   6.077  1.00  0.00     0.279 HD
HETATM   30  C   UNL     1      44.598 -20.299   5.514  1.00  0.00     0.269 C 
ENDBRANCH  26  27
ENDBRANCH  25  26
ENDBRANCH   1  25
TORSDOF 5
ENDMDL
MODEL 10
REMARK VINA RESULT:      -7.0      3.717      6.138
REMARK  5 active torsions:
REMARK  status: ('A' for Active; 'I' for Inactive)
REMARK    1  A    between atoms: N_2  and  C_4 
REMARK    2  A    between atoms: C_4  and  C_5 
REMARK    3  A    between atoms: C_5  and  N_6 
REMARK    4  A    between atoms: C_11  and  C_12 
REMARK    5  A    between atoms: C_14  and  O_15 
ROOT
HETATM    1  N   UNL     1      39.819 -14.289  -1.407  1.00  0.00    -0.332 N 
HETATM    2  C   UNL     1      40.795 -15.273  -1.561  1.00  0.00     0.279 C 
HETATM    3  O   UNL     1      41.336 -15.585  -2.605  1.00  0.00    -0.265 OA
HETATM    4  C   UNL     1      41.053 -15.839  -0.226  1.00  0.00     0.156 A 
HETATM    5  C   UNL     1      40.336 -15.113   0.630  1.00  0.00     0.060 A 
HETATM    6  C   UNL     1      39.565 -14.015   0.008  1.00  0.00     0.161 C 
HETATM    7  O   UNL     1      41.876 -16.891   0.053  1.00  0.00    -0.303 OA
HETATM    8  C   UNL     1      41.995 -17.220   1.388  1.00  0.00     0.090 A 
HETATM    9  C   UNL     1      41.277 -16.565   2.404  1.00  0.00     0.051 A 
HETATM   10  C   UNL     1      40.348 -15.471   2.042  1.00  0.00     0.196 A 
HETATM   11  O   UNL     1      39.623 -14.910   2.848  1.00  0.00    -0.287 OA
HETATM   12  C   UNL     1      42.876 -18.253   1.710  1.00  0.00     0.041 A 
HETATM   13  C   UNL     1      43.038 -18.626   3.045  1.00  0.00     0.045 A 
HETATM   14  C   UNL     1      42.321 -17.968   4.043  1.00  0.00     0.117 A 
HETATM   15  F   UNL     1      42.488 -18.333   5.320  1.00  0.00    -0.206 F 
HETATM   16  C   UNL     1      41.437 -16.940   3.738  1.00  0.00     0.060 A 
ENDROOT
BRANCH   6  17
HETATM   17  C   UNL     1      40.013 -12.626   0.425  1.00  0.00    -0.028 A 
HETATM   18  C   UNL     1      41.332 -12.218   0.160  1.00  0.00     0.046 A 
HETATM   19  C   UNL     1      41.771 -10.965   0.579  1.00  0.00     0.066 A 
HETATM   20  C   UNL     1      40.923 -10.099   1.255  1.00  0.00     0.036 A 
HETATM   21  C   UNL     1      39.606 -10.477   1.500  1.00  0.00     0.003 A 
HETATM   22  C   UNL     1      39.151 -11.730   1.086  1.00  0.00     0.010 A 
BRANCH  19  23
HETATM   23  O   UNL     1      43.047 -10.550   0.346  1.00  0.00    -0.361 OA
HETATM   24  H   UNL     1      43.632 -10.919   1.029  1.00  0.00     0.217 HD
ENDBRANCH  19  23
ENDBRANCH   6  17
BRANCH   1  25
HETATM   25  C   UNL     1      39.502 -13.337  -2.462  1.00  0.00     0.155 C 
BRANCH  25  26
HETATM   26  C   UNL     1      37.999 -13.030  -2.612  1.00  0.00     0.254 C 
BRANCH  26  27
HETATM   27  N   UNL     1      37.510 -13.290  -4.031  1.00  0.00    -0.077 N 
HETATM   28  C   UNL     1      36.538 -12.264  -4.543  1.00  0.00     0.269 C 
HETATM   29  H   UNL     1      38.341 -13.263  -4.641  1.00  0.00     0.279 HD
HETATM   30  C   UNL     1      36.953 -14.684  -4.164  1.00  0.00     0.269 C 
ENDBRANCH  26  27
ENDBRANCH  25  26
ENDBRANCH   1  25
TORSDOF 5
ENDMDL
