MODEL 1
REMARK VINA RESULT:      -8.4      0.000      0.000
REMARK  8 active torsions:
REMARK  status: ('A' for Active; 'I' for Inactive)
REMARK    1  A    between atoms: C_8  and  C_9 
REMARK       I    between atoms: C_9  and  N_10 
REMARK    2  A    between atoms: N_10  and  N_11 
REMARK    3  A    between atoms: N_11  and  C_12 
REMARK    4  A    between atoms: C_12  and  N_13 
REMARK    5  A    between atoms: N_13  and  C_14 
REMARK    6  A    between atoms: C_15  and  O_16 
REMARK    7  A    between atoms: C_19  and  O_20 
REMARK    8  A    between atoms: C_26  and  C_27 
ROOT
HETATM    1  C   UNL     1      43.801 -15.020   6.552  1.00  0.00     0.275 C 
HETATM    2  N   UNL     1      43.972 -13.727   7.006  1.00  0.00    -0.263 N 
HETATM    3  O   UNL     1      43.966 -16.004   7.272  1.00  0.00    -0.266 OA
HETATM    4  H   UNL     1      44.088 -12.955   6.353  1.00  0.00     0.190 HD
ENDROOT
BRANCH   2   5
HETATM    5  N   UNL     1      44.305 -13.511   8.348  1.00  0.00    -0.273 N 
HETATM    6  H   UNL     1      44.859 -14.258   8.770  1.00  0.00     0.189 HD
BRANCH   5   7
HETATM    7  C   UNL     1      44.464 -12.248   8.855  1.00  0.00     0.191 C 
HETATM    8  S   UNL     1      45.945 -11.491   9.064  1.00  0.00    -0.039 SA
BRANCH   7   9
HETATM    9  N   UNL     1      43.332 -11.580   9.225  1.00  0.00    -0.330 N 
HETATM   10  H   UNL     1      42.701 -11.358   8.458  1.00  0.00     0.168 HD
BRANCH   9  11
HETATM   11  C   UNL     1      42.821 -11.229  10.497  1.00  0.00     0.068 A 
HETATM   12  C   UNL     1      41.487 -10.770  10.549  1.00  0.00     0.097 A 
HETATM   13  C   UNL     1      40.901 -10.448  11.781  1.00  0.00     0.075 A 
HETATM   14  C   UNL     1      41.629 -10.590  12.964  1.00  0.00     0.070 A 
HETATM   15  C   UNL     1      42.941 -11.058  12.909  1.00  0.00     0.039 A 
HETATM   16  C   UNL     1      43.532 -11.386  11.688  1.00  0.00     0.035 A 
BRANCH  12  17
HETATM   17  O   UNL     1      40.848 -10.684   9.332  1.00  0.00    -0.354 OA
HETATM   18  C   UNL     1      39.493 -11.110   9.274  1.00  0.00     0.210 C 
ENDBRANCH  12  17
BRANCH  14  19
HETATM   19  O   UNL     1      41.179 -10.322  14.228  1.00  0.00    -0.356 OA
HETATM   20  C   UNL     1      42.135  -9.860  15.174  1.00  0.00     0.210 C 
ENDBRANCH  14  19
ENDBRANCH   9  11
ENDBRANCH   7   9
ENDBRANCH   5   7
ENDBRANCH   2   5
BRANCH   1  21
HETATM   21  C   UNL     1      43.419 -15.118   5.161  1.00  0.00     0.098 A 
HETATM   22  C   UNL     1      43.279 -16.249   4.378  1.00  0.00     0.138 A 
HETATM   23  N   UNL     1      43.497 -17.569   4.602  1.00  0.00    -0.370 N 
HETATM   24  N   UNL     1      42.899 -15.797   3.139  1.00  0.00    -0.240 N 
HETATM   25  C   UNL     1      43.330 -18.567   3.545  1.00  0.00     0.081 C 
HETATM   26  H   UNL     1      43.974 -17.892   5.444  1.00  0.00     0.161 HD
HETATM   27  C   UNL     1      44.307 -19.719   3.777  1.00  0.00     0.032 C 
HETATM   28  C   UNL     1      43.563 -17.930   2.166  1.00  0.00     0.061 C 
HETATM   29  C   UNL     1      42.722 -16.655   1.983  1.00  0.00     0.221 C 
HETATM   30  N   UNL     1      42.868 -14.459   3.030  1.00  0.00    -0.181 NA
HETATM   31  C   UNL     1      43.174 -14.048   4.266  1.00  0.00     0.160 A 
BRANCH  29  32
HETATM   32  C   UNL     1      41.253 -16.945   1.777  1.00  0.00     0.409 C 
HETATM   33  F   UNL     1      40.557 -17.032   2.931  1.00  0.00    -0.169 F 
HETATM   34  F   UNL     1      40.644 -16.025   0.999  1.00  0.00    -0.169 F 
HETATM   35  F   UNL     1      41.106 -18.139   1.146  1.00  0.00    -0.169 F 
ENDBRANCH  29  32
ENDBRANCH   1  21
TORSDOF 8
ENDMDL
MODEL 2
REMARK VINA RESULT:      -8.4      5.205      6.579
REMARK  8 active torsions:
REMARK  status: ('A' for Active; 'I' for Inactive)
REMARK    1  A    between atoms: C_8  and  C_9 
REMARK       I    between atoms: C_9  and  N_10 
REMARK    2  A    between atoms: N_10  and  N_11 
REMARK    3  A    between atoms: N_11  and  C_12 
REMARK    4  A    between atoms: C_12  and  N_13 
REMARK    5  A    between atoms: N_13  and  C_14 
REMARK    6  A    between atoms: C_15  and  O_16 
REMARK    7  A    between atoms: C_19  and  O_20 
REMARK    8  A    between atoms: C_26  and  C_27 
ROOT
HETATM    1  C   UNL     1      41.056 -16.917   3.116  1.00  0.00     0.275 C 
HETATM    2  N   UNL     1      40.275 -16.400   2.100  1.00  0.00    -0.263 N 
HETATM    3  O   UNL     1      40.857 -16.663   4.302  1.00  0.00    -0.266 OA
HETATM    4  H   UNL     1      40.601 -16.405   1.136  1.00  0.00     0.190 HD
ENDROOT
BRANCH   2   5
HETATM    5  N   UNL     1      39.184 -15.587   2.424  1.00  0.00    -0.273 N 
HETATM    6  H   UNL     1      38.762 -15.788   3.332  1.00  0.00     0.189 HD
BRANCH   5   7
HETATM    7  C   UNL     1      39.080 -14.303   1.955  1.00  0.00     0.191 C 
HETATM    8  S   UNL     1      38.173 -13.853   0.619  1.00  0.00    -0.039 SA
BRANCH   7   9
HETATM    9  N   UNL     1      39.781 -13.340   2.621  1.00  0.00    -0.330 N 
HETATM   10  H   UNL     1      39.316 -12.436   2.672  1.00  0.00     0.168 HD
BRANCH   9  11
HETATM   11  C   UNL     1      40.994 -13.392   3.347  1.00  0.00     0.068 A 
HETATM   12  C   UNL     1      40.901 -13.367   4.756  1.00  0.00     0.097 A 
HETATM   13  C   UNL     1      42.060 -13.461   5.540  1.00  0.00     0.075 A 
HETATM   14  C   UNL     1      43.310 -13.591   4.932  1.00  0.00     0.070 A 
HETATM   15  C   UNL     1      43.395 -13.630   3.542  1.00  0.00     0.039 A 
HETATM   16  C   UNL     1      42.247 -13.542   2.752  1.00  0.00     0.035 A 
BRANCH  12  17
HETATM   17  O   UNL     1      39.623 -13.257   5.258  1.00  0.00    -0.354 OA
HETATM   18  C   UNL     1      39.465 -12.579   6.498  1.00  0.00     0.210 C 
ENDBRANCH  12  17
BRANCH  14  19
HETATM   19  O   UNL     1      44.514 -13.701   5.573  1.00  0.00    -0.356 OA
HETATM   20  C   UNL     1      44.489 -14.084   6.943  1.00  0.00     0.210 C 
ENDBRANCH  14  19
ENDBRANCH   9  11
ENDBRANCH   7   9
ENDBRANCH   5   7
ENDBRANCH   2   5
BRANCH   1  21
HETATM   21  C   UNL     1      42.128 -17.775   2.664  1.00  0.00     0.098 A 
HETATM   22  C   UNL     1      42.860 -18.702   3.384  1.00  0.00     0.138 A 
HETATM   23  N   UNL     1      42.875 -19.062   4.693  1.00  0.00    -0.370 N 
HETATM   24  N   UNL     1      43.750 -19.246   2.493  1.00  0.00    -0.240 N 
HETATM   25  C   UNL     1      43.826 -20.047   5.209  1.00  0.00     0.081 C 
HETATM   26  H   UNL     1      42.370 -18.523   5.397  1.00  0.00     0.161 HD
HETATM   27  C   UNL     1      44.160 -19.713   6.663  1.00  0.00     0.032 C 
HETATM   28  C   UNL     1      45.100 -20.061   4.350  1.00  0.00     0.061 C 
HETATM   29  C   UNL     1      44.772 -20.209   2.854  1.00  0.00     0.221 C 
HETATM   30  N   UNL     1      43.716 -18.685   1.274  1.00  0.00    -0.181 NA
HETATM   31  C   UNL     1      42.720 -17.798   1.377  1.00  0.00     0.160 A 
BRANCH  29  32
HETATM   32  C   UNL     1      44.319 -21.604   2.488  1.00  0.00     0.409 C 
HETATM   33  F   UNL     1      45.036 -22.153   1.483  1.00  0.00    -0.169 F 
HETATM   34  F   UNL     1      44.358 -22.456   3.533  1.00  0.00    -0.169 F 
HETATM   35  F   UNL     1      43.027 -21.570   2.068  1.00  0.00    -0.169 F 
ENDBRANCH  29  32
ENDBRANCH   1  21
TORSDOF 8
ENDMDL
MODEL 3
REMARK VINA RESULT:      -8.4      4.389      6.568
REMARK  8 active torsions:
REMARK  status: ('A' for Active; 'I' for Inactive)
REMARK    1  A    between atoms: C_8  and  C_9 
REMARK       I    between atoms: C_9  and  N_10 
REMARK    2  A    between atoms: N_10  and  N_11 
REMARK    3  A    between atoms: N_11  and  C_12 
REMARK    4  A    between atoms: C_12  and  N_13 
REMARK    5  A    between atoms: N_13  and  C_14 
REMARK    6  A    between atoms: C_15  and  O_16 
REMARK    7  A    between atoms: C_19  and  O_20 
REMARK    8  A    between atoms: C_26  and  C_27 
ROOT
HETATM    1  C   UNL     1      42.306 -17.411   1.864  1.00  0.00     0.275 C 
HETATM    2  N   UNL     1      41.074 -17.053   2.377  1.00  0.00    -0.263 N 
HETATM    3  O   UNL     1      42.716 -17.008   0.777  1.00  0.00    -0.266 OA
HETATM    4  H   UNL     1      40.646 -17.587   3.130  1.00  0.00     0.190 HD
ENDROOT
BRANCH   2   5
HETATM    5  N   UNL     1      40.269 -16.161   1.660  1.00  0.00    -0.273 N 
HETATM    6  H   UNL     1      39.825 -16.564   0.833  1.00  0.00     0.189 HD
BRANCH   5   7
HETATM    7  C   UNL     1      39.619 -15.124   2.277  1.00  0.00     0.191 C 
HETATM    8  S   UNL     1      38.783 -13.915   1.471  1.00  0.00    -0.039 SA
BRANCH   7   9
HETATM    9  N   UNL     1      39.680 -15.076   3.640  1.00  0.00    -0.330 N 
HETATM   10  H   UNL     1      39.421 -15.943   4.107  1.00  0.00     0.168 HD
BRANCH   9  11
HETATM   11  C   UNL     1      40.139 -14.073   4.526  1.00  0.00     0.068 A 
HETATM   12  C   UNL     1      41.532 -13.853   4.583  1.00  0.00     0.097 A 
HETATM   13  C   UNL     1      42.053 -12.844   5.406  1.00  0.00     0.075 A 
HETATM   14  C   UNL     1      41.197 -12.044   6.164  1.00  0.00     0.070 A 
HETATM   15  C   UNL     1      39.821 -12.256   6.094  1.00  0.00     0.039 A 
HETATM   16  C   UNL     1      39.291 -13.254   5.274  1.00  0.00     0.035 A 
BRANCH  12  17
HETATM   17  O   UNL     1      42.289 -14.680   3.783  1.00  0.00    -0.354 OA
HETATM   18  C   UNL     1      43.343 -14.083   3.040  1.00  0.00     0.210 C 
ENDBRANCH  12  17
BRANCH  14  19
HETATM   19  O   UNL     1      41.568 -11.025   6.997  1.00  0.00    -0.356 OA
HETATM   20  C   UNL     1      40.699 -10.720   8.080  1.00  0.00     0.210 C 
ENDBRANCH  14  19
ENDBRANCH   9  11
ENDBRANCH   7   9
ENDBRANCH   5   7
ENDBRANCH   2   5
BRANCH   1  21
HETATM   21  C   UNL     1      43.065 -18.305   2.709  1.00  0.00     0.098 A 
HETATM   22  C   UNL     1      43.458 -18.131   4.024  1.00  0.00     0.138 A 
HETATM   23  N   UNL     1      43.334 -17.105   4.904  1.00  0.00    -0.370 N 
HETATM   24  N   UNL     1      44.150 -19.267   4.358  1.00  0.00    -0.240 N 
HETATM   25  C   UNL     1      43.921 -17.165   6.243  1.00  0.00     0.081 C 
HETATM   26  H   UNL     1      43.009 -16.186   4.604  1.00  0.00     0.161 HD
HETATM   27  C   UNL     1      44.314 -15.757   6.687  1.00  0.00     0.032 C 
HETATM   28  C   UNL     1      45.143 -18.097   6.251  1.00  0.00     0.061 C 
HETATM   29  C   UNL     1      44.814 -19.466   5.632  1.00  0.00     0.221 C 
HETATM   30  N   UNL     1      44.316 -20.126   3.339  1.00  0.00    -0.181 NA
HETATM   31  C   UNL     1      43.645 -19.544   2.340  1.00  0.00     0.160 A 
BRANCH  29  32
HETATM   32  C   UNL     1      43.955 -20.326   6.531  1.00  0.00     0.409 C 
HETATM   33  F   UNL     1      44.209 -21.647   6.410  1.00  0.00    -0.169 F 
HETATM   34  F   UNL     1      44.080 -20.002   7.836  1.00  0.00    -0.169 F 
HETATM   35  F   UNL     1      42.645 -20.152   6.216  1.00  0.00    -0.169 F 
ENDBRANCH  29  32
ENDBRANCH   1  21
TORSDOF 8
ENDMDL
MODEL 4
REMARK VINA RESULT:      -8.4      7.093      9.813
REMARK  8 active torsions:
REMARK  status: ('A' for Active; 'I' for Inactive)
REMARK    1  A    between atoms: C_8  and  C_9 
REMARK       I    between atoms: C_9  and  N_10 
REMARK    2  A    between atoms: N_10  and  N_11 
REMARK    3  A    between atoms: N_11  and  C_12 
REMARK    4  A    between atoms: C_12  and  N_13 
REMARK    5  A    between atoms: N_13  and  C_14 
REMARK    6  A    between atoms: C_15  and  O_16 
REMARK    7  A    between atoms: C_19  and  O_20 
REMARK    8  A    between atoms: C_26  and  C_27 
ROOT
HETATM    1  C   UNL     1      41.109 -16.775   2.750  1.00  0.00     0.275 C 
HETATM    2  N   UNL     1      40.153 -16.639   1.762  1.00  0.00    -0.263 N 
HETATM    3  O   UNL     1      41.048 -16.173   3.820  1.00  0.00    -0.266 OA
HETATM    4  H   UNL     1      40.345 -16.929   0.805  1.00  0.00     0.190 HD
ENDROOT
BRANCH   2   5
HETATM    5  N   UNL     1      39.043 -15.819   1.993  1.00  0.00    -0.273 N 
HETATM    6  H   UNL     1      38.584 -15.975   2.891  1.00  0.00     0.189 HD
BRANCH   5   7
HETATM    7  C   UNL     1      38.951 -14.564   1.449  1.00  0.00     0.191 C 
HETATM    8  S   UNL     1      38.902 -13.147   2.343  1.00  0.00    -0.039 SA
BRANCH   7   9
HETATM    9  N   UNL     1      38.879 -14.480   0.089  1.00  0.00    -0.330 N 
HETATM   10  H   UNL     1      37.978 -14.741  -0.305  1.00  0.00     0.168 HD
BRANCH   9  11
HETATM   11  C   UNL     1      39.796 -13.995  -0.873  1.00  0.00     0.068 A 
HETATM   12  C   UNL     1      39.319 -13.833  -2.192  1.00  0.00     0.097 A 
HETATM   13  C   UNL     1      40.160 -13.313  -3.187  1.00  0.00     0.075 A 
HETATM   14  C   UNL     1      41.470 -12.944  -2.876  1.00  0.00     0.070 A 
HETATM   15  C   UNL     1      41.932 -13.092  -1.569  1.00  0.00     0.039 A 
HETATM   16  C   UNL     1      41.101 -13.603  -0.570  1.00  0.00     0.035 A 
BRANCH  12  17
HETATM   17  O   UNL     1      38.008 -14.207  -2.392  1.00  0.00    -0.354 OA
HETATM   18  C   UNL     1      37.699 -14.880  -3.605  1.00  0.00     0.210 C 
ENDBRANCH  12  17
BRANCH  14  19
HETATM   19  O   UNL     1      42.389 -12.419  -3.742  1.00  0.00    -0.356 OA
HETATM   20  C   UNL     1      41.992 -11.286  -4.505  1.00  0.00     0.210 C 
ENDBRANCH  14  19
ENDBRANCH   9  11
ENDBRANCH   7   9
ENDBRANCH   5   7
ENDBRANCH   2   5
BRANCH   1  21
HETATM   21  C   UNL     1      42.187 -17.678   2.415  1.00  0.00     0.098 A 
HETATM   22  C   UNL     1      42.852 -18.575   3.231  1.00  0.00     0.138 A 
HETATM   23  N   UNL     1      42.779 -18.859   4.556  1.00  0.00    -0.370 N 
HETATM   24  N   UNL     1      43.782 -19.187   2.430  1.00  0.00    -0.240 N 
HETATM   25  C   UNL     1      43.674 -19.830   5.186  1.00  0.00     0.081 C 
HETATM   26  H   UNL     1      42.244 -18.271   5.196  1.00  0.00     0.161 HD
HETATM   27  C   UNL     1      43.926 -19.420   6.636  1.00  0.00     0.032 C 
HETATM   28  C   UNL     1      44.998 -19.919   4.410  1.00  0.00     0.061 C 
HETATM   29  C   UNL     1      44.758 -20.147   2.907  1.00  0.00     0.221 C 
HETATM   30  N   UNL     1      43.835 -18.696   1.181  1.00  0.00    -0.181 NA
HETATM   31  C   UNL     1      42.855 -17.786   1.171  1.00  0.00     0.160 A 
BRANCH  29  32
HETATM   32  C   UNL     1      44.297 -21.551   2.593  1.00  0.00     0.409 C 
HETATM   33  F   UNL     1      44.410 -22.399   3.639  1.00  0.00    -0.169 F 
HETATM   34  F   UNL     1      43.018 -21.596   2.165  1.00  0.00    -0.169 F 
HETATM   35  F   UNL     1      45.056 -22.069   1.592  1.00  0.00    -0.169 F 
ENDBRANCH  29  32
ENDBRANCH   1  21
TORSDOF 8
ENDMDL
MODEL 5
REMARK VINA RESULT:      -8.4      2.732      3.582
REMARK  8 active torsions:
REMARK  status: ('A' for Active; 'I' for Inactive)
REMARK    1  A    between atoms: C_8  and  C_9 
REMARK       I    between atoms: C_9  and  N_10 
REMARK    2  A    between atoms: N_10  and  N_11 
REMARK    3  A    between atoms: N_11  and  C_12 
REMARK    4  A    between atoms: C_12  and  N_13 
REMARK    5  A    between atoms: N_13  and  C_14 
REMARK    6  A    between atoms: C_15  and  O_16 
REMARK    7  A    between atoms: C_19  and  O_20 
REMARK    8  A    between atoms: C_26  and  C_27 
ROOT
HETATM    1  C   UNL     1      42.723 -14.164   5.376  1.00  0.00     0.275 C 
HETATM    2  N   UNL     1      42.407 -13.482   6.536  1.00  0.00    -0.263 N 
HETATM    3  O   UNL     1      42.938 -13.594   4.308  1.00  0.00    -0.266 OA
HETATM    4  H   UNL     1      41.983 -13.963   7.326  1.00  0.00     0.190 HD
ENDROOT
BRANCH   2   5
HETATM    5  N   UNL     1      42.369 -12.084   6.517  1.00  0.00    -0.273 N 
HETATM    6  H   UNL     1      42.760 -11.662   5.673  1.00  0.00     0.189 HD
BRANCH   5   7
HETATM    7  C   UNL     1      41.393 -11.382   7.175  1.00  0.00     0.191 C 
HETATM    8  S   UNL     1      39.753 -11.513   6.854  1.00  0.00    -0.039 SA
BRANCH   7   9
HETATM    9  N   UNL     1      41.799 -10.509   8.143  1.00  0.00    -0.330 N 
HETATM   10  H   UNL     1      41.896  -9.545   7.831  1.00  0.00     0.168 HD
BRANCH   9  11
HETATM   11  C   UNL     1      42.013 -10.677   9.531  1.00  0.00     0.068 A 
HETATM   12  C   UNL     1      43.341 -10.895   9.956  1.00  0.00     0.097 A 
HETATM   13  C   UNL     1      43.632 -11.025  11.322  1.00  0.00     0.075 A 
HETATM   14  C   UNL     1      42.611 -10.928  12.269  1.00  0.00     0.070 A 
HETATM   15  C   UNL     1      41.303 -10.699  11.846  1.00  0.00     0.039 A 
HETATM   16  C   UNL     1      41.004 -10.563  10.489  1.00  0.00     0.035 A 
BRANCH  12  17
HETATM   17  O   UNL     1      44.277 -10.954   8.947  1.00  0.00    -0.354 OA
HETATM   18  C   UNL     1      45.117 -12.100   8.903  1.00  0.00     0.210 C 
ENDBRANCH  12  17
BRANCH  14  19
HETATM   19  O   UNL     1      42.755 -11.026  13.626  1.00  0.00    -0.356 OA
HETATM   20  C   UNL     1      42.355  -9.905  14.405  1.00  0.00     0.210 C 
ENDBRANCH  14  19
ENDBRANCH   9  11
ENDBRANCH   7   9
ENDBRANCH   5   7
ENDBRANCH   2   5
BRANCH   1  21
HETATM   21  C   UNL     1      42.770 -15.601   5.525  1.00  0.00     0.098 A 
HETATM   22  C   UNL     1      43.196 -16.554   4.618  1.00  0.00     0.138 A 
HETATM   23  N   UNL     1      43.628 -16.487   3.333  1.00  0.00    -0.370 N 
HETATM   24  N   UNL     1      43.042 -17.762   5.248  1.00  0.00    -0.240 N 
HETATM   25  C   UNL     1      43.956 -17.691   2.567  1.00  0.00     0.081 C 
HETATM   26  H   UNL     1      43.550 -15.626   2.791  1.00  0.00     0.161 HD
HETATM   27  C   UNL     1      43.656 -17.447   1.089  1.00  0.00     0.032 C 
HETATM   28  C   UNL     1      43.154 -18.892   3.092  1.00  0.00     0.061 C 
HETATM   29  C   UNL     1      43.294 -19.043   4.617  1.00  0.00     0.221 C 
HETATM   30  N   UNL     1      42.466 -17.679   6.458  1.00  0.00    -0.181 NA
HETATM   31  C   UNL     1      42.313 -16.361   6.630  1.00  0.00     0.160 A 
BRANCH  29  32
HETATM   32  C   UNL     1      44.650 -19.564   5.033  1.00  0.00     0.409 C 
HETATM   33  F   UNL     1      45.302 -20.212   4.043  1.00  0.00    -0.169 F 
HETATM   34  F   UNL     1      45.465 -18.591   5.492  1.00  0.00    -0.169 F 
HETATM   35  F   UNL     1      44.506 -20.456   6.049  1.00  0.00    -0.169 F 
ENDBRANCH  29  32
ENDBRANCH   1  21
TORSDOF 8
ENDMDL
MODEL 6
REMARK VINA RESULT:      -8.3      4.623      9.937
REMARK  8 active torsions:
REMARK  status: ('A' for Active; 'I' for Inactive)
REMARK    1  A    between atoms: C_8  and  C_9 
REMARK       I    between atoms: C_9  and  N_10 
REMARK    2  A    between atoms: N_10  and  N_11 
REMARK    3  A    between atoms: N_11  and  C_12 
REMARK    4  A    between atoms: C_12  and  N_13 
REMARK    5  A    between atoms: N_13  and  C_14 
REMARK    6  A    between atoms: C_15  and  O_16 
REMARK    7  A    between atoms: C_19  and  O_20 
REMARK    8  A    between atoms: C_26  and  C_27 
ROOT
HETATM    1  C   UNL     1      45.142 -13.174   7.787  1.00  0.00     0.275 C 
HETATM    2  N   UNL     1      44.192 -14.177   7.769  1.00  0.00    -0.263 N 
HETATM    3  O   UNL     1      46.030 -13.085   6.942  1.00  0.00    -0.266 OA
HETATM    4  H   UNL     1      43.639 -14.389   8.597  1.00  0.00     0.190 HD
ENDROOT
BRANCH   2   5
HETATM    5  N   UNL     1      44.203 -15.110   6.727  1.00  0.00    -0.273 N 
HETATM    6  H   UNL     1      44.545 -16.035   6.993  1.00  0.00     0.189 HD
BRANCH   5   7
HETATM    7  C   UNL     1      43.303 -15.047   5.695  1.00  0.00     0.191 C 
HETATM    8  S   UNL     1      42.857 -13.633   4.913  1.00  0.00    -0.039 SA
BRANCH   7   9
HETATM    9  N   UNL     1      42.728 -16.220   5.299  1.00  0.00    -0.330 N 
HETATM   10  H   UNL     1      41.711 -16.230   5.345  1.00  0.00     0.168 HD
BRANCH   9  11
HETATM   11  C   UNL     1      43.279 -17.395   4.736  1.00  0.00     0.068 A 
HETATM   12  C   UNL     1      43.545 -18.466   5.616  1.00  0.00     0.097 A 
HETATM   13  C   UNL     1      44.049 -19.677   5.120  1.00  0.00     0.075 A 
HETATM   14  C   UNL     1      44.280 -19.834   3.752  1.00  0.00     0.070 A 
HETATM   15  C   UNL     1      44.002 -18.778   2.885  1.00  0.00     0.039 A 
HETATM   16  C   UNL     1      43.495 -17.570   3.368  1.00  0.00     0.035 A 
BRANCH  12  17
HETATM   17  O   UNL     1      43.265 -18.219   6.942  1.00  0.00    -0.354 OA
HETATM   18  C   UNL     1      44.221 -18.649   7.902  1.00  0.00     0.210 C 
ENDBRANCH  12  17
BRANCH  14  19
HETATM   19  O   UNL     1      44.758 -20.957   3.136  1.00  0.00    -0.356 OA
HETATM   20  C   UNL     1      44.023 -21.452   2.024  1.00  0.00     0.210 C 
ENDBRANCH  14  19
ENDBRANCH   9  11
ENDBRANCH   7   9
ENDBRANCH   5   7
ENDBRANCH   2   5
BRANCH   1  21
HETATM   21  C   UNL     1      45.007 -12.246   8.887  1.00  0.00     0.098 A 
HETATM   22  C   UNL     1      43.881 -11.565   9.315  1.00  0.00     0.138 A 
HETATM   23  N   UNL     1      42.610 -11.482   8.847  1.00  0.00    -0.370 N 
HETATM   24  N   UNL     1      44.286 -10.819  10.392  1.00  0.00    -0.240 N 
HETATM   25  C   UNL     1      41.616 -10.608   9.470  1.00  0.00     0.081 C 
HETATM   26  H   UNL     1      42.355 -11.864   7.935  1.00  0.00     0.161 HD
HETATM   27  C   UNL     1      40.634 -10.119   8.405  1.00  0.00     0.032 C 
HETATM   28  C   UNL     1      42.305  -9.419  10.157  1.00  0.00     0.061 C 
HETATM   29  C   UNL     1      43.430  -9.885  11.098  1.00  0.00     0.221 C 
HETATM   30  N   UNL     1      45.602 -10.891  10.645  1.00  0.00    -0.181 NA
HETATM   31  C   UNL     1      46.037 -11.770   9.735  1.00  0.00     0.160 A 
BRANCH  29  32
HETATM   32  C   UNL     1      42.909 -10.520  12.367  1.00  0.00     0.409 C 
HETATM   33  F   UNL     1      42.959 -11.870  12.349  1.00  0.00    -0.169 F 
HETATM   34  F   UNL     1      43.566 -10.099  13.468  1.00  0.00    -0.169 F 
HETATM   35  F   UNL     1      41.604 -10.184  12.545  1.00  0.00    -0.169 F 
ENDBRANCH  29  32
ENDBRANCH   1  21
TORSDOF 8
ENDMDL
MODEL 7
REMARK VINA RESULT:      -8.3      5.556      8.998
REMARK  8 active torsions:
REMARK  status: ('A' for Active; 'I' for Inactive)
REMARK    1  A    between atoms: C_8  and  C_9 
REMARK       I    between atoms: C_9  and  N_10 
REMARK    2  A    between atoms: N_10  and  N_11 
REMARK    3  A    between atoms: N_11  and  C_12 
REMARK    4  A    between atoms: C_12  and  N_13 
REMARK    5  A    between atoms: N_13  and  C_14 
REMARK    6  A    between atoms: C_15  and  O_16 
REMARK    7  A    between atoms: C_19  and  O_20 
REMARK    8  A    between atoms: C_26  and  C_27 
ROOT
HETATM    1  C   UNL     1      42.223 -14.018   4.727  1.00  0.00     0.275 C 
HETATM    2  N   UNL     1      41.304 -13.773   3.726  1.00  0.00    -0.263 N 
HETATM    3  O   UNL     1      42.872 -13.124   5.267  1.00  0.00    -0.266 OA
HETATM    4  H   UNL     1      40.976 -14.524   3.122  1.00  0.00     0.190 HD
ENDROOT
BRANCH   2   5
HETATM    5  N   UNL     1      41.059 -12.454   3.330  1.00  0.00    -0.273 N 
HETATM    6  H   UNL     1      41.114 -11.769   4.086  1.00  0.00     0.189 HD
BRANCH   5   7
HETATM    7  C   UNL     1      41.356 -12.016   2.065  1.00  0.00     0.191 C 
HETATM    8  S   UNL     1      40.822 -10.566   1.415  1.00  0.00    -0.039 SA
BRANCH   7   9
HETATM    9  N   UNL     1      42.125 -12.835   1.289  1.00  0.00    -0.330 N 
HETATM   10  H   UNL     1      43.023 -13.086   1.697  1.00  0.00     0.168 HD
BRANCH   9  11
HETATM   11  C   UNL     1      41.862 -13.486   0.061  1.00  0.00     0.068 A 
HETATM   12  C   UNL     1      41.383 -14.812   0.126  1.00  0.00     0.097 A 
HETATM   13  C   UNL     1      41.058 -15.503  -1.050  1.00  0.00     0.075 A 
HETATM   14  C   UNL     1      41.195 -14.879  -2.292  1.00  0.00     0.070 A 
HETATM   15  C   UNL     1      41.655 -13.564  -2.350  1.00  0.00     0.039 A 
HETATM   16  C   UNL     1      41.976 -12.866  -1.184  1.00  0.00     0.035 A 
BRANCH  12  17
HETATM   17  O   UNL     1      41.263 -15.331   1.397  1.00  0.00    -0.354 OA
HETATM   18  C   UNL     1      40.306 -16.363   1.593  1.00  0.00     0.210 C 
ENDBRANCH  12  17
BRANCH  14  19
HETATM   19  O   UNL     1      40.908 -15.430  -3.510  1.00  0.00    -0.356 OA
HETATM   20  C   UNL     1      39.579 -15.891  -3.718  1.00  0.00     0.210 C 
ENDBRANCH  14  19
ENDBRANCH   9  11
ENDBRANCH   7   9
ENDBRANCH   5   7
ENDBRANCH   2   5
BRANCH   1  21
HETATM   21  C   UNL     1      42.362 -15.413   5.080  1.00  0.00     0.098 A 
HETATM   22  C   UNL     1      42.943 -16.438   4.355  1.00  0.00     0.138 A 
HETATM   23  N   UNL     1      43.490 -16.506   3.115  1.00  0.00    -0.370 N 
HETATM   24  N   UNL     1      42.817 -17.560   5.133  1.00  0.00    -0.240 N 
HETATM   25  C   UNL     1      43.978 -17.768   2.557  1.00  0.00     0.081 C 
HETATM   26  H   UNL     1      43.402 -15.734   2.453  1.00  0.00     0.161 HD
HETATM   27  C   UNL     1      43.805 -17.750   1.039  1.00  0.00     0.032 C 
HETATM   28  C   UNL     1      43.220 -18.954   3.175  1.00  0.00     0.061 C 
HETATM   29  C   UNL     1      43.223 -18.887   4.712  1.00  0.00     0.221 C 
HETATM   30  N   UNL     1      42.123 -17.366   6.265  1.00  0.00    -0.181 NA
HETATM   31  C   UNL     1      41.857 -16.056   6.237  1.00  0.00     0.160 A 
BRANCH  29  32
HETATM   32  C   UNL     1      44.567 -19.230   5.312  1.00  0.00     0.409 C 
HETATM   33  F   UNL     1      45.333 -19.997   4.506  1.00  0.00    -0.169 F 
HETATM   34  F   UNL     1      45.285 -18.136   5.641  1.00  0.00    -0.169 F 
HETATM   35  F   UNL     1      44.390 -19.933   6.461  1.00  0.00    -0.169 F 
ENDBRANCH  29  32
ENDBRANCH   1  21
TORSDOF 8
ENDMDL
MODEL 8
REMARK VINA RESULT:      -8.2      5.919      8.780
REMARK  8 active torsions:
REMARK  status: ('A' for Active; 'I' for Inactive)
REMARK    1  A    between atoms: C_8  and  C_9 
REMARK       I    between atoms: C_9  and  N_10 
REMARK    2  A    between atoms: N_10  and  N_11 
REMARK    3  A    between atoms: N_11  and  C_12 
REMARK    4  A    between atoms: C_12  and  N_13 
REMARK    5  A    between atoms: N_13  and  C_14 
REMARK    6  A    between atoms: C_15  and  O_16 
REMARK    7  A    between atoms: C_19  and  O_20 
REMARK    8  A    between atoms: C_26  and  C_27 
ROOT
HETATM    1  C   UNL     1      39.968 -13.816   2.729  1.00  0.00     0.275 C 
HETATM    2  N   UNL     1      39.524 -14.872   3.499  1.00  0.00    -0.263 N 
HETATM    3  O   UNL     1      40.706 -12.936   3.169  1.00  0.00    -0.266 OA
HETATM    4  H   UNL     1      38.726 -15.432   3.209  1.00  0.00     0.190 HD
ENDROOT
BRANCH   2   5
HETATM    5  N   UNL     1      39.959 -14.982   4.825  1.00  0.00    -0.273 N 
HETATM    6  H   UNL     1      39.210 -14.946   5.519  1.00  0.00     0.189 HD
BRANCH   5   7
HETATM    7  C   UNL     1      41.088 -15.685   5.155  1.00  0.00     0.191 C 
HETATM    8  S   UNL     1      42.488 -14.996   5.767  1.00  0.00    -0.039 SA
BRANCH   7   9
HETATM    9  N   UNL     1      41.061 -17.034   4.952  1.00  0.00    -0.330 N 
HETATM   10  H   UNL     1      40.168 -17.477   5.159  1.00  0.00     0.168 HD
BRANCH   9  11
HETATM   11  C   UNL     1      42.018 -17.922   4.406  1.00  0.00     0.068 A 
HETATM   12  C   UNL     1      42.046 -18.052   3.000  1.00  0.00     0.097 A 
HETATM   13  C   UNL     1      42.998 -18.880   2.388  1.00  0.00     0.075 A 
HETATM   14  C   UNL     1      43.930 -19.572   3.164  1.00  0.00     0.070 A 
HETATM   15  C   UNL     1      43.907 -19.429   4.551  1.00  0.00     0.039 A 
HETATM   16  C   UNL     1      42.967 -18.603   5.170  1.00  0.00     0.035 A 
BRANCH  12  17
HETATM   17  O   UNL     1      41.099 -17.314   2.324  1.00  0.00    -0.354 OA
HETATM   18  C   UNL     1      41.348 -17.034   0.953  1.00  0.00     0.210 C 
ENDBRANCH  12  17
BRANCH  14  19
HETATM   19  O   UNL     1      44.913 -20.401   2.699  1.00  0.00    -0.356 OA
HETATM   20  C   UNL     1      44.503 -21.601   2.056  1.00  0.00     0.210 C 
ENDBRANCH  14  19
ENDBRANCH   9  11
ENDBRANCH   7   9
ENDBRANCH   5   7
ENDBRANCH   2   5
BRANCH   1  21
HETATM   21  C   UNL     1      39.486 -13.829   1.366  1.00  0.00     0.098 A 
HETATM   22  C   UNL     1      40.167 -13.525   0.201  1.00  0.00     0.138 A 
HETATM   23  N   UNL     1      41.422 -13.075  -0.052  1.00  0.00    -0.370 N 
HETATM   24  N   UNL     1      39.261 -13.696  -0.814  1.00  0.00    -0.240 N 
HETATM   25  C   UNL     1      41.868 -12.762  -1.410  1.00  0.00     0.081 C 
HETATM   26  H   UNL     1      42.030 -12.749   0.700  1.00  0.00     0.161 HD
HETATM   27  C   UNL     1      42.898 -11.635  -1.357  1.00  0.00     0.032 C 
HETATM   28  C   UNL     1      40.672 -12.362  -2.287  1.00  0.00     0.061 C 
HETATM   29  C   UNL     1      39.539 -13.401  -2.207  1.00  0.00     0.221 C 
HETATM   30  N   UNL     1      38.022 -13.999  -0.396  1.00  0.00    -0.181 NA
HETATM   31  C   UNL     1      38.163 -14.091   0.930  1.00  0.00     0.160 A 
BRANCH  29  32
HETATM   32  C   UNL     1      39.859 -14.677  -2.950  1.00  0.00     0.409 C 
HETATM   33  F   UNL     1      40.500 -15.592  -2.191  1.00  0.00    -0.169 F 
HETATM   34  F   UNL     1      38.762 -15.268  -3.467  1.00  0.00    -0.169 F 
HETATM   35  F   UNL     1      40.678 -14.403  -3.999  1.00  0.00    -0.169 F 
ENDBRANCH  29  32
ENDBRANCH   1  21
TORSDOF 8
ENDMDL
MODEL 9
REMARK VINA RESULT:      -8.2      7.097      8.804
REMARK  8 active torsions:
REMARK  status: ('A' for Active; 'I' for Inactive)
REMARK    1  A    between atoms: C_8  and  C_9 
REMARK       I    between atoms: C_9  and  N_10 
REMARK    2  A    between atoms: N_10  and  N_11 
REMARK    3  A    between atoms: N_11  and  C_12 
REMARK    4  A    between atoms: C_12  and  N_13 
REMARK    5  A    between atoms: N_13  and  C_14 
REMARK    6  A    between atoms: C_15  and  O_16 
REMARK    7  A    between atoms: C_19  and  O_20 
REMARK    8  A    between atoms: C_26  and  C_27 
ROOT
HETATM    1  C   UNL     1      40.985 -16.722   2.756  1.00  0.00     0.275 C 
HETATM    2  N   UNL     1      40.092 -16.499   1.726  1.00  0.00    -0.263 N 
HETATM    3  O   UNL     1      40.856 -16.217   3.869  1.00  0.00    -0.266 OA
HETATM    4  H   UNL     1      40.345 -16.702   0.761  1.00  0.00     0.190 HD
ENDROOT
BRANCH   2   5
HETATM    5  N   UNL     1      38.967 -15.701   1.958  1.00  0.00    -0.273 N 
HETATM    6  H   UNL     1      38.433 -15.957   2.790  1.00  0.00     0.189 HD
BRANCH   5   7
HETATM    7  C   UNL     1      38.921 -14.390   1.563  1.00  0.00     0.191 C 
HETATM    8  S   UNL     1      37.644 -13.696   0.727  1.00  0.00    -0.039 SA
BRANCH   7   9
HETATM    9  N   UNL     1      40.002 -13.612   1.863  1.00  0.00    -0.330 N 
HETATM   10  H   UNL     1      40.332 -13.696   2.822  1.00  0.00     0.168 HD
BRANCH   9  11
HETATM   11  C   UNL     1      40.818 -12.785   1.056  1.00  0.00     0.068 A 
HETATM   12  C   UNL     1      41.462 -13.393  -0.044  1.00  0.00     0.097 A 
HETATM   13  C   UNL     1      42.249 -12.623  -0.913  1.00  0.00     0.075 A 
HETATM   14  C   UNL     1      42.392 -11.251  -0.701  1.00  0.00     0.070 A 
HETATM   15  C   UNL     1      41.743 -10.653   0.377  1.00  0.00     0.039 A 
HETATM   16  C   UNL     1      40.952 -11.408   1.245  1.00  0.00     0.035 A 
BRANCH  12  17
HETATM   17  O   UNL     1      41.242 -14.746  -0.178  1.00  0.00    -0.354 OA
HETATM   18  C   UNL     1      40.933 -15.231  -1.477  1.00  0.00     0.210 C 
ENDBRANCH  12  17
BRANCH  14  19
HETATM   19  O   UNL     1      43.119 -10.385  -1.472  1.00  0.00    -0.356 OA
HETATM   20  C   UNL     1      42.720 -10.228  -2.827  1.00  0.00     0.210 C 
ENDBRANCH  14  19
ENDBRANCH   9  11
ENDBRANCH   7   9
ENDBRANCH   5   7
ENDBRANCH   2   5
BRANCH   1  21
HETATM   21  C   UNL     1      42.086 -17.593   2.411  1.00  0.00     0.098 A 
HETATM   22  C   UNL     1      42.778 -18.478   3.217  1.00  0.00     0.138 A 
HETATM   23  N   UNL     1      42.717 -18.775   4.540  1.00  0.00    -0.370 N 
HETATM   24  N   UNL     1      43.721 -19.059   2.408  1.00  0.00    -0.240 N 
HETATM   25  C   UNL     1      43.640 -19.727   5.159  1.00  0.00     0.081 C 
HETATM   26  H   UNL     1      42.168 -18.206   5.186  1.00  0.00     0.161 HD
HETATM   27  C   UNL     1      43.886 -19.321   6.612  1.00  0.00     0.032 C 
HETATM   28  C   UNL     1      44.963 -19.773   4.379  1.00  0.00     0.061 C 
HETATM   29  C   UNL     1      44.724 -19.996   2.875  1.00  0.00     0.221 C 
HETATM   30  N   UNL     1      43.757 -18.557   1.163  1.00  0.00    -0.181 NA
HETATM   31  C   UNL     1      42.753 -17.673   1.163  1.00  0.00     0.160 A 
BRANCH  29  32
HETATM   32  C   UNL     1      44.300 -21.410   2.551  1.00  0.00     0.409 C 
HETATM   33  F   UNL     1      45.032 -21.976   1.567  1.00  0.00    -0.169 F 
HETATM   34  F   UNL     1      44.350 -22.228   3.623  1.00  0.00    -0.169 F 
HETATM   35  F   UNL     1      43.010 -21.414   2.124  1.00  0.00    -0.169 F 
ENDBRANCH  29  32
ENDBRANCH   1  21
TORSDOF 8
ENDMDL
MODEL 10
REMARK VINA RESULT:      -8.2      7.033      9.733
REMARK  8 active torsions:
REMARK  status: ('A' for Active; 'I' for Inactive)
REMARK    1  A    between atoms: C_8  and  C_9 
REMARK       I    between atoms: C_9  and  N_10 
REMARK    2  A    between atoms: N_10  and  N_11 
REMARK    3  A    between atoms: N_11  and  C_12 
REMARK    4  A    between atoms: C_12  and  N_13 
REMARK    5  A    between atoms: N_13  and  C_14 
REMARK    6  A    between atoms: C_15  and  O_16 
REMARK    7  A    between atoms: C_19  and  O_20 
REMARK    8  A    between atoms: C_26  and  C_27 
ROOT
HETATM    1  C   UNL     1      40.960 -16.537   2.726  1.00  0.00     0.275 C 
HETATM    2  N   UNL     1      40.006 -16.388   1.739  1.00  0.00    -0.263 N 
HETATM    3  O   UNL     1      40.892 -15.959   3.809  1.00  0.00    -0.266 OA
HETATM    4  H   UNL     1      40.203 -16.655   0.777  1.00  0.00     0.190 HD
ENDROOT
BRANCH   2   5
HETATM    5  N   UNL     1      38.889 -15.582   1.985  1.00  0.00    -0.273 N 
HETATM    6  H   UNL     1      38.532 -15.636   2.940  1.00  0.00     0.189 HD
BRANCH   5   7
HETATM    7  C   UNL     1      38.683 -14.411   1.303  1.00  0.00     0.191 C 
HETATM    8  S   UNL     1      38.643 -12.895   2.016  1.00  0.00    -0.039 SA
BRANCH   7   9
HETATM    9  N   UNL     1      38.484 -14.503  -0.044  1.00  0.00    -0.330 N 
HETATM   10  H   UNL     1      37.745 -15.147  -0.321  1.00  0.00     0.168 HD
BRANCH   9  11
HETATM   11  C   UNL     1      39.046 -13.789  -1.129  1.00  0.00     0.068 A 
HETATM   12  C   UNL     1      40.452 -13.807  -1.251  1.00  0.00     0.097 A 
HETATM   13  C   UNL     1      41.074 -13.159  -2.328  1.00  0.00     0.075 A 
HETATM   14  C   UNL     1      40.306 -12.502  -3.291  1.00  0.00     0.070 A 
HETATM   15  C   UNL     1      38.917 -12.500  -3.174  1.00  0.00     0.039 A 
HETATM   16  C   UNL     1      38.287 -13.147  -2.109  1.00  0.00     0.035 A 
BRANCH  12  17
HETATM   17  O   UNL     1      41.118 -14.498  -0.263  1.00  0.00    -0.354 OA
HETATM   18  C   UNL     1      42.083 -13.782   0.497  1.00  0.00     0.210 C 
ENDBRANCH  12  17
BRANCH  14  19
HETATM   19  O   UNL     1      40.779 -11.841  -4.391  1.00  0.00    -0.356 OA
HETATM   20  C   UNL     1      41.993 -11.115  -4.242  1.00  0.00     0.210 C 
ENDBRANCH  14  19
ENDBRANCH   9  11
ENDBRANCH   7   9
ENDBRANCH   5   7
ENDBRANCH   2   5
BRANCH   1  21
HETATM   21  C   UNL     1      42.047 -17.424   2.375  1.00  0.00     0.098 A 
HETATM   22  C   UNL     1      42.709 -18.341   3.170  1.00  0.00     0.138 A 
HETATM   23  N   UNL     1      42.625 -18.666   4.485  1.00  0.00    -0.370 N 
HETATM   24  N   UNL     1      43.650 -18.924   2.359  1.00  0.00    -0.240 N 
HETATM   25  C   UNL     1      43.520 -19.651   5.094  1.00  0.00     0.081 C 
HETATM   26  H   UNL     1      42.080 -18.100   5.137  1.00  0.00     0.161 HD
HETATM   27  C   UNL     1      43.755 -19.283   6.558  1.00  0.00     0.032 C 
HETATM   28  C   UNL     1      44.851 -19.709   4.329  1.00  0.00     0.061 C 
HETATM   29  C   UNL     1      44.627 -19.892   2.817  1.00  0.00     0.221 C 
HETATM   30  N   UNL     1      43.713 -18.395   1.126  1.00  0.00    -0.181 NA
HETATM   31  C   UNL     1      42.728 -17.490   1.134  1.00  0.00     0.160 A 
BRANCH  29  32
HETATM   32  C   UNL     1      44.177 -21.289   2.456  1.00  0.00     0.409 C 
HETATM   33  F   UNL     1      44.234 -22.155   3.491  1.00  0.00    -0.169 F 
HETATM   34  F   UNL     1      42.920 -21.321   1.964  1.00  0.00    -0.169 F 
HETATM   35  F   UNL     1      44.983 -21.793   1.485  1.00  0.00    -0.169 F 
ENDBRANCH  29  32
ENDBRANCH   1  21
TORSDOF 8
ENDMDL
