MODEL 1
REMARK VINA RESULT:     -10.6      0.000      0.000
REMARK  4 active torsions:
REMARK  status: ('A' for Active; 'I' for Inactive)
REMARK    1  A    between atoms: C_2  and  C_3 
REMARK    2  A    between atoms: N_16  and  C_17 
REMARK    3  A    between atoms: C_17  and  C_18 
REMARK       I    between atoms: C_18  and  N_19 
REMARK    4  A    between atoms: N_19  and  C_20 
ROOT
HETATM    1  C   UNL     1      43.474 -15.288   6.243  1.00  0.00     0.054 C 
HETATM    2  C   UNL     1      43.138 -15.767   4.827  1.00  0.00     0.140 A 
HETATM    3  N   UNL     1      43.697 -14.831   3.873  1.00  0.00    -0.321 N 
HETATM    4  C   UNL     1      42.740 -14.109   3.204  1.00  0.00     0.326 A 
HETATM    5  O   UNL     1      42.995 -13.236   2.395  1.00  0.00    -0.247 OA
HETATM    6  N   UNL     1      41.515 -14.524   3.618  1.00  0.00    -0.259 N 
HETATM    7  C   UNL     1      41.636 -15.523   4.540  1.00  0.00     0.261 A 
HETATM    8  O   UNL     1      40.686 -16.116   5.040  1.00  0.00    -0.270 OA
HETATM    9  H   UNL     1      44.681 -14.644   3.737  1.00  0.00     0.165 HD
ENDROOT
BRANCH   6  10
HETATM   10  C   UNL     1      40.263 -13.988   3.125  1.00  0.00     0.240 C 
BRANCH  10  11
HETATM   11  C   UNL     1      39.869 -14.653   1.805  1.00  0.00     0.240 C 
HETATM   12  N   UNL     1      40.471 -14.077   0.695  1.00  0.00    -0.325 N 
HETATM   13  H   UNL     1      41.189 -13.384   0.887  1.00  0.00     0.169 HD
HETATM   14  O   UNL     1      39.180 -15.670   1.802  1.00  0.00    -0.271 OA
BRANCH  12  15
HETATM   15  C   UNL     1      40.264 -14.417  -0.668  1.00  0.00     0.047 A 
HETATM   16  C   UNL     1      39.224 -13.774  -1.412  1.00  0.00     0.019 A 
HETATM   17  C   UNL     1      39.010 -14.144  -2.763  1.00  0.00     0.069 A 
HETATM   18  C   UNL     1      38.375 -12.754  -0.917  1.00  0.00     0.017 A 
HETATM   19  N   UNL     1      38.070 -13.585  -3.547  1.00  0.00    -0.260 NA
HETATM   20  C   UNL     1      39.806 -15.124  -3.332  1.00  0.00     0.032 A 
HETATM   21  C   UNL     1      37.292 -12.619  -3.023  1.00  0.00     0.117 A 
HETATM   22  C   UNL     1      37.404 -12.171  -1.727  1.00  0.00     0.020 A 
HETATM   23  C   UNL     1      40.815 -15.755  -2.613  1.00  0.00     0.005 A 
HETATM   24  C   UNL     1      41.042 -15.401  -1.287  1.00  0.00     0.030 A 
ENDBRANCH  12  15
ENDBRANCH  10  11
ENDBRANCH   6  10
BRANCH   2  25
HETATM   25  C   UNL     1      43.546 -17.212   4.569  1.00  0.00    -0.020 A 
HETATM   26  C   UNL     1      43.213 -17.890   3.380  1.00  0.00     0.022 A 
HETATM   27  C   UNL     1      43.612 -19.219   3.145  1.00  0.00    -0.025 A 
HETATM   28  C   UNL     1      44.360 -19.902   4.128  1.00  0.00    -0.026 A 
HETATM   29  C   UNL     1      43.286 -19.885   1.951  1.00  0.00     0.012 A 
HETATM   30  C   UNL     1      44.678 -19.243   5.322  1.00  0.00     0.013 A 
HETATM   31  C   UNL     1      44.764 -21.226   3.893  1.00  0.00     0.012 A 
HETATM   32  C   UNL     1      44.275 -17.921   5.539  1.00  0.00     0.011 A 
HETATM   33  C   UNL     1      44.435 -21.871   2.700  1.00  0.00     0.001 A 
HETATM   34  C   UNL     1      43.695 -21.200   1.731  1.00  0.00     0.001 A 
ENDBRANCH   2  25
TORSDOF 4
ENDMDL
MODEL 2
REMARK VINA RESULT:     -10.4      1.252      1.853
REMARK  4 active torsions:
REMARK  status: ('A' for Active; 'I' for Inactive)
REMARK    1  A    between atoms: C_2  and  C_3 
REMARK    2  A    between atoms: N_16  and  C_17 
REMARK    3  A    between atoms: C_17  and  C_18 
REMARK       I    between atoms: C_18  and  N_19 
REMARK    4  A    between atoms: N_19  and  C_20 
ROOT
HETATM    1  C   UNL     1      43.657 -15.290   6.320  1.00  0.00     0.054 C 
HETATM    2  C   UNL     1      43.205 -15.776   4.939  1.00  0.00     0.140 A 
HETATM    3  N   UNL     1      43.671 -14.839   3.938  1.00  0.00    -0.321 N 
HETATM    4  C   UNL     1      42.653 -14.127   3.353  1.00  0.00     0.326 A 
HETATM    5  O   UNL     1      42.830 -13.254   2.523  1.00  0.00    -0.247 OA
HETATM    6  N   UNL     1      41.473 -14.551   3.872  1.00  0.00    -0.259 N 
HETATM    7  C   UNL     1      41.682 -15.546   4.782  1.00  0.00     0.261 A 
HETATM    8  O   UNL     1      40.784 -16.146   5.365  1.00  0.00    -0.270 OA
HETATM    9  H   UNL     1      44.638 -14.644   3.717  1.00  0.00     0.165 HD
ENDROOT
BRANCH   6  10
HETATM   10  C   UNL     1      40.178 -14.028   3.488  1.00  0.00     0.240 C 
BRANCH  10  11
HETATM   11  C   UNL     1      39.812 -14.469   2.070  1.00  0.00     0.240 C 
HETATM   12  N   UNL     1      39.919 -13.453   1.130  1.00  0.00    -0.325 N 
HETATM   13  H   UNL     1      40.344 -12.589   1.455  1.00  0.00     0.169 HD
HETATM   14  O   UNL     1      39.573 -15.649   1.827  1.00  0.00    -0.271 OA
BRANCH  12  15
HETATM   15  C   UNL     1      39.591 -13.520  -0.249  1.00  0.00     0.047 A 
HETATM   16  C   UNL     1      40.573 -13.181  -1.234  1.00  0.00     0.019 A 
HETATM   17  C   UNL     1      40.222 -13.225  -2.606  1.00  0.00     0.069 A 
HETATM   18  C   UNL     1      41.914 -12.816  -0.958  1.00  0.00     0.017 A 
HETATM   19  N   UNL     1      41.079 -12.941  -3.602  1.00  0.00    -0.260 NA
HETATM   20  C   UNL     1      38.934 -13.587  -2.965  1.00  0.00     0.032 A 
HETATM   21  C   UNL     1      42.343 -12.601  -3.282  1.00  0.00     0.117 A 
HETATM   22  C   UNL     1      42.805 -12.526  -1.988  1.00  0.00     0.020 A 
HETATM   23  C   UNL     1      37.974 -13.912  -2.013  1.00  0.00     0.005 A 
HETATM   24  C   UNL     1      38.303 -13.880  -0.662  1.00  0.00     0.030 A 
ENDBRANCH  12  15
ENDBRANCH  10  11
ENDBRANCH   6  10
BRANCH   2  25
HETATM   25  C   UNL     1      43.603 -17.218   4.651  1.00  0.00    -0.020 A 
HETATM   26  C   UNL     1      43.233 -17.880   3.464  1.00  0.00     0.022 A 
HETATM   27  C   UNL     1      43.623 -19.207   3.200  1.00  0.00    -0.025 A 
HETATM   28  C   UNL     1      44.397 -19.904   4.151  1.00  0.00    -0.026 A 
HETATM   29  C   UNL     1      43.259 -19.856   2.007  1.00  0.00     0.012 A 
HETATM   30  C   UNL     1      44.751 -19.261   5.343  1.00  0.00     0.013 A 
HETATM   31  C   UNL     1      44.792 -21.225   3.887  1.00  0.00     0.012 A 
HETATM   32  C   UNL     1      44.357 -17.942   5.590  1.00  0.00     0.011 A 
HETATM   33  C   UNL     1      44.426 -21.854   2.696  1.00  0.00     0.001 A 
HETATM   34  C   UNL     1      43.659 -21.170   1.758  1.00  0.00     0.001 A 
ENDBRANCH   2  25
TORSDOF 4
ENDMDL
MODEL 3
REMARK VINA RESULT:     -10.0      1.540      2.838
REMARK  4 active torsions:
REMARK  status: ('A' for Active; 'I' for Inactive)
REMARK    1  A    between atoms: C_2  and  C_3 
REMARK    2  A    between atoms: N_16  and  C_17 
REMARK    3  A    between atoms: C_17  and  C_18 
REMARK       I    between atoms: C_18  and  N_19 
REMARK    4  A    between atoms: N_19  and  C_20 
ROOT
HETATM    1  C   UNL     1      43.930 -16.228   6.611  1.00  0.00     0.054 C 
HETATM    2  C   UNL     1      43.193 -16.055   5.280  1.00  0.00     0.140 A 
HETATM    3  N   UNL     1      43.629 -14.819   4.662  1.00  0.00    -0.321 N 
HETATM    4  C   UNL     1      42.650 -13.857   4.637  1.00  0.00     0.326 A 
HETATM    5  O   UNL     1      42.822 -12.730   4.206  1.00  0.00    -0.247 OA
HETATM    6  N   UNL     1      41.518 -14.374   5.178  1.00  0.00    -0.259 N 
HETATM    7  C   UNL     1      41.717 -15.672   5.550  1.00  0.00     0.261 A 
HETATM    8  O   UNL     1      40.844 -16.395   6.020  1.00  0.00    -0.270 OA
HETATM    9  H   UNL     1      44.565 -14.619   4.339  1.00  0.00     0.165 HD
ENDROOT
BRANCH   6  10
HETATM   10  C   UNL     1      40.273 -13.647   5.315  1.00  0.00     0.240 C 
BRANCH  10  11
HETATM   11  C   UNL     1      39.842 -13.049   3.975  1.00  0.00     0.240 C 
HETATM   12  N   UNL     1      39.424 -14.000   3.054  1.00  0.00    -0.325 N 
HETATM   13  H   UNL     1      39.328 -14.949   3.407  1.00  0.00     0.169 HD
HETATM   14  O   UNL     1      39.777 -11.831   3.828  1.00  0.00    -0.271 OA
BRANCH  12  15
HETATM   15  C   UNL     1      39.027 -13.779   1.709  1.00  0.00     0.047 A 
HETATM   16  C   UNL     1      39.763 -14.383   0.641  1.00  0.00     0.019 A 
HETATM   17  C   UNL     1      39.373 -14.130  -0.698  1.00  0.00     0.069 A 
HETATM   18  C   UNL     1      40.866 -15.258   0.800  1.00  0.00     0.017 A 
HETATM   19  N   UNL     1      39.991 -14.665  -1.766  1.00  0.00    -0.260 NA
HETATM   20  C   UNL     1      38.294 -13.297  -0.944  1.00  0.00     0.032 A 
HETATM   21  C   UNL     1      41.033 -15.491  -1.555  1.00  0.00     0.117 A 
HETATM   22  C   UNL     1      41.505 -15.817  -0.304  1.00  0.00     0.020 A 
HETATM   23  C   UNL     1      37.579 -12.703   0.090  1.00  0.00     0.005 A 
HETATM   24  C   UNL     1      37.944 -12.945   1.410  1.00  0.00     0.030 A 
ENDBRANCH  12  15
ENDBRANCH  10  11
ENDBRANCH   6  10
BRANCH   2  25
HETATM   25  C   UNL     1      43.315 -17.266   4.364  1.00  0.00    -0.020 A 
HETATM   26  C   UNL     1      43.955 -18.455   4.767  1.00  0.00     0.022 A 
HETATM   27  C   UNL     1      44.045 -19.575   3.918  1.00  0.00    -0.025 A 
HETATM   28  C   UNL     1      43.489 -19.509   2.623  1.00  0.00    -0.026 A 
HETATM   29  C   UNL     1      44.675 -20.761   4.332  1.00  0.00     0.012 A 
HETATM   30  C   UNL     1      42.869 -18.325   2.207  1.00  0.00     0.013 A 
HETATM   31  C   UNL     1      43.572 -20.627   1.777  1.00  0.00     0.012 A 
HETATM   32  C   UNL     1      42.787 -17.221   3.063  1.00  0.00     0.011 A 
HETATM   33  C   UNL     1      44.198 -21.799   2.205  1.00  0.00     0.001 A 
HETATM   34  C   UNL     1      44.750 -21.865   3.481  1.00  0.00     0.001 A 
ENDBRANCH   2  25
TORSDOF 4
ENDMDL
MODEL 4
REMARK VINA RESULT:      -9.9      4.773      7.853
REMARK  4 active torsions:
REMARK  status: ('A' for Active; 'I' for Inactive)
REMARK    1  A    between atoms: C_2  and  C_3 
REMARK    2  A    between atoms: N_16  and  C_17 
REMARK    3  A    between atoms: C_17  and  C_18 
REMARK       I    between atoms: C_18  and  N_19 
REMARK    4  A    between atoms: N_19  and  C_20 
ROOT
HETATM    1  C   UNL     1      42.822 -17.161   7.594  1.00  0.00     0.054 C 
HETATM    2  C   UNL     1      43.232 -16.712   6.189  1.00  0.00     0.140 A 
HETATM    3  N   UNL     1      44.300 -15.740   6.302  1.00  0.00    -0.321 N 
HETATM    4  C   UNL     1      43.914 -14.473   5.938  1.00  0.00     0.326 A 
HETATM    5  O   UNL     1      44.643 -13.500   6.005  1.00  0.00    -0.247 OA
HETATM    6  N   UNL     1      42.620 -14.514   5.530  1.00  0.00    -0.259 N 
HETATM    7  C   UNL     1      42.138 -15.789   5.599  1.00  0.00     0.261 A 
HETATM    8  O   UNL     1      41.012 -16.120   5.240  1.00  0.00    -0.270 OA
HETATM    9  H   UNL     1      45.221 -15.917   6.676  1.00  0.00     0.165 HD
ENDROOT
BRANCH   6  10
HETATM   10  C   UNL     1      41.874 -13.362   5.067  1.00  0.00     0.240 C 
BRANCH  10  11
HETATM   11  C   UNL     1      41.237 -12.618   6.242  1.00  0.00     0.240 C 
HETATM   12  N   UNL     1      42.042 -11.614   6.763  1.00  0.00    -0.325 N 
HETATM   13  H   UNL     1      42.887 -11.404   6.238  1.00  0.00     0.169 HD
HETATM   14  O   UNL     1      40.075 -12.848   6.567  1.00  0.00    -0.271 OA
BRANCH  12  15
HETATM   15  C   UNL     1      41.771 -10.792   7.888  1.00  0.00     0.047 A 
HETATM   16  C   UNL     1      42.669 -10.790   9.002  1.00  0.00     0.019 A 
HETATM   17  C   UNL     1      42.371  -9.986  10.130  1.00  0.00     0.069 A 
HETATM   18  C   UNL     1      43.879 -11.523   9.078  1.00  0.00     0.017 A 
HETATM   19  N   UNL     1      43.160  -9.906  11.216  1.00  0.00    -0.260 NA
HETATM   20  C   UNL     1      41.213  -9.226  10.134  1.00  0.00     0.032 A 
HETATM   21  C   UNL     1      44.300 -10.624  11.233  1.00  0.00     0.117 A 
HETATM   22  C   UNL     1      44.701 -11.439  10.199  1.00  0.00     0.020 A 
HETATM   23  C   UNL     1      40.334  -9.227   9.055  1.00  0.00     0.005 A 
HETATM   24  C   UNL     1      40.614 -10.006   7.938  1.00  0.00     0.030 A 
ENDBRANCH  12  15
ENDBRANCH  10  11
ENDBRANCH   6  10
BRANCH   2  25
HETATM   25  C   UNL     1      43.566 -17.874   5.261  1.00  0.00    -0.020 A 
HETATM   26  C   UNL     1      43.904 -19.153   5.745  1.00  0.00     0.022 A 
HETATM   27  C   UNL     1      44.193 -20.224   4.878  1.00  0.00    -0.025 A 
HETATM   28  C   UNL     1      44.155 -20.015   3.483  1.00  0.00    -0.026 A 
HETATM   29  C   UNL     1      44.518 -21.500   5.369  1.00  0.00     0.012 A 
HETATM   30  C   UNL     1      43.840 -18.742   2.993  1.00  0.00     0.013 A 
HETATM   31  C   UNL     1      44.436 -21.084   2.616  1.00  0.00     0.012 A 
HETATM   32  C   UNL     1      43.554 -17.689   3.868  1.00  0.00     0.011 A 
HETATM   33  C   UNL     1      44.753 -22.345   3.121  1.00  0.00     0.001 A 
HETATM   34  C   UNL     1      44.795 -22.553   4.496  1.00  0.00     0.001 A 
ENDBRANCH   2  25
TORSDOF 4
ENDMDL
MODEL 5
REMARK VINA RESULT:      -9.8      3.956      8.114
REMARK  4 active torsions:
REMARK  status: ('A' for Active; 'I' for Inactive)
REMARK    1  A    between atoms: C_2  and  C_3 
REMARK    2  A    between atoms: N_16  and  C_17 
REMARK    3  A    between atoms: C_17  and  C_18 
REMARK       I    between atoms: C_18  and  N_19 
REMARK    4  A    between atoms: N_19  and  C_20 
ROOT
HETATM    1  C   UNL     1      40.641 -16.024   2.237  1.00  0.00     0.054 C 
HETATM    2  C   UNL     1      41.442 -16.085   3.541  1.00  0.00     0.140 A 
HETATM    3  N   UNL     1      40.533 -15.911   4.656  1.00  0.00    -0.321 N 
HETATM    4  C   UNL     1      40.708 -14.718   5.311  1.00  0.00     0.326 A 
HETATM    5  O   UNL     1      40.017 -14.352   6.245  1.00  0.00    -0.247 OA
HETATM    6  N   UNL     1      41.737 -14.050   4.729  1.00  0.00    -0.259 N 
HETATM    7  C   UNL     1      42.264 -14.783   3.707  1.00  0.00     0.261 A 
HETATM    8  O   UNL     1      43.238 -14.440   3.043  1.00  0.00    -0.270 OA
HETATM    9  H   UNL     1      39.786 -16.542   4.911  1.00  0.00     0.165 HD
ENDROOT
BRANCH   6  10
HETATM   10  C   UNL     1      42.213 -12.751   5.159  1.00  0.00     0.240 C 
BRANCH  10  11
HETATM   11  C   UNL     1      43.134 -12.883   6.372  1.00  0.00     0.240 C 
HETATM   12  N   UNL     1      42.879 -11.946   7.365  1.00  0.00    -0.325 N 
HETATM   13  H   UNL     1      42.046 -11.377   7.236  1.00  0.00     0.169 HD
HETATM   14  O   UNL     1      43.921 -13.822   6.458  1.00  0.00    -0.271 OA
BRANCH  12  15
HETATM   15  C   UNL     1      43.595 -11.761   8.576  1.00  0.00     0.047 A 
HETATM   16  C   UNL     1      43.056 -10.919   9.601  1.00  0.00     0.019 A 
HETATM   17  C   UNL     1      43.795 -10.720  10.793  1.00  0.00     0.069 A 
HETATM   18  C   UNL     1      41.803 -10.261   9.543  1.00  0.00     0.017 A 
HETATM   19  N   UNL     1      43.365  -9.961  11.817  1.00  0.00    -0.260 NA
HETATM   20  C   UNL     1      45.026 -11.338  10.939  1.00  0.00     0.032 A 
HETATM   21  C   UNL     1      42.165  -9.361  11.708  1.00  0.00     0.117 A 
HETATM   22  C   UNL     1      41.353  -9.479  10.603  1.00  0.00     0.020 A 
HETATM   23  C   UNL     1      45.557 -12.154   9.945  1.00  0.00     0.005 A 
HETATM   24  C   UNL     1      44.842 -12.364   8.770  1.00  0.00     0.030 A 
ENDBRANCH  12  15
ENDBRANCH  10  11
ENDBRANCH   6  10
BRANCH   2  25
HETATM   25  C   UNL     1      42.309 -17.332   3.655  1.00  0.00    -0.020 A 
HETATM   26  C   UNL     1      42.358 -18.312   2.645  1.00  0.00     0.022 A 
HETATM   27  C   UNL     1      43.178 -19.452   2.753  1.00  0.00    -0.025 A 
HETATM   28  C   UNL     1      43.969 -19.629   3.908  1.00  0.00    -0.026 A 
HETATM   29  C   UNL     1      43.230 -20.419   1.735  1.00  0.00     0.012 A 
HETATM   30  C   UNL     1      43.911 -18.670   4.926  1.00  0.00     0.013 A 
HETATM   31  C   UNL     1      44.792 -20.762   4.015  1.00  0.00     0.012 A 
HETATM   32  C   UNL     1      43.092 -17.543   4.803  1.00  0.00     0.011 A 
HETATM   33  C   UNL     1      44.835 -21.711   2.993  1.00  0.00     0.001 A 
HETATM   34  C   UNL     1      44.053 -21.540   1.854  1.00  0.00     0.001 A 
ENDBRANCH   2  25
TORSDOF 4
ENDMDL
MODEL 6
REMARK VINA RESULT:      -9.8      2.070      2.330
REMARK  4 active torsions:
REMARK  status: ('A' for Active; 'I' for Inactive)
REMARK    1  A    between atoms: C_2  and  C_3 
REMARK    2  A    between atoms: N_16  and  C_17 
REMARK    3  A    between atoms: C_17  and  C_18 
REMARK       I    between atoms: C_18  and  N_19 
REMARK    4  A    between atoms: N_19  and  C_20 
ROOT
HETATM    1  C   UNL     1      43.591 -16.413   7.743  1.00  0.00     0.054 C 
HETATM    2  C   UNL     1      43.359 -16.391   6.229  1.00  0.00     0.140 A 
HETATM    3  N   UNL     1      44.066 -15.259   5.665  1.00  0.00    -0.321 N 
HETATM    4  C   UNL     1      43.225 -14.279   5.199  1.00  0.00     0.326 A 
HETATM    5  O   UNL     1      43.613 -13.223   4.731  1.00  0.00    -0.247 OA
HETATM    6  N   UNL     1      41.943 -14.687   5.374  1.00  0.00    -0.259 N 
HETATM    7  C   UNL     1      41.910 -15.932   5.933  1.00  0.00     0.261 A 
HETATM    8  O   UNL     1      40.881 -16.562   6.152  1.00  0.00    -0.270 OA
HETATM    9  H   UNL     1      45.068 -15.131   5.664  1.00  0.00     0.165 HD
ENDROOT
BRANCH   6  10
HETATM   10  C   UNL     1      40.781 -13.911   4.993  1.00  0.00     0.240 C 
BRANCH  10  11
HETATM   11  C   UNL     1      40.401 -14.178   3.537  1.00  0.00     0.240 C 
HETATM   12  N   UNL     1      41.494 -14.422   2.716  1.00  0.00    -0.325 N 
HETATM   13  H   UNL     1      42.389 -14.523   3.186  1.00  0.00     0.169 HD
HETATM   14  O   UNL     1      39.221 -14.277   3.209  1.00  0.00    -0.271 OA
BRANCH  12  15
HETATM   15  C   UNL     1      41.484 -14.637   1.313  1.00  0.00     0.047 A 
HETATM   16  C   UNL     1      41.677 -13.535   0.421  1.00  0.00     0.019 A 
HETATM   17  C   UNL     1      41.636 -13.760  -0.977  1.00  0.00     0.069 A 
HETATM   18  C   UNL     1      41.936 -12.199   0.817  1.00  0.00     0.017 A 
HETATM   19  N   UNL     1      41.822 -12.791  -1.892  1.00  0.00    -0.260 NA
HETATM   20  C   UNL     1      41.402 -15.039  -1.451  1.00  0.00     0.032 A 
HETATM   21  C   UNL     1      42.066 -11.540  -1.458  1.00  0.00     0.117 A 
HETATM   22  C   UNL     1      42.133 -11.195  -0.127  1.00  0.00     0.020 A 
HETATM   23  C   UNL     1      41.210 -16.114  -0.590  1.00  0.00     0.005 A 
HETATM   24  C   UNL     1      41.252 -15.913   0.786  1.00  0.00     0.030 A 
ENDBRANCH  12  15
ENDBRANCH  10  11
ENDBRANCH   6  10
BRANCH   2  25
HETATM   25  C   UNL     1      43.694 -17.714   5.552  1.00  0.00    -0.020 A 
HETATM   26  C   UNL     1      43.331 -17.992   4.220  1.00  0.00     0.022 A 
HETATM   27  C   UNL     1      43.662 -19.211   3.598  1.00  0.00    -0.025 A 
HETATM   28  C   UNL     1      44.370 -20.191   4.326  1.00  0.00    -0.026 A 
HETATM   29  C   UNL     1      43.305 -19.477   2.264  1.00  0.00     0.012 A 
HETATM   30  C   UNL     1      44.718 -19.930   5.657  1.00  0.00     0.013 A 
HETATM   31  C   UNL     1      44.708 -21.404   3.706  1.00  0.00     0.012 A 
HETATM   32  C   UNL     1      44.382 -18.713   6.260  1.00  0.00     0.011 A 
HETATM   33  C   UNL     1      44.349 -21.650   2.380  1.00  0.00     0.001 A 
HETATM   34  C   UNL     1      43.647 -20.687   1.660  1.00  0.00     0.001 A 
ENDBRANCH   2  25
TORSDOF 4
ENDMDL
MODEL 7
REMARK VINA RESULT:      -9.7      2.577      3.455
REMARK  4 active torsions:
REMARK  status: ('A' for Active; 'I' for Inactive)
REMARK    1  A    between atoms: C_2  and  C_3 
REMARK    2  A    between atoms: N_16  and  C_17 
REMARK    3  A    between atoms: C_17  and  C_18 
REMARK       I    between atoms: C_18  and  N_19 
REMARK    4  A    between atoms: N_19  and  C_20 
ROOT
HETATM    1  C   UNL     1      40.137 -16.485   1.999  1.00  0.00     0.054 C 
HETATM    2  C   UNL     1      40.940 -16.009   3.213  1.00  0.00     0.140 A 
HETATM    3  N   UNL     1      40.026 -15.446   4.186  1.00  0.00    -0.321 N 
HETATM    4  C   UNL     1      40.159 -14.086   4.323  1.00  0.00     0.326 A 
HETATM    5  O   UNL     1      39.456 -13.409   5.052  1.00  0.00    -0.247 OA
HETATM    6  N   UNL     1      41.163 -13.664   3.513  1.00  0.00    -0.259 N 
HETATM    7  C   UNL     1      41.716 -14.719   2.848  1.00  0.00     0.261 A 
HETATM    8  O   UNL     1      42.676 -14.629   2.090  1.00  0.00    -0.270 OA
HETATM    9  H   UNL     1      39.301 -15.951   4.676  1.00  0.00     0.165 HD
ENDROOT
BRANCH   6  10
HETATM   10  C   UNL     1      41.592 -12.286   3.398  1.00  0.00     0.240 C 
BRANCH  10  11
HETATM   11  C   UNL     1      41.296 -11.738   2.002  1.00  0.00     0.240 C 
HETATM   12  N   UNL     1      42.368 -11.845   1.127  1.00  0.00    -0.325 N 
HETATM   13  H   UNL     1      43.165 -12.380   1.462  1.00  0.00     0.169 HD
HETATM   14  O   UNL     1      40.163 -11.365   1.707  1.00  0.00    -0.271 OA
BRANCH  12  15
HETATM   15  C   UNL     1      42.437 -11.373  -0.211  1.00  0.00     0.047 A 
HETATM   16  C   UNL     1      42.068 -12.236  -1.291  1.00  0.00     0.019 A 
HETATM   17  C   UNL     1      42.168 -11.761  -2.622  1.00  0.00     0.069 A 
HETATM   18  C   UNL     1      41.572 -13.556  -1.149  1.00  0.00     0.017 A 
HETATM   19  N   UNL     1      41.829 -12.492  -3.699  1.00  0.00    -0.260 NA
HETATM   20  C   UNL     1      42.630 -10.476  -2.850  1.00  0.00     0.032 A 
HETATM   21  C   UNL     1      41.363 -13.740  -3.506  1.00  0.00     0.117 A 
HETATM   22  C   UNL     1      41.216 -14.313  -2.263  1.00  0.00     0.020 A 
HETATM   23  C   UNL     1      42.995  -9.634  -1.804  1.00  0.00     0.005 A 
HETATM   24  C   UNL     1      42.897 -10.082  -0.492  1.00  0.00     0.030 A 
ENDBRANCH  12  15
ENDBRANCH  10  11
ENDBRANCH   6  10
BRANCH   2  25
HETATM   25  C   UNL     1      41.851 -17.085   3.790  1.00  0.00    -0.020 A 
HETATM   26  C   UNL     1      42.501 -18.037   2.981  1.00  0.00     0.022 A 
HETATM   27  C   UNL     1      43.355 -19.016   3.523  1.00  0.00    -0.025 A 
HETATM   28  C   UNL     1      43.565 -19.056   4.918  1.00  0.00    -0.026 A 
HETATM   29  C   UNL     1      44.009 -19.955   2.707  1.00  0.00     0.012 A 
HETATM   30  C   UNL     1      42.907 -18.127   5.732  1.00  0.00     0.013 A 
HETATM   31  C   UNL     1      44.421 -20.027   5.461  1.00  0.00     0.012 A 
HETATM   32  C   UNL     1      42.062 -17.160   5.177  1.00  0.00     0.011 A 
HETATM   33  C   UNL     1      45.066 -20.950   4.636  1.00  0.00     0.001 A 
HETATM   34  C   UNL     1      44.859 -20.914   3.260  1.00  0.00     0.001 A 
ENDBRANCH   2  25
TORSDOF 4
ENDMDL
MODEL 8
REMARK VINA RESULT:      -9.6      4.199      8.736
REMARK  4 active torsions:
REMARK  status: ('A' for Active; 'I' for Inactive)
REMARK    1  A    between atoms: C_2  and  C_3 
REMARK    2  A    between atoms: N_16  and  C_17 
REMARK    3  A    between atoms: C_17  and  C_18 
REMARK       I    between atoms: C_18  and  N_19 
REMARK    4  A    between atoms: N_19  and  C_20 
ROOT
HETATM    1  C   UNL     1      39.775  -9.778   5.471  1.00  0.00     0.054 C 
HETATM    2  C   UNL     1      40.703 -10.873   6.006  1.00  0.00     0.140 A 
HETATM    3  N   UNL     1      41.745 -11.119   5.031  1.00  0.00    -0.321 N 
HETATM    4  C   UNL     1      41.636 -12.348   4.427  1.00  0.00     0.326 A 
HETATM    5  O   UNL     1      42.381 -12.735   3.544  1.00  0.00    -0.247 OA
HETATM    6  N   UNL     1      40.577 -13.004   4.966  1.00  0.00    -0.259 N 
HETATM    7  C   UNL     1      39.985 -12.243   5.931  1.00  0.00     0.261 A 
HETATM    8  O   UNL     1      39.037 -12.614   6.616  1.00  0.00    -0.270 OA
HETATM    9  H   UNL     1      42.450 -10.456   4.740  1.00  0.00     0.165 HD
ENDROOT
BRANCH   6  10
HETATM   10  C   UNL     1      40.159 -14.335   4.577  1.00  0.00     0.240 C 
BRANCH  10  11
HETATM   11  C   UNL     1      41.000 -15.398   5.286  1.00  0.00     0.240 C 
HETATM   12  N   UNL     1      42.183 -15.698   4.625  1.00  0.00    -0.325 N 
HETATM   13  H   UNL     1      42.416 -15.101   3.836  1.00  0.00     0.169 HD
HETATM   14  O   UNL     1      40.669 -15.819   6.391  1.00  0.00    -0.271 OA
BRANCH  12  15
HETATM   15  C   UNL     1      43.143 -16.680   4.984  1.00  0.00     0.047 A 
HETATM   16  C   UNL     1      43.353 -17.815   4.138  1.00  0.00     0.019 A 
HETATM   17  C   UNL     1      44.295 -18.802   4.524  1.00  0.00     0.069 A 
HETATM   18  C   UNL     1      42.705 -18.042   2.899  1.00  0.00     0.017 A 
HETATM   19  N   UNL     1      44.572 -19.893   3.788  1.00  0.00    -0.260 NA
HETATM   20  C   UNL     1      44.984 -18.651   5.715  1.00  0.00     0.032 A 
HETATM   21  C   UNL     1      43.926 -20.056   2.617  1.00  0.00     0.117 A 
HETATM   22  C   UNL     1      42.994 -19.168   2.133  1.00  0.00     0.020 A 
HETATM   23  C   UNL     1      44.781 -17.553   6.544  1.00  0.00     0.005 A 
HETATM   24  C   UNL     1      43.865 -16.572   6.178  1.00  0.00     0.030 A 
ENDBRANCH  12  15
ENDBRANCH  10  11
ENDBRANCH   6  10
BRANCH   2  25
HETATM   25  C   UNL     1      41.237 -10.578   7.402  1.00  0.00    -0.020 A 
HETATM   26  C   UNL     1      42.456 -11.105   7.870  1.00  0.00     0.022 A 
HETATM   27  C   UNL     1      42.949 -10.810   9.156  1.00  0.00    -0.025 A 
HETATM   28  C   UNL     1      42.201  -9.971  10.009  1.00  0.00    -0.026 A 
HETATM   29  C   UNL     1      44.172 -11.331   9.611  1.00  0.00     0.012 A 
HETATM   30  C   UNL     1      40.978  -9.460   9.559  1.00  0.00     0.013 A 
HETATM   31  C   UNL     1      42.694  -9.671  11.289  1.00  0.00     0.012 A 
HETATM   32  C   UNL     1      40.503  -9.761   8.279  1.00  0.00     0.011 A 
HETATM   33  C   UNL     1      43.912 -10.193  11.724  1.00  0.00     0.001 A 
HETATM   34  C   UNL     1      44.651 -11.024  10.886  1.00  0.00     0.001 A 
ENDBRANCH   2  25
TORSDOF 4
ENDMDL
MODEL 9
REMARK VINA RESULT:      -9.4      1.748      2.887
REMARK  4 active torsions:
REMARK  status: ('A' for Active; 'I' for Inactive)
REMARK    1  A    between atoms: C_2  and  C_3 
REMARK    2  A    between atoms: N_16  and  C_17 
REMARK    3  A    between atoms: C_17  and  C_18 
REMARK       I    between atoms: C_18  and  N_19 
REMARK    4  A    between atoms: N_19  and  C_20 
ROOT
HETATM    1  C   UNL     1      40.609 -16.184   5.776  1.00  0.00     0.054 C 
HETATM    2  C   UNL     1      41.513 -15.799   4.601  1.00  0.00     0.140 A 
HETATM    3  N   UNL     1      42.515 -14.864   5.070  1.00  0.00    -0.321 N 
HETATM    4  C   UNL     1      42.344 -13.597   4.568  1.00  0.00     0.326 A 
HETATM    5  O   UNL     1      43.046 -12.650   4.873  1.00  0.00    -0.247 OA
HETATM    6  N   UNL     1      41.280 -13.604   3.726  1.00  0.00    -0.259 N 
HETATM    7  C   UNL     1      40.745 -14.857   3.642  1.00  0.00     0.261 A 
HETATM    8  O   UNL     1      39.806 -15.158   2.912  1.00  0.00    -0.270 OA
HETATM    9  H   UNL     1      43.234 -15.062   5.752  1.00  0.00     0.165 HD
ENDROOT
BRANCH   6  10
HETATM   10  C   UNL     1      40.803 -12.442   3.006  1.00  0.00     0.240 C 
BRANCH  10  11
HETATM   11  C   UNL     1      41.368 -12.411   1.586  1.00  0.00     0.240 C 
HETATM   12  N   UNL     1      40.405 -12.186   0.611  1.00  0.00    -0.325 N 
HETATM   13  H   UNL     1      39.478 -11.943   0.950  1.00  0.00     0.169 HD
HETATM   14  O   UNL     1      42.581 -12.463   1.397  1.00  0.00    -0.271 OA
BRANCH  12  15
HETATM   15  C   UNL     1      40.593 -12.167  -0.795  1.00  0.00     0.047 A 
HETATM   16  C   UNL     1      40.777 -13.395  -1.507  1.00  0.00     0.019 A 
HETATM   17  C   UNL     1      40.992 -13.358  -2.907  1.00  0.00     0.069 A 
HETATM   18  C   UNL     1      40.741 -14.688  -0.929  1.00  0.00     0.017 A 
HETATM   19  N   UNL     1      41.159 -14.458  -3.663  1.00  0.00    -0.260 NA
HETATM   20  C   UNL     1      41.029 -12.135  -3.556  1.00  0.00     0.032 A 
HETATM   21  C   UNL     1      41.113 -15.662  -3.060  1.00  0.00     0.117 A 
HETATM   22  C   UNL     1      40.908 -15.829  -1.709  1.00  0.00     0.020 A 
HETATM   23  C   UNL     1      40.855 -10.938  -2.869  1.00  0.00     0.005 A 
HETATM   24  C   UNL     1      40.637 -10.956  -1.495  1.00  0.00     0.030 A 
ENDBRANCH  12  15
ENDBRANCH  10  11
ENDBRANCH   6  10
BRANCH   2  25
HETATM   25  C   UNL     1      42.101 -17.004   3.876  1.00  0.00    -0.020 A 
HETATM   26  C   UNL     1      42.980 -17.907   4.505  1.00  0.00     0.022 A 
HETATM   27  C   UNL     1      43.502 -19.028   3.830  1.00  0.00    -0.025 A 
HETATM   28  C   UNL     1      43.146 -19.253   2.483  1.00  0.00    -0.026 A 
HETATM   29  C   UNL     1      44.370 -19.931   4.468  1.00  0.00     0.012 A 
HETATM   30  C   UNL     1      42.289 -18.349   1.845  1.00  0.00     0.013 A 
HETATM   31  C   UNL     1      43.660 -20.373   1.811  1.00  0.00     0.012 A 
HETATM   32  C   UNL     1      41.778 -17.242   2.530  1.00  0.00     0.011 A 
HETATM   33  C   UNL     1      44.518 -21.263   2.460  1.00  0.00     0.001 A 
HETATM   34  C   UNL     1      44.873 -21.040   3.788  1.00  0.00     0.001 A 
ENDBRANCH   2  25
TORSDOF 4
ENDMDL
MODEL 10
REMARK VINA RESULT:      -9.4      1.387      2.244
REMARK  4 active torsions:
REMARK  status: ('A' for Active; 'I' for Inactive)
REMARK    1  A    between atoms: C_2  and  C_3 
REMARK    2  A    between atoms: N_16  and  C_17 
REMARK    3  A    between atoms: C_17  and  C_18 
REMARK       I    between atoms: C_18  and  N_19 
REMARK    4  A    between atoms: N_19  and  C_20 
ROOT
HETATM    1  C   UNL     1      43.840 -15.696   5.538  1.00  0.00     0.054 C 
HETATM    2  C   UNL     1      43.151 -15.896   4.185  1.00  0.00     0.140 A 
HETATM    3  N   UNL     1      43.550 -14.825   3.295  1.00  0.00    -0.321 N 
HETATM    4  C   UNL     1      42.527 -13.956   3.007  1.00  0.00     0.326 A 
HETATM    5  O   UNL     1      42.659 -12.961   2.318  1.00  0.00    -0.247 OA
HETATM    6  N   UNL     1      41.400 -14.392   3.626  1.00  0.00    -0.259 N 
HETATM    7  C   UNL     1      41.648 -15.546   4.311  1.00  0.00     0.261 A 
HETATM    8  O   UNL     1      40.794 -16.184   4.918  1.00  0.00    -0.270 OA
HETATM    9  H   UNL     1      44.488 -14.654   2.961  1.00  0.00     0.165 HD
ENDROOT
BRANCH   6  10
HETATM   10  C   UNL     1      40.116 -13.728   3.545  1.00  0.00     0.240 C 
BRANCH  10  11
HETATM   11  C   UNL     1      39.502 -13.899   2.155  1.00  0.00     0.240 C 
HETATM   12  N   UNL     1      39.564 -12.750   1.378  1.00  0.00    -0.325 N 
HETATM   13  H   UNL     1      40.113 -11.984   1.760  1.00  0.00     0.169 HD
HETATM   14  O   UNL     1      39.118 -15.002   1.775  1.00  0.00    -0.271 OA
BRANCH  12  15
HETATM   15  C   UNL     1      39.028 -12.561   0.077  1.00  0.00     0.047 A 
HETATM   16  C   UNL     1      37.727 -11.988  -0.082  1.00  0.00     0.019 A 
HETATM   17  C   UNL     1      37.193 -11.832  -1.385  1.00  0.00     0.069 A 
HETATM   18  C   UNL     1      36.904 -11.524   0.974  1.00  0.00     0.017 A 
HETATM   19  N   UNL     1      35.988 -11.290  -1.635  1.00  0.00    -0.260 NA
HETATM   20  C   UNL     1      37.938 -12.246  -2.477  1.00  0.00     0.032 A 
HETATM   21  C   UNL     1      35.249 -10.865  -0.593  1.00  0.00     0.117 A 
HETATM   22  C   UNL     1      35.658 -10.958   0.718  1.00  0.00     0.020 A 
HETATM   23  C   UNL     1      39.202 -12.809  -2.328  1.00  0.00     0.005 A 
HETATM   24  C   UNL     1      39.743 -12.963  -1.057  1.00  0.00     0.030 A 
ENDBRANCH  12  15
ENDBRANCH  10  11
ENDBRANCH   6  10
BRANCH   2  25
HETATM   25  C   UNL     1      43.372 -17.285   3.598  1.00  0.00    -0.020 A 
HETATM   26  C   UNL     1      43.912 -18.345   4.351  1.00  0.00     0.022 A 
HETATM   27  C   UNL     1      44.095 -19.629   3.803  1.00  0.00    -0.025 A 
HETATM   28  C   UNL     1      43.737 -19.866   2.459  1.00  0.00    -0.026 A 
HETATM   29  C   UNL     1      44.624 -20.685   4.565  1.00  0.00     0.012 A 
HETATM   30  C   UNL     1      43.218 -18.813   1.697  1.00  0.00     0.013 A 
HETATM   31  C   UNL     1      43.912 -21.148   1.913  1.00  0.00     0.012 A 
HETATM   32  C   UNL     1      43.042 -17.543   2.257  1.00  0.00     0.011 A 
HETATM   33  C   UNL     1      44.435 -22.186   2.684  1.00  0.00     0.001 A 
HETATM   34  C   UNL     1      44.792 -21.954   4.010  1.00  0.00     0.001 A 
ENDBRANCH   2  25
TORSDOF 4
ENDMDL
