MODEL 1
REMARK VINA RESULT:      -8.5      0.000      0.000
REMARK  9 active torsions:
REMARK  status: ('A' for Active; 'I' for Inactive)
REMARK    1  A    between atoms: C_2  and  N_3 
REMARK    2  A    between atoms: N_3  and  C_5 
REMARK    3  A    between atoms: N_3  and  C_33 
REMARK    4  A    between atoms: C_5  and  C_6 
REMARK    5  A    between atoms: C_6  and  N_7 
REMARK       I    between atoms: N_7  and  C_8 
REMARK    6  A    between atoms: C_8  and  C_9 
REMARK    7  A    between atoms: N_15  and  C_16 
REMARK    8  A    between atoms: C_16  and  C_17 
REMARK       I    between atoms: C_17  and  N_18 
REMARK    9  A    between atoms: N_18  and  C_19 
ROOT
HETATM    1  C   UNL     1      40.356 -12.079   6.038  1.00  0.00     0.081 A 
HETATM    2  S   UNL     1      39.075 -12.001   4.899  1.00  0.00    -0.063 SA
HETATM    3  C   UNL     1      39.950 -12.876   3.740  1.00  0.00     0.116 A 
HETATM    4  C   UNL     1      41.203 -13.223   4.192  1.00  0.00     0.075 A 
HETATM    5  C   UNL     1      42.022 -14.050   3.312  1.00  0.00     0.262 A 
HETATM    6  O   UNL     1      43.139 -14.453   3.626  1.00  0.00    -0.267 OA
HETATM    7  N   UNL     1      41.416 -14.363   2.097  1.00  0.00    -0.299 N 
HETATM    8  C   UNL     1      40.138 -13.933   1.791  1.00  0.00     0.214 A 
HETATM    9  N   UNL     1      39.394 -13.188   2.544  1.00  0.00    -0.235 NA
HETATM   10  C   UNL     1      41.480 -12.711   5.514  1.00  0.00    -0.021 A 
HETATM   11  C   UNL     1      42.769 -12.909   6.252  1.00  0.00     0.051 C 
ENDROOT
BRANCH   7  12
HETATM   12  C   UNL     1      42.084 -15.317   1.226  1.00  0.00     0.236 C 
BRANCH  12  13
HETATM   13  C   UNL     1      42.133 -16.684   1.922  1.00  0.00     0.240 C 
HETATM   14  N   UNL     1      43.427 -17.123   2.156  1.00  0.00    -0.326 N 
HETATM   15  H   UNL     1      44.186 -16.521   1.858  1.00  0.00     0.169 HD
HETATM   16  O   UNL     1      41.104 -17.309   2.165  1.00  0.00    -0.271 OA
BRANCH  14  17
HETATM   17  C   UNL     1      43.818 -18.328   2.781  1.00  0.00     0.036 A 
HETATM   18  C   UNL     1      43.995 -19.539   2.109  1.00  0.00     0.053 A 
HETATM   19  C   UNL     1      44.374 -20.693   2.807  1.00  0.00     0.042 A 
HETATM   20 CL   UNL     1      44.556 -22.157   1.905  1.00  0.00    -0.084 Cl
HETATM   21  C   UNL     1      44.591 -20.658   4.191  1.00  0.00    -0.040 A 
HETATM   22  C   UNL     1      44.993 -21.882   4.966  1.00  0.00     0.050 C 
HETATM   23  C   UNL     1      44.410 -19.442   4.862  1.00  0.00     0.011 A 
HETATM   24  C   UNL     1      44.027 -18.292   4.164  1.00  0.00     0.030 A 
ENDBRANCH  14  17
ENDBRANCH  12  13
ENDBRANCH   7  12
BRANCH   1  25
HETATM   25  C   UNL     1      40.168 -11.497   7.358  1.00  0.00     0.259 C 
HETATM   26  N   UNL     1      41.327 -11.299   8.093  1.00  0.00    -0.355 N 
HETATM   27  H   UNL     1      42.183 -11.392   7.552  1.00  0.00     0.162 HD
HETATM   28  O   UNL     1      39.081 -11.192   7.841  1.00  0.00    -0.267 OA
BRANCH  26  29
HETATM   29  C   UNL     1      41.356 -10.397   9.238  1.00  0.00     0.150 C 
BRANCH  29  30
HETATM   30  C   UNL     1      42.691 -10.360  10.007  1.00  0.00     0.254 C 
BRANCH  30  31
HETATM   31  N   UNL     1      42.895 -11.621  10.841  1.00  0.00    -0.070 N 
HETATM   32  H   UNL     1      42.249 -12.300  10.409  1.00  0.00     0.279 HD
BRANCH  31  33
HETATM   33  C   UNL     1      42.436 -11.463  12.275  1.00  0.00     0.230 C 
HETATM   34  C   UNL     1      43.137 -10.293  12.944  1.00  0.00     0.034 C 
ENDBRANCH  31  33
BRANCH  31  35
HETATM   35  C   UNL     1      44.263 -12.256  10.727  1.00  0.00     0.230 C 
HETATM   36  C   UNL     1      45.280 -11.339  10.072  1.00  0.00     0.034 C 
ENDBRANCH  31  35
ENDBRANCH  30  31
ENDBRANCH  29  30
ENDBRANCH  26  29
ENDBRANCH   1  25
TORSDOF 9
ENDMDL
MODEL 2
REMARK VINA RESULT:      -8.3      3.972      8.086
REMARK  9 active torsions:
REMARK  status: ('A' for Active; 'I' for Inactive)
REMARK    1  A    between atoms: C_2  and  N_3 
REMARK    2  A    between atoms: N_3  and  C_5 
REMARK    3  A    between atoms: N_3  and  C_33 
REMARK    4  A    between atoms: C_5  and  C_6 
REMARK    5  A    between atoms: C_6  and  N_7 
REMARK       I    between atoms: N_7  and  C_8 
REMARK    6  A    between atoms: C_8  and  C_9 
REMARK    7  A    between atoms: N_15  and  C_16 
REMARK    8  A    between atoms: C_16  and  C_17 
REMARK       I    between atoms: C_17  and  N_18 
REMARK    9  A    between atoms: N_18  and  C_19 
ROOT
HETATM    1  C   UNL     1      40.493 -13.425   0.958  1.00  0.00     0.081 A 
HETATM    2  S   UNL     1      42.059 -12.731   1.069  1.00  0.00    -0.063 SA
HETATM    3  C   UNL     1      42.332 -13.402   2.602  1.00  0.00     0.116 A 
HETATM    4  C   UNL     1      41.256 -14.139   3.043  1.00  0.00     0.075 A 
HETATM    5  C   UNL     1      41.403 -14.835   4.317  1.00  0.00     0.262 A 
HETATM    6  O   UNL     1      40.526 -15.552   4.789  1.00  0.00    -0.267 OA
HETATM    7  N   UNL     1      42.635 -14.633   4.936  1.00  0.00    -0.299 N 
HETATM    8  C   UNL     1      43.621 -13.857   4.358  1.00  0.00     0.214 A 
HETATM    9  N   UNL     1      43.515 -13.217   3.237  1.00  0.00    -0.235 NA
HETATM   10  C   UNL     1      40.146 -14.112   2.118  1.00  0.00    -0.021 A 
HETATM   11  C   UNL     1      38.834 -14.802   2.341  1.00  0.00     0.051 C 
ENDROOT
BRANCH   7  12
HETATM   12  C   UNL     1      42.937 -15.416   6.125  1.00  0.00     0.236 C 
BRANCH  12  13
HETATM   13  C   UNL     1      43.677 -16.694   5.709  1.00  0.00     0.240 C 
HETATM   14  N   UNL     1      43.040 -17.376   4.683  1.00  0.00    -0.326 N 
HETATM   15  H   UNL     1      42.182 -16.977   4.320  1.00  0.00     0.169 HD
HETATM   16  O   UNL     1      44.688 -17.063   6.301  1.00  0.00    -0.271 OA
BRANCH  14  17
HETATM   17  C   UNL     1      43.459 -18.577   4.069  1.00  0.00     0.036 A 
HETATM   18  C   UNL     1      44.080 -19.629   4.744  1.00  0.00     0.053 A 
HETATM   19  C   UNL     1      44.476 -20.783   4.055  1.00  0.00     0.042 A 
HETATM   20 CL   UNL     1      45.253 -22.035   4.961  1.00  0.00    -0.084 Cl
HETATM   21  C   UNL     1      44.253 -20.911   2.677  1.00  0.00    -0.040 A 
HETATM   22  C   UNL     1      44.673 -22.135   1.913  1.00  0.00     0.050 C 
HETATM   23  C   UNL     1      43.633 -19.852   2.003  1.00  0.00     0.011 A 
HETATM   24  C   UNL     1      43.243 -18.698   2.691  1.00  0.00     0.030 A 
ENDBRANCH  14  17
ENDBRANCH  12  13
ENDBRANCH   7  12
BRANCH   1  25
HETATM   25  C   UNL     1      39.715 -13.228  -0.254  1.00  0.00     0.259 C 
HETATM   26  N   UNL     1      40.131 -12.184  -1.068  1.00  0.00    -0.355 N 
HETATM   27  H   UNL     1      41.047 -11.812  -0.829  1.00  0.00     0.162 HD
HETATM   28  O   UNL     1      38.741 -13.901  -0.580  1.00  0.00    -0.267 OA
BRANCH  26  29
HETATM   29  C   UNL     1      39.720 -12.098  -2.463  1.00  0.00     0.150 C 
BRANCH  29  30
HETATM   30  C   UNL     1      40.346 -13.152  -3.396  1.00  0.00     0.254 C 
BRANCH  30  31
HETATM   31  N   UNL     1      39.312 -14.168  -3.871  1.00  0.00    -0.070 N 
HETATM   32  H   UNL     1      39.350 -14.085  -4.898  1.00  0.00     0.279 HD
BRANCH  31  33
HETATM   33  C   UNL     1      37.897 -13.800  -3.476  1.00  0.00     0.230 C 
HETATM   34  C   UNL     1      36.884 -14.501  -4.365  1.00  0.00     0.034 C 
ENDBRANCH  31  33
BRANCH  31  35
HETATM   35  C   UNL     1      39.647 -15.614  -3.582  1.00  0.00     0.230 C 
HETATM   36  C   UNL     1      40.890 -15.765  -2.724  1.00  0.00     0.034 C 
ENDBRANCH  31  35
ENDBRANCH  30  31
ENDBRANCH  29  30
ENDBRANCH  26  29
ENDBRANCH   1  25
TORSDOF 9
ENDMDL
MODEL 3
REMARK VINA RESULT:      -8.3      1.248      1.367
REMARK  9 active torsions:
REMARK  status: ('A' for Active; 'I' for Inactive)
REMARK    1  A    between atoms: C_2  and  N_3 
REMARK    2  A    between atoms: N_3  and  C_5 
REMARK    3  A    between atoms: N_3  and  C_33 
REMARK    4  A    between atoms: C_5  and  C_6 
REMARK    5  A    between atoms: C_6  and  N_7 
REMARK       I    between atoms: N_7  and  C_8 
REMARK    6  A    between atoms: C_8  and  C_9 
REMARK    7  A    between atoms: N_15  and  C_16 
REMARK    8  A    between atoms: C_16  and  C_17 
REMARK       I    between atoms: C_17  and  N_18 
REMARK    9  A    between atoms: N_18  and  C_19 
ROOT
HETATM    1  C   UNL     1      40.629 -12.025   5.570  1.00  0.00     0.081 A 
HETATM    2  S   UNL     1      41.298 -11.104   4.286  1.00  0.00    -0.063 SA
HETATM    3  C   UNL     1      41.543 -12.480   3.324  1.00  0.00     0.116 A 
HETATM    4  C   UNL     1      41.136 -13.632   3.958  1.00  0.00     0.075 A 
HETATM    5  C   UNL     1      41.221 -14.874   3.198  1.00  0.00     0.262 A 
HETATM    6  O   UNL     1      40.850 -15.956   3.646  1.00  0.00    -0.267 OA
HETATM    7  N   UNL     1      41.738 -14.722   1.913  1.00  0.00    -0.299 N 
HETATM    8  C   UNL     1      42.104 -13.484   1.420  1.00  0.00     0.214 A 
HETATM    9  N   UNL     1      42.053 -12.368   2.074  1.00  0.00    -0.235 NA
HETATM   10  C   UNL     1      40.654 -13.390   5.299  1.00  0.00    -0.021 A 
HETATM   11  C   UNL     1      40.168 -14.455   6.235  1.00  0.00     0.051 C 
ENDROOT
BRANCH   7  12
HETATM   12  C   UNL     1      41.707 -15.872   1.023  1.00  0.00     0.236 C 
BRANCH  12  13
HETATM   13  C   UNL     1      42.812 -16.855   1.435  1.00  0.00     0.240 C 
HETATM   14  N   UNL     1      42.351 -17.868   2.263  1.00  0.00    -0.326 N 
HETATM   15  H   UNL     1      41.367 -17.863   2.504  1.00  0.00     0.169 HD
HETATM   16  O   UNL     1      43.978 -16.677   1.092  1.00  0.00    -0.271 OA
BRANCH  14  17
HETATM   17  C   UNL     1      43.105 -18.930   2.810  1.00  0.00     0.036 A 
HETATM   18  C   UNL     1      43.494 -20.065   2.097  1.00  0.00     0.053 A 
HETATM   19  C   UNL     1      44.232 -21.080   2.720  1.00  0.00     0.042 A 
HETATM   20 CL   UNL     1      44.661 -22.462   1.772  1.00  0.00    -0.084 Cl
HETATM   21  C   UNL     1      44.603 -20.977   4.068  1.00  0.00    -0.040 A 
HETATM   22  C   UNL     1      45.390 -22.052   4.762  1.00  0.00     0.050 C 
HETATM   23  C   UNL     1      44.209 -19.837   4.780  1.00  0.00     0.011 A 
HETATM   24  C   UNL     1      43.467 -18.827   4.158  1.00  0.00     0.030 A 
ENDBRANCH  14  17
ENDBRANCH  12  13
ENDBRANCH   7  12
BRANCH   1  25
HETATM   25  C   UNL     1      40.144 -11.339   6.756  1.00  0.00     0.259 C 
HETATM   26  N   UNL     1      40.948 -11.451   7.881  1.00  0.00    -0.355 N 
HETATM   27  H   UNL     1      41.875 -11.824   7.693  1.00  0.00     0.162 HD
HETATM   28  O   UNL     1      39.098 -10.698   6.818  1.00  0.00    -0.267 OA
BRANCH  26  29
HETATM   29  C   UNL     1      40.814 -10.534   9.006  1.00  0.00     0.150 C 
BRANCH  29  30
HETATM   30  C   UNL     1      42.112 -10.274   9.795  1.00  0.00     0.254 C 
BRANCH  30  31
HETATM   31  N   UNL     1      42.441 -11.432  10.733  1.00  0.00    -0.070 N 
HETATM   32  H   UNL     1      41.887 -12.213  10.351  1.00  0.00     0.279 HD
BRANCH  31  33
HETATM   33  C   UNL     1      41.935 -11.212  12.143  1.00  0.00     0.230 C 
HETATM   34  C   UNL     1      42.293  -9.822  12.640  1.00  0.00     0.034 C 
ENDBRANCH  31  33
BRANCH  31  35
HETATM   35  C   UNL     1      43.876 -11.910  10.689  1.00  0.00     0.230 C 
HETATM   36  C   UNL     1      44.812 -10.890  10.067  1.00  0.00     0.034 C 
ENDBRANCH  31  35
ENDBRANCH  30  31
ENDBRANCH  29  30
ENDBRANCH  26  29
ENDBRANCH   1  25
TORSDOF 9
ENDMDL
MODEL 4
REMARK VINA RESULT:      -8.3      1.673      2.381
REMARK  9 active torsions:
REMARK  status: ('A' for Active; 'I' for Inactive)
REMARK    1  A    between atoms: C_2  and  N_3 
REMARK    2  A    between atoms: N_3  and  C_5 
REMARK    3  A    between atoms: N_3  and  C_33 
REMARK    4  A    between atoms: C_5  and  C_6 
REMARK    5  A    between atoms: C_6  and  N_7 
REMARK       I    between atoms: N_7  and  C_8 
REMARK    6  A    between atoms: C_8  and  C_9 
REMARK    7  A    between atoms: N_15  and  C_16 
REMARK    8  A    between atoms: C_16  and  C_17 
REMARK       I    between atoms: C_17  and  N_18 
REMARK    9  A    between atoms: N_18  and  C_19 
ROOT
HETATM    1  C   UNL     1      40.705 -12.009   6.681  1.00  0.00     0.081 A 
HETATM    2  S   UNL     1      42.419 -11.944   6.618  1.00  0.00    -0.063 SA
HETATM    3  C   UNL     1      42.488 -13.019   5.308  1.00  0.00     0.116 A 
HETATM    4  C   UNL     1      41.237 -13.438   4.916  1.00  0.00     0.075 A 
HETATM    5  C   UNL     1      41.161 -14.304   3.745  1.00  0.00     0.262 A 
HETATM    6  O   UNL     1      40.098 -14.706   3.281  1.00  0.00    -0.267 OA
HETATM    7  N   UNL     1      42.399 -14.613   3.185  1.00  0.00    -0.299 N 
HETATM    8  C   UNL     1      43.577 -14.107   3.701  1.00  0.00     0.214 A 
HETATM    9  N   UNL     1      43.676 -13.349   4.746  1.00  0.00    -0.235 NA
HETATM   10  C   UNL     1      40.184 -12.903   5.750  1.00  0.00    -0.021 A 
HETATM   11  C   UNL     1      38.725 -13.203   5.578  1.00  0.00     0.051 C 
ENDROOT
BRANCH   7  12
HETATM   12  C   UNL     1      42.416 -15.331   1.920  1.00  0.00     0.236 C 
BRANCH  12  13
HETATM   13  C   UNL     1      43.312 -16.570   2.058  1.00  0.00     0.240 C 
HETATM   14  N   UNL     1      42.896 -17.426   3.067  1.00  0.00    -0.326 N 
HETATM   15  H   UNL     1      42.070 -17.163   3.592  1.00  0.00     0.169 HD
HETATM   16  O   UNL     1      44.318 -16.705   1.366  1.00  0.00    -0.271 OA
BRANCH  14  17
HETATM   17  C   UNL     1      43.493 -18.649   3.447  1.00  0.00     0.036 A 
HETATM   18  C   UNL     1      43.720 -19.715   2.575  1.00  0.00     0.053 A 
HETATM   19  C   UNL     1      44.309 -20.900   3.037  1.00  0.00     0.042 A 
HETATM   20 CL   UNL     1      44.542 -22.180   1.897  1.00  0.00    -0.084 Cl
HETATM   21  C   UNL     1      44.688 -21.040   4.379  1.00  0.00    -0.040 A 
HETATM   22  C   UNL     1      45.315 -22.302   4.901  1.00  0.00     0.050 C 
HETATM   23  C   UNL     1      44.455 -19.969   5.250  1.00  0.00     0.011 A 
HETATM   24  C   UNL     1      43.863 -18.788   4.789  1.00  0.00     0.030 A 
ENDBRANCH  14  17
ENDBRANCH  12  13
ENDBRANCH   7  12
BRANCH   1  25
HETATM   25  C   UNL     1      40.000 -11.188   7.652  1.00  0.00     0.259 C 
HETATM   26  N   UNL     1      40.398 -11.350   8.971  1.00  0.00    -0.355 N 
HETATM   27  H   UNL     1      41.266 -11.867   9.082  1.00  0.00     0.162 HD
HETATM   28  O   UNL     1      39.100 -10.397   7.381  1.00  0.00    -0.267 OA
BRANCH  26  29
HETATM   29  C   UNL     1      40.078 -10.358   9.989  1.00  0.00     0.150 C 
BRANCH  29  30
HETATM   30  C   UNL     1      40.230 -10.842  11.444  1.00  0.00     0.254 C 
BRANCH  30  31
HETATM   31  N   UNL     1      41.495 -10.287  12.093  1.00  0.00    -0.070 N 
HETATM   32  H   UNL     1      41.768  -9.518  11.462  1.00  0.00     0.279 HD
BRANCH  31  33
HETATM   33  C   UNL     1      42.647 -11.269  12.078  1.00  0.00     0.230 C 
HETATM   34  C   UNL     1      43.751 -10.799  11.146  1.00  0.00     0.034 C 
ENDBRANCH  31  33
BRANCH  31  35
HETATM   35  C   UNL     1      41.294  -9.633  13.442  1.00  0.00     0.230 C 
HETATM   36  C   UNL     1      42.265 -10.148  14.489  1.00  0.00     0.034 C 
ENDBRANCH  31  35
ENDBRANCH  30  31
ENDBRANCH  29  30
ENDBRANCH  26  29
ENDBRANCH   1  25
TORSDOF 9
ENDMDL
MODEL 5
REMARK VINA RESULT:      -8.2      4.314      6.760
REMARK  9 active torsions:
REMARK  status: ('A' for Active; 'I' for Inactive)
REMARK    1  A    between atoms: C_2  and  N_3 
REMARK    2  A    between atoms: N_3  and  C_5 
REMARK    3  A    between atoms: N_3  and  C_33 
REMARK    4  A    between atoms: C_5  and  C_6 
REMARK    5  A    between atoms: C_6  and  N_7 
REMARK       I    between atoms: N_7  and  C_8 
REMARK    6  A    between atoms: C_8  and  C_9 
REMARK    7  A    between atoms: N_15  and  C_16 
REMARK    8  A    between atoms: C_16  and  C_17 
REMARK       I    between atoms: C_17  and  N_18 
REMARK    9  A    between atoms: N_18  and  C_19 
ROOT
HETATM    1  C   UNL     1      37.557 -12.107   1.292  1.00  0.00     0.081 A 
HETATM    2  S   UNL     1      37.662 -13.689   0.636  1.00  0.00    -0.063 SA
HETATM    3  C   UNL     1      38.851 -14.156   1.751  1.00  0.00     0.116 A 
HETATM    4  C   UNL     1      39.182 -13.134   2.611  1.00  0.00     0.075 A 
HETATM    5  C   UNL     1      40.139 -13.439   3.670  1.00  0.00     0.262 A 
HETATM    6  O   UNL     1      40.478 -12.618   4.518  1.00  0.00    -0.267 OA
HETATM    7  N   UNL     1      40.613 -14.749   3.649  1.00  0.00    -0.299 N 
HETATM    8  C   UNL     1      40.177 -15.664   2.709  1.00  0.00     0.214 A 
HETATM    9  N   UNL     1      39.342 -15.419   1.751  1.00  0.00    -0.235 NA
HETATM   10  C   UNL     1      38.477 -11.907   2.317  1.00  0.00    -0.021 A 
HETATM   11  C   UNL     1      38.651 -10.622   3.070  1.00  0.00     0.051 C 
ENDROOT
BRANCH   7  12
HETATM   12  C   UNL     1      41.440 -15.194   4.760  1.00  0.00     0.236 C 
BRANCH  12  13
HETATM   13  C   UNL     1      41.699 -16.700   4.620  1.00  0.00     0.240 C 
HETATM   14  N   UNL     1      42.724 -16.991   3.733  1.00  0.00    -0.326 N 
HETATM   15  H   UNL     1      43.187 -16.211   3.282  1.00  0.00     0.169 HD
HETATM   16  O   UNL     1      40.997 -17.521   5.206  1.00  0.00    -0.271 OA
BRANCH  14  17
HETATM   17  C   UNL     1      43.213 -18.270   3.385  1.00  0.00     0.036 A 
HETATM   18  C   UNL     1      43.936 -19.095   4.249  1.00  0.00     0.053 A 
HETATM   19  C   UNL     1      44.396 -20.347   3.821  1.00  0.00     0.042 A 
HETATM   20 CL   UNL     1      45.299 -21.302   4.946  1.00  0.00    -0.084 Cl
HETATM   21  C   UNL     1      44.135 -20.804   2.521  1.00  0.00    -0.040 A 
HETATM   22  C   UNL     1      44.621 -22.140   2.034  1.00  0.00     0.050 C 
HETATM   23  C   UNL     1      43.411 -19.973   1.657  1.00  0.00     0.011 A 
HETATM   24  C   UNL     1      42.958 -18.720   2.085  1.00  0.00     0.030 A 
ENDBRANCH  14  17
ENDBRANCH  12  13
ENDBRANCH   7  12
BRANCH   1  25
HETATM   25  C   UNL     1      36.589 -11.173   0.739  1.00  0.00     0.259 C 
HETATM   26  N   UNL     1      35.267 -11.406   1.090  1.00  0.00    -0.355 N 
HETATM   27  H   UNL     1      35.151 -12.072   1.849  1.00  0.00     0.162 HD
HETATM   28  O   UNL     1      36.866 -10.231   0.000  1.00  0.00    -0.267 OA
BRANCH  26  29
HETATM   29  C   UNL     1      34.249 -10.372   0.947  1.00  0.00     0.150 C 
BRANCH  29  30
HETATM   30  C   UNL     1      33.064 -10.483   1.925  1.00  0.00     0.254 C 
BRANCH  30  31
HETATM   31  N   UNL     1      33.416  -9.921   3.300  1.00  0.00    -0.070 N 
HETATM   32  H   UNL     1      34.127 -10.579   3.652  1.00  0.00     0.279 HD
BRANCH  31  33
HETATM   33  C   UNL     1      32.263  -9.988   4.279  1.00  0.00     0.230 C 
HETATM   34  C   UNL     1      32.716  -9.614   5.679  1.00  0.00     0.034 C 
ENDBRANCH  31  33
BRANCH  31  35
HETATM   35  C   UNL     1      34.102  -8.572   3.289  1.00  0.00     0.230 C 
HETATM   36  C   UNL     1      35.549  -8.650   3.742  1.00  0.00     0.034 C 
ENDBRANCH  31  35
ENDBRANCH  30  31
ENDBRANCH  29  30
ENDBRANCH  26  29
ENDBRANCH   1  25
TORSDOF 9
ENDMDL
MODEL 6
REMARK VINA RESULT:      -8.0      3.400      5.500
REMARK  9 active torsions:
REMARK  status: ('A' for Active; 'I' for Inactive)
REMARK    1  A    between atoms: C_2  and  N_3 
REMARK    2  A    between atoms: N_3  and  C_5 
REMARK    3  A    between atoms: N_3  and  C_33 
REMARK    4  A    between atoms: C_5  and  C_6 
REMARK    5  A    between atoms: C_6  and  N_7 
REMARK       I    between atoms: N_7  and  C_8 
REMARK    6  A    between atoms: C_8  and  C_9 
REMARK    7  A    between atoms: N_15  and  C_16 
REMARK    8  A    between atoms: C_16  and  C_17 
REMARK       I    between atoms: C_17  and  N_18 
REMARK    9  A    between atoms: N_18  and  C_19 
ROOT
HETATM    1  C   UNL     1      41.403 -12.381   6.035  1.00  0.00     0.081 A 
HETATM    2  S   UNL     1      42.746 -13.447   6.098  1.00  0.00    -0.063 SA
HETATM    3  C   UNL     1      42.097 -14.459   4.902  1.00  0.00     0.116 A 
HETATM    4  C   UNL     1      40.873 -14.013   4.456  1.00  0.00     0.075 A 
HETATM    5  C   UNL     1      40.250 -14.757   3.367  1.00  0.00     0.262 A 
HETATM    6  O   UNL     1      39.179 -14.429   2.863  1.00  0.00    -0.267 OA
HETATM    7  N   UNL     1      40.988 -15.857   2.934  1.00  0.00    -0.299 N 
HETATM    8  C   UNL     1      42.213 -16.175   3.490  1.00  0.00     0.214 A 
HETATM    9  N   UNL     1      42.784 -15.543   4.465  1.00  0.00    -0.235 NA
HETATM   10  C   UNL     1      40.424 -12.830   5.154  1.00  0.00    -0.021 A 
HETATM   11  C   UNL     1      39.120 -12.134   4.900  1.00  0.00     0.051 C 
ENDROOT
BRANCH   7  12
HETATM   12  C   UNL     1      40.531 -16.561   1.746  1.00  0.00     0.236 C 
BRANCH  12  13
HETATM   13  C   UNL     1      41.234 -15.975   0.514  1.00  0.00     0.240 C 
HETATM   14  N   UNL     1      40.769 -14.713   0.177  1.00  0.00    -0.326 N 
HETATM   15  H   UNL     1      40.040 -14.313   0.757  1.00  0.00     0.169 HD
HETATM   16  O   UNL     1      42.068 -16.627  -0.110  1.00  0.00    -0.271 OA
BRANCH  14  17
HETATM   17  C   UNL     1      41.208 -13.900  -0.892  1.00  0.00     0.036 A 
HETATM   18  C   UNL     1      42.018 -12.774  -0.740  1.00  0.00     0.053 A 
HETATM   19  C   UNL     1      42.400 -12.014  -1.854  1.00  0.00     0.042 A 
HETATM   20 CL   UNL     1      43.392 -10.624  -1.579  1.00  0.00    -0.084 Cl
HETATM   21  C   UNL     1      41.983 -12.369  -3.144  1.00  0.00    -0.040 A 
HETATM   22  C   UNL     1      42.372 -11.570  -4.355  1.00  0.00     0.050 C 
HETATM   23  C   UNL     1      41.167 -13.498  -3.292  1.00  0.00     0.011 A 
HETATM   24  C   UNL     1      40.783 -14.253  -2.178  1.00  0.00     0.030 A 
ENDBRANCH  14  17
ENDBRANCH  12  13
ENDBRANCH   7  12
BRANCH   1  25
HETATM   25  C   UNL     1      41.404 -11.191   6.870  1.00  0.00     0.259 C 
HETATM   26  N   UNL     1      41.059 -11.394   8.199  1.00  0.00    -0.355 N 
HETATM   27  H   UNL     1      41.046 -12.371   8.479  1.00  0.00     0.162 HD
HETATM   28  O   UNL     1      41.672 -10.058   6.478  1.00  0.00    -0.267 OA
BRANCH  26  29
HETATM   29  C   UNL     1      41.377 -10.409   9.226  1.00  0.00     0.150 C 
BRANCH  29  30
HETATM   30  C   UNL     1      42.773 -10.558   9.863  1.00  0.00     0.254 C 
BRANCH  30  31
HETATM   31  N   UNL     1      42.790 -11.648  10.930  1.00  0.00    -0.070 N 
HETATM   32  H   UNL     1      42.296 -12.432  10.478  1.00  0.00     0.279 HD
BRANCH  31  33
HETATM   33  C   UNL     1      41.974 -11.290  12.154  1.00  0.00     0.230 C 
HETATM   34  C   UNL     1      42.843 -10.643  13.218  1.00  0.00     0.034 C 
ENDBRANCH  31  33
BRANCH  31  35
HETATM   35  C   UNL     1      44.159 -12.193  11.273  1.00  0.00     0.230 C 
HETATM   36  C   UNL     1      45.282 -11.397  10.635  1.00  0.00     0.034 C 
ENDBRANCH  31  35
ENDBRANCH  30  31
ENDBRANCH  29  30
ENDBRANCH  26  29
ENDBRANCH   1  25
TORSDOF 9
ENDMDL
MODEL 7
REMARK VINA RESULT:      -7.9      3.187      9.560
REMARK  9 active torsions:
REMARK  status: ('A' for Active; 'I' for Inactive)
REMARK    1  A    between atoms: C_2  and  N_3 
REMARK    2  A    between atoms: N_3  and  C_5 
REMARK    3  A    between atoms: N_3  and  C_33 
REMARK    4  A    between atoms: C_5  and  C_6 
REMARK    5  A    between atoms: C_6  and  N_7 
REMARK       I    between atoms: N_7  and  C_8 
REMARK    6  A    between atoms: C_8  and  C_9 
REMARK    7  A    between atoms: N_15  and  C_16 
REMARK    8  A    between atoms: C_16  and  C_17 
REMARK       I    between atoms: C_17  and  N_18 
REMARK    9  A    between atoms: N_18  and  C_19 
ROOT
HETATM    1  C   UNL     1      41.014 -14.706   3.846  1.00  0.00     0.081 A 
HETATM    2  S   UNL     1      41.487 -13.536   2.684  1.00  0.00    -0.063 SA
HETATM    3  C   UNL     1      40.875 -12.255   3.612  1.00  0.00     0.116 A 
HETATM    4  C   UNL     1      40.308 -12.693   4.787  1.00  0.00     0.075 A 
HETATM    5  C   UNL     1      39.818 -11.675   5.710  1.00  0.00     0.262 A 
HETATM    6  O   UNL     1      39.331 -11.946   6.804  1.00  0.00    -0.267 OA
HETATM    7  N   UNL     1      39.975 -10.368   5.251  1.00  0.00    -0.299 N 
HETATM    8  C   UNL     1      40.570 -10.092   4.035  1.00  0.00     0.214 A 
HETATM    9  N   UNL     1      41.001 -10.973   3.190  1.00  0.00    -0.235 NA
HETATM   10  C   UNL     1      40.327 -14.133   4.912  1.00  0.00    -0.021 A 
HETATM   11  C   UNL     1      39.761 -14.895   6.072  1.00  0.00     0.051 C 
ENDROOT
BRANCH   7  12
HETATM   12  C   UNL     1      39.670  -9.281   6.169  1.00  0.00     0.236 C 
BRANCH  12  13
HETATM   13  C   UNL     1      40.800  -9.164   7.201  1.00  0.00     0.240 C 
HETATM   14  N   UNL     1      40.418  -9.581   8.467  1.00  0.00    -0.326 N 
HETATM   15  H   UNL     1      39.468  -9.913   8.583  1.00  0.00     0.169 HD
HETATM   16  O   UNL     1      41.889  -8.683   6.897  1.00  0.00    -0.271 OA
BRANCH  14  17
HETATM   17  C   UNL     1      41.217  -9.607   9.632  1.00  0.00     0.036 A 
HETATM   18  C   UNL     1      42.170 -10.589   9.909  1.00  0.00     0.053 A 
HETATM   19  C   UNL     1      42.913 -10.547  11.096  1.00  0.00     0.042 A 
HETATM   20 CL   UNL     1      44.063 -11.810  11.371  1.00  0.00    -0.084 Cl
HETATM   21  C   UNL     1      42.723  -9.519  12.028  1.00  0.00    -0.040 A 
HETATM   22  C   UNL     1      43.502  -9.453  13.312  1.00  0.00     0.050 C 
HETATM   23  C   UNL     1      41.764  -8.537  11.749  1.00  0.00     0.011 A 
HETATM   24  C   UNL     1      41.019  -8.583  10.565  1.00  0.00     0.030 A 
ENDBRANCH  14  17
ENDBRANCH  12  13
ENDBRANCH   7  12
BRANCH   1  25
HETATM   25  C   UNL     1      41.339 -16.105   3.616  1.00  0.00     0.259 C 
HETATM   26  N   UNL     1      42.361 -16.617   4.402  1.00  0.00    -0.355 N 
HETATM   27  H   UNL     1      42.624 -16.020   5.182  1.00  0.00     0.162 HD
HETATM   28  O   UNL     1      40.787 -16.827   2.790  1.00  0.00    -0.267 OA
BRANCH  26  29
HETATM   29  C   UNL     1      42.544 -18.053   4.570  1.00  0.00     0.150 C 
BRANCH  29  30
HETATM   30  C   UNL     1      43.851 -18.619   3.980  1.00  0.00     0.254 C 
BRANCH  30  31
HETATM   31  N   UNL     1      43.587 -19.462   2.736  1.00  0.00    -0.070 N 
HETATM   32  H   UNL     1      42.668 -19.888   2.927  1.00  0.00     0.279 HD
BRANCH  31  33
HETATM   33  C   UNL     1      44.558 -20.615   2.587  1.00  0.00     0.230 C 
HETATM   34  C   UNL     1      43.936 -21.750   1.792  1.00  0.00     0.034 C 
ENDBRANCH  31  33
BRANCH  31  35
HETATM   35  C   UNL     1      43.400 -18.681   1.455  1.00  0.00     0.230 C 
HETATM   36  C   UNL     1      44.244 -17.420   1.410  1.00  0.00     0.034 C 
ENDBRANCH  31  35
ENDBRANCH  30  31
ENDBRANCH  29  30
ENDBRANCH  26  29
ENDBRANCH   1  25
TORSDOF 9
ENDMDL
MODEL 8
REMARK VINA RESULT:      -7.9      5.087      9.915
REMARK  9 active torsions:
REMARK  status: ('A' for Active; 'I' for Inactive)
REMARK    1  A    between atoms: C_2  and  N_3 
REMARK    2  A    between atoms: N_3  and  C_5 
REMARK    3  A    between atoms: N_3  and  C_33 
REMARK    4  A    between atoms: C_5  and  C_6 
REMARK    5  A    between atoms: C_6  and  N_7 
REMARK       I    between atoms: N_7  and  C_8 
REMARK    6  A    between atoms: C_8  and  C_9 
REMARK    7  A    between atoms: N_15  and  C_16 
REMARK    8  A    between atoms: C_16  and  C_17 
REMARK       I    between atoms: C_17  and  N_18 
REMARK    9  A    between atoms: N_18  and  C_19 
ROOT
HETATM    1  C   UNL     1      38.884 -14.046  -1.736  1.00  0.00     0.081 A 
HETATM    2  S   UNL     1      37.978 -13.434  -0.413  1.00  0.00    -0.063 SA
HETATM    3  C   UNL     1      39.125 -13.967   0.717  1.00  0.00     0.116 A 
HETATM    4  C   UNL     1      40.183 -14.611   0.116  1.00  0.00     0.075 A 
HETATM    5  C   UNL     1      41.275 -15.045   0.980  1.00  0.00     0.262 A 
HETATM    6  O   UNL     1      42.287 -15.593   0.550  1.00  0.00    -0.267 OA
HETATM    7  N   UNL     1      41.081 -14.761   2.330  1.00  0.00    -0.299 N 
HETATM    8  C   UNL     1      39.952 -14.102   2.778  1.00  0.00     0.214 A 
HETATM    9  N   UNL     1      38.961 -13.717   2.039  1.00  0.00    -0.235 NA
HETATM   10  C   UNL     1      40.027 -14.720  -1.317  1.00  0.00    -0.021 A 
HETATM   11  C   UNL     1      41.007 -15.390  -2.232  1.00  0.00     0.051 C 
ENDROOT
BRANCH   7  12
HETATM   12  C   UNL     1      42.185 -15.005   3.245  1.00  0.00     0.236 C 
BRANCH  12  13
HETATM   13  C   UNL     1      42.234 -16.500   3.585  1.00  0.00     0.240 C 
HETATM   14  N   UNL     1      43.494 -17.052   3.410  1.00  0.00    -0.326 N 
HETATM   15  H   UNL     1      44.234 -16.436   3.090  1.00  0.00     0.169 HD
HETATM   16  O   UNL     1      41.219 -17.110   3.910  1.00  0.00    -0.271 OA
BRANCH  14  17
HETATM   17  C   UNL     1      43.878 -18.392   3.640  1.00  0.00     0.036 A 
HETATM   18  C   UNL     1      43.910 -19.379   2.654  1.00  0.00     0.053 A 
HETATM   19  C   UNL     1      44.293 -20.689   2.969  1.00  0.00     0.042 A 
HETATM   20 CL   UNL     1      44.291 -21.858   1.694  1.00  0.00    -0.084 Cl
HETATM   21  C   UNL     1      44.657 -21.038   4.277  1.00  0.00    -0.040 A 
HETATM   22  C   UNL     1      45.066 -22.437   4.644  1.00  0.00     0.050 C 
HETATM   23  C   UNL     1      44.621 -20.045   5.264  1.00  0.00     0.011 A 
HETATM   24  C   UNL     1      44.234 -18.738   4.949  1.00  0.00     0.030 A 
ENDBRANCH  14  17
ENDBRANCH  12  13
ENDBRANCH   7  12
BRANCH   1  25
HETATM   25  C   UNL     1      38.394 -13.834  -3.089  1.00  0.00     0.259 C 
HETATM   26  N   UNL     1      37.387 -14.694  -3.501  1.00  0.00    -0.355 N 
HETATM   27  H   UNL     1      36.969 -15.234  -2.748  1.00  0.00     0.162 HD
HETATM   28  O   UNL     1      38.813 -12.974  -3.860  1.00  0.00    -0.267 OA
BRANCH  26  29
HETATM   29  C   UNL     1      36.541 -14.381  -4.646  1.00  0.00     0.150 C 
BRANCH  29  30
HETATM   30  C   UNL     1      35.359 -13.438  -4.346  1.00  0.00     0.254 C 
BRANCH  30  31
HETATM   31  N   UNL     1      34.488 -13.218  -5.580  1.00  0.00    -0.070 N 
HETATM   32  H   UNL     1      33.947 -14.093  -5.648  1.00  0.00     0.279 HD
BRANCH  31  33
HETATM   33  C   UNL     1      35.291 -13.123  -6.860  1.00  0.00     0.230 C 
HETATM   34  C   UNL     1      34.381 -12.916  -8.059  1.00  0.00     0.034 C 
ENDBRANCH  31  33
BRANCH  31  35
HETATM   35  C   UNL     1      33.451 -12.124  -5.451  1.00  0.00     0.230 C 
HETATM   36  C   UNL     1      32.731 -12.156  -4.116  1.00  0.00     0.034 C 
ENDBRANCH  31  35
ENDBRANCH  30  31
ENDBRANCH  29  30
ENDBRANCH  26  29
ENDBRANCH   1  25
TORSDOF 9
ENDMDL
MODEL 9
REMARK VINA RESULT:      -7.7      1.386      1.881
REMARK  9 active torsions:
REMARK  status: ('A' for Active; 'I' for Inactive)
REMARK    1  A    between atoms: C_2  and  N_3 
REMARK    2  A    between atoms: N_3  and  C_5 
REMARK    3  A    between atoms: N_3  and  C_33 
REMARK    4  A    between atoms: C_5  and  C_6 
REMARK    5  A    between atoms: C_6  and  N_7 
REMARK       I    between atoms: N_7  and  C_8 
REMARK    6  A    between atoms: C_8  and  C_9 
REMARK    7  A    between atoms: N_15  and  C_16 
REMARK    8  A    between atoms: C_16  and  C_17 
REMARK       I    between atoms: C_17  and  N_18 
REMARK    9  A    between atoms: N_18  and  C_19 
ROOT
HETATM    1  C   UNL     1      40.325 -12.181   5.887  1.00  0.00     0.081 A 
HETATM    2  S   UNL     1      39.056 -12.006   4.745  1.00  0.00    -0.063 SA
HETATM    3  C   UNL     1      39.912 -12.852   3.549  1.00  0.00     0.116 A 
HETATM    4  C   UNL     1      41.150 -13.260   3.992  1.00  0.00     0.075 A 
HETATM    5  C   UNL     1      41.949 -14.069   3.078  1.00  0.00     0.262 A 
HETATM    6  O   UNL     1      43.051 -14.522   3.379  1.00  0.00    -0.267 OA
HETATM    7  N   UNL     1      41.344 -14.302   1.846  1.00  0.00    -0.299 N 
HETATM    8  C   UNL     1      40.083 -13.818   1.552  1.00  0.00     0.214 A 
HETATM    9  N   UNL     1      39.357 -13.087   2.336  1.00  0.00    -0.235 NA
HETATM   10  C   UNL     1      41.432 -12.822   5.340  1.00  0.00    -0.021 A 
HETATM   11  C   UNL     1      42.709 -13.097   6.076  1.00  0.00     0.051 C 
ENDROOT
BRANCH   7  12
HETATM   12  C   UNL     1      41.988 -15.234   0.933  1.00  0.00     0.236 C 
BRANCH  12  13
HETATM   13  C   UNL     1      41.993 -16.633   1.564  1.00  0.00     0.240 C 
HETATM   14  N   UNL     1      43.264 -17.062   1.915  1.00  0.00    -0.326 N 
HETATM   15  H   UNL     1      44.037 -16.433   1.731  1.00  0.00     0.169 HD
HETATM   16  O   UNL     1      40.958 -17.287   1.663  1.00  0.00    -0.271 OA
BRANCH  14  17
HETATM   17  C   UNL     1      43.612 -18.290   2.519  1.00  0.00     0.036 A 
HETATM   18  C   UNL     1      43.852 -18.453   3.885  1.00  0.00     0.053 A 
HETATM   19  C   UNL     1      44.205 -19.706   4.402  1.00  0.00     0.042 A 
HETATM   20 CL   UNL     1      44.501 -19.821   6.103  1.00  0.00    -0.084 Cl
HETATM   21  C   UNL     1      44.318 -20.825   3.565  1.00  0.00    -0.040 A 
HETATM   22  C   UNL     1      44.699 -22.179   4.093  1.00  0.00     0.050 C 
HETATM   23  C   UNL     1      44.078 -20.657   2.196  1.00  0.00     0.011 A 
HETATM   24  C   UNL     1      43.732 -19.404   1.680  1.00  0.00     0.030 A 
ENDBRANCH  14  17
ENDBRANCH  12  13
ENDBRANCH   7  12
BRANCH   1  25
HETATM   25  C   UNL     1      40.144 -11.658   7.232  1.00  0.00     0.259 C 
HETATM   26  N   UNL     1      41.266 -11.073   7.800  1.00  0.00    -0.355 N 
HETATM   27  H   UNL     1      42.020 -10.894   7.141  1.00  0.00     0.162 HD
HETATM   28  O   UNL     1      39.097 -11.714   7.872  1.00  0.00    -0.267 OA
BRANCH  26  29
HETATM   29  C   UNL     1      41.159 -10.181   8.949  1.00  0.00     0.150 C 
BRANCH  29  30
HETATM   30  C   UNL     1      41.212 -10.877  10.323  1.00  0.00     0.254 C 
BRANCH  30  31
HETATM   31  N   UNL     1      41.389  -9.871  11.456  1.00  0.00    -0.070 N 
HETATM   32  H   UNL     1      40.791  -9.082  11.170  1.00  0.00     0.279 HD
BRANCH  31  33
HETATM   33  C   UNL     1      42.797  -9.318  11.541  1.00  0.00     0.230 C 
HETATM   34  C   UNL     1      43.510  -9.833  12.779  1.00  0.00     0.034 C 
ENDBRANCH  31  33
BRANCH  31  35
HETATM   35  C   UNL     1      40.847 -10.308  12.798  1.00  0.00     0.230 C 
HETATM   36  C   UNL     1      40.268 -11.711  12.765  1.00  0.00     0.034 C 
ENDBRANCH  31  35
ENDBRANCH  30  31
ENDBRANCH  29  30
ENDBRANCH  26  29
ENDBRANCH   1  25
TORSDOF 9
ENDMDL
MODEL 10
REMARK VINA RESULT:      -7.6      4.115     10.006
REMARK  9 active torsions:
REMARK  status: ('A' for Active; 'I' for Inactive)
REMARK    1  A    between atoms: C_2  and  N_3 
REMARK    2  A    between atoms: N_3  and  C_5 
REMARK    3  A    between atoms: N_3  and  C_33 
REMARK    4  A    between atoms: C_5  and  C_6 
REMARK    5  A    between atoms: C_6  and  N_7 
REMARK       I    between atoms: N_7  and  C_8 
REMARK    6  A    between atoms: C_8  and  C_9 
REMARK    7  A    between atoms: N_15  and  C_16 
REMARK    8  A    between atoms: C_16  and  C_17 
REMARK       I    between atoms: C_17  and  N_18 
REMARK    9  A    between atoms: N_18  and  C_19 
ROOT
HETATM    1  C   UNL     1      43.669 -16.610   5.981  1.00  0.00     0.081 A 
HETATM    2  S   UNL     1      44.439 -15.146   6.438  1.00  0.00    -0.063 SA
HETATM    3  C   UNL     1      43.044 -14.229   6.136  1.00  0.00     0.116 A 
HETATM    4  C   UNL     1      42.002 -15.007   5.686  1.00  0.00     0.075 A 
HETATM    5  C   UNL     1      40.722 -14.342   5.468  1.00  0.00     0.262 A 
HETATM    6  O   UNL     1      39.713 -14.941   5.105  1.00  0.00    -0.267 OA
HETATM    7  N   UNL     1      40.739 -12.974   5.731  1.00  0.00    -0.299 N 
HETATM    8  C   UNL     1      41.878 -12.335   6.182  1.00  0.00     0.214 A 
HETATM    9  N   UNL     1      43.030 -12.894   6.371  1.00  0.00    -0.235 NA
HETATM   10  C   UNL     1      42.370 -16.396   5.530  1.00  0.00    -0.021 A 
HETATM   11  C   UNL     1      41.450 -17.471   5.035  1.00  0.00     0.051 C 
ENDROOT
BRANCH   7  12
HETATM   12  C   UNL     1      39.473 -12.257   5.703  1.00  0.00     0.236 C 
BRANCH  12  13
HETATM   13  C   UNL     1      39.505 -11.141   6.756  1.00  0.00     0.240 C 
HETATM   14  N   UNL     1      39.762 -11.614   8.034  1.00  0.00    -0.326 N 
HETATM   15  H   UNL     1      39.902 -12.611   8.144  1.00  0.00     0.169 HD
HETATM   16  O   UNL     1      39.256  -9.977   6.453  1.00  0.00    -0.271 OA
BRANCH  14  17
HETATM   17  C   UNL     1      39.864 -10.852   9.219  1.00  0.00     0.036 A 
HETATM   18  C   UNL     1      38.784 -10.231   9.849  1.00  0.00     0.053 A 
HETATM   19  C   UNL     1      38.974  -9.483  11.018  1.00  0.00     0.042 A 
HETATM   20 CL   UNL     1      37.587  -8.732  11.729  1.00  0.00    -0.084 Cl
HETATM   21  C   UNL     1      40.248  -9.346  11.586  1.00  0.00    -0.040 A 
HETATM   22  C   UNL     1      40.481  -8.545  12.836  1.00  0.00     0.050 C 
HETATM   23  C   UNL     1      41.330  -9.968  10.950  1.00  0.00     0.011 A 
HETATM   24  C   UNL     1      41.139 -10.710   9.779  1.00  0.00     0.030 A 
ENDBRANCH  14  17
ENDBRANCH  12  13
ENDBRANCH   7  12
BRANCH   1  25
HETATM   25  C   UNL     1      44.406 -17.860   6.083  1.00  0.00     0.259 C 
HETATM   26  N   UNL     1      43.693 -19.001   5.746  1.00  0.00    -0.355 N 
HETATM   27  H   UNL     1      42.811 -18.816   5.276  1.00  0.00     0.162 HD
HETATM   28  O   UNL     1      45.575 -17.957   6.446  1.00  0.00    -0.267 OA
BRANCH  26  29
HETATM   29  C   UNL     1      44.369 -20.253   5.428  1.00  0.00     0.150 C 
BRANCH  29  30
HETATM   30  C   UNL     1      44.843 -20.386   3.968  1.00  0.00     0.254 C 
BRANCH  30  31
HETATM   31  N   UNL     1      43.852 -19.755   2.995  1.00  0.00    -0.070 N 
HETATM   32  H   UNL     1      43.035 -19.546   3.588  1.00  0.00     0.279 HD
BRANCH  31  33
HETATM   33  C   UNL     1      43.363 -20.722   1.938  1.00  0.00     0.230 C 
HETATM   34  C   UNL     1      44.344 -21.867   1.752  1.00  0.00     0.034 C 
ENDBRANCH  31  33
BRANCH  31  35
HETATM   35  C   UNL     1      44.272 -18.419   2.422  1.00  0.00     0.230 C 
HETATM   36  C   UNL     1      43.508 -18.058   1.161  1.00  0.00     0.034 C 
ENDBRANCH  31  35
ENDBRANCH  30  31
ENDBRANCH  29  30
ENDBRANCH  26  29
ENDBRANCH   1  25
TORSDOF 9
ENDMDL
