MODEL 1
REMARK VINA RESULT:      -9.3      0.000      0.000
REMARK  5 active torsions:
REMARK  status: ('A' for Active; 'I' for Inactive)
REMARK    1  A    between atoms: C_4  and  N_5 
REMARK       I    between atoms: C_6  and  N_7 
REMARK       I    between atoms: C_6  and  N_14 
REMARK       I    between atoms: N_7  and  C_8 
REMARK    2  A    between atoms: C_8  and  C_9 
REMARK    3  A    between atoms: N_14  and  C_15 
REMARK    4  A    between atoms: C_15  and  C_16 
REMARK    5  A    between atoms: C_16  and  C_17 
ROOT
HETATM    1  N   UNL     1      41.166 -14.135   0.550  1.00  0.00     0.130 NA
HETATM    2  C   UNL     1      41.618 -15.181   1.154  1.00  0.00     0.718 C 
HETATM    3  N   UNL     1      41.597 -15.205   2.538  1.00  0.00    -0.157 N 
HETATM    4  C   UNL     1      41.116 -14.244   3.428  1.00  0.00     0.243 C 
HETATM    5  O   UNL     1      40.512 -13.222   3.116  1.00  0.00    -0.272 OA
HETATM    6  N   UNL     1      42.145 -16.290   0.537  1.00  0.00    -0.223 N 
HETATM    7  H   UNL     1      42.039 -16.008   2.943  1.00  0.00     0.187 HD
HETATM    8  H   UNL     1      41.909 -16.278  -0.459  1.00  0.00     0.177 HD
ENDROOT
BRANCH   1   9
HETATM    9  C   UNL     1      41.168 -14.016  -0.834  1.00  0.00     0.764 A 
HETATM   10  N   UNL     1      41.818 -12.978  -1.402  1.00  0.00    -0.065 NA
HETATM   11  C   UNL     1      41.817 -12.932  -2.749  1.00  0.00     0.051 A 
HETATM   12  C   UNL     1      42.550 -11.798  -3.398  1.00  0.00     0.071 C 
HETATM   13  C   UNL     1      41.174 -13.878  -3.522  1.00  0.00     0.054 A 
HETATM   14  C   UNL     1      40.527 -14.895  -2.848  1.00  0.00     0.051 A 
HETATM   15  N   UNL     1      40.518 -14.978  -1.504  1.00  0.00    -0.065 NA
HETATM   16  C   UNL     1      39.799 -15.964  -3.604  1.00  0.00     0.071 C 
ENDBRANCH   1   9
BRANCH   6  17
HETATM   17  C   UNL     1      42.274 -17.627   1.087  1.00  0.00     0.142 C 
BRANCH  17  18
HETATM   18  C   UNL     1      43.751 -17.967   1.316  1.00  0.00     0.061 C 
BRANCH  18  19
HETATM   19  C   UNL     1      44.000 -18.529   2.678  1.00  0.00    -0.029 A 
HETATM   20  C   UNL     1      44.225 -19.906   3.003  1.00  0.00    -0.002 A 
HETATM   21  C   UNL     1      44.403 -19.987   4.383  1.00  0.00     0.042 A 
HETATM   22  C   UNL     1      44.287 -21.095   2.246  1.00  0.00     0.014 A 
HETATM   23  C   UNL     1      44.641 -21.197   5.048  1.00  0.00     0.030 A 
HETATM   24  N   UNL     1      44.294 -18.710   4.881  1.00  0.00    -0.365 N 
HETATM   25  C   UNL     1      44.696 -22.360   4.275  1.00  0.00     0.002 A 
HETATM   26  C   UNL     1      44.523 -22.313   2.893  1.00  0.00     0.001 A 
HETATM   27  H   UNL     1      44.375 -18.468   5.859  1.00  0.00     0.165 HD
HETATM   28  C   UNL     1      44.054 -17.824   3.865  1.00  0.00     0.096 A 
ENDBRANCH  18  19
ENDBRANCH  17  18
ENDBRANCH   6  17
BRANCH   4  29
HETATM   29  C   UNL     1      41.346 -14.611   4.915  1.00  0.00     0.031 C 
HETATM   30  C   UNL     1      40.432 -13.780   5.829  1.00  0.00     0.025 C 
HETATM   31  C   UNL     1      41.016 -16.100   5.129  1.00  0.00     0.025 C 
HETATM   32  C   UNL     1      42.819 -14.378   5.281  1.00  0.00     0.025 C 
ENDBRANCH   4  29
TORSDOF 5
ENDMDL
MODEL 2
REMARK VINA RESULT:      -9.1      1.028      2.199
REMARK  5 active torsions:
REMARK  status: ('A' for Active; 'I' for Inactive)
REMARK    1  A    between atoms: C_4  and  N_5 
REMARK       I    between atoms: C_6  and  N_7 
REMARK       I    between atoms: C_6  and  N_14 
REMARK       I    between atoms: N_7  and  C_8 
REMARK    2  A    between atoms: C_8  and  C_9 
REMARK    3  A    between atoms: N_14  and  C_15 
REMARK    4  A    between atoms: C_15  and  C_16 
REMARK    5  A    between atoms: C_16  and  C_17 
ROOT
HETATM    1  N   UNL     1      41.877 -13.338   1.199  1.00  0.00     0.130 NA
HETATM    2  C   UNL     1      42.016 -14.579   1.521  1.00  0.00     0.718 C 
HETATM    3  N   UNL     1      41.771 -14.953   2.831  1.00  0.00    -0.157 N 
HETATM    4  C   UNL     1      41.348 -14.169   3.906  1.00  0.00     0.243 C 
HETATM    5  O   UNL     1      41.009 -12.992   3.839  1.00  0.00    -0.272 OA
HETATM    6  N   UNL     1      42.413 -15.582   0.669  1.00  0.00    -0.223 N 
HETATM    7  H   UNL     1      41.980 -15.912   3.033  1.00  0.00     0.187 HD
HETATM    8  H   UNL     1      42.345 -15.260  -0.300  1.00  0.00     0.177 HD
ENDROOT
BRANCH   1   9
HETATM    9  C   UNL     1      42.122 -12.870  -0.086  1.00  0.00     0.764 A 
HETATM   10  N   UNL     1      41.677 -13.586  -1.140  1.00  0.00    -0.065 NA
HETATM   11  C   UNL     1      41.912 -13.067  -2.362  1.00  0.00     0.051 A 
HETATM   12  C   UNL     1      41.409 -13.838  -3.545  1.00  0.00     0.071 C 
HETATM   13  C   UNL     1      42.586 -11.876  -2.544  1.00  0.00     0.054 A 
HETATM   14  C   UNL     1      43.011 -11.223  -1.403  1.00  0.00     0.051 A 
HETATM   15  N   UNL     1      42.783 -11.708  -0.168  1.00  0.00    -0.065 NA
HETATM   16  C   UNL     1      43.754  -9.927  -1.504  1.00  0.00     0.071 C 
ENDBRANCH   1   9
BRANCH   6  17
HETATM   17  C   UNL     1      42.192 -17.008   0.824  1.00  0.00     0.142 C 
BRANCH  17  18
HETATM   18  C   UNL     1      43.532 -17.753   0.843  1.00  0.00     0.061 C 
BRANCH  18  19
HETATM   19  C   UNL     1      43.847 -18.321   2.189  1.00  0.00    -0.029 A 
HETATM   20  C   UNL     1      44.089 -19.699   2.496  1.00  0.00    -0.002 A 
HETATM   21  C   UNL     1      44.334 -19.787   3.866  1.00  0.00     0.042 A 
HETATM   22  C   UNL     1      44.117 -20.885   1.731  1.00  0.00     0.014 A 
HETATM   23  C   UNL     1      44.606 -20.999   4.512  1.00  0.00     0.030 A 
HETATM   24  N   UNL     1      44.248 -18.512   4.375  1.00  0.00    -0.365 N 
HETATM   25  C   UNL     1      44.624 -22.158   3.732  1.00  0.00     0.002 A 
HETATM   26  C   UNL     1      44.385 -22.105   2.361  1.00  0.00     0.001 A 
HETATM   27  H   UNL     1      44.375 -18.274   5.348  1.00  0.00     0.165 HD
HETATM   28  C   UNL     1      43.958 -17.622   3.375  1.00  0.00     0.096 A 
ENDBRANCH  18  19
ENDBRANCH  17  18
ENDBRANCH   6  17
BRANCH   4  29
HETATM   29  C   UNL     1      41.262 -14.949   5.241  1.00  0.00     0.031 C 
HETATM   30  C   UNL     1      40.964 -16.435   4.986  1.00  0.00     0.025 C 
HETATM   31  C   UNL     1      42.610 -14.847   5.979  1.00  0.00     0.025 C 
HETATM   32  C   UNL     1      40.170 -14.333   6.128  1.00  0.00     0.025 C 
ENDBRANCH   4  29
TORSDOF 5
ENDMDL
MODEL 3
REMARK VINA RESULT:      -9.0      1.393      5.330
REMARK  5 active torsions:
REMARK  status: ('A' for Active; 'I' for Inactive)
REMARK    1  A    between atoms: C_4  and  N_5 
REMARK       I    between atoms: C_6  and  N_7 
REMARK       I    between atoms: C_6  and  N_14 
REMARK       I    between atoms: N_7  and  C_8 
REMARK    2  A    between atoms: C_8  and  C_9 
REMARK    3  A    between atoms: N_14  and  C_15 
REMARK    4  A    between atoms: C_15  and  C_16 
REMARK    5  A    between atoms: C_16  and  C_17 
ROOT
HETATM    1  N   UNL     1      40.883 -13.989   1.760  1.00  0.00     0.130 NA
HETATM    2  C   UNL     1      40.876 -15.126   1.151  1.00  0.00     0.718 C 
HETATM    3  N   UNL     1      40.625 -15.145  -0.210  1.00  0.00    -0.157 N 
HETATM    4  C   UNL     1      40.396 -14.076  -1.078  1.00  0.00     0.243 C 
HETATM    5  O   UNL     1      40.486 -12.888  -0.784  1.00  0.00    -0.272 OA
HETATM    6  N   UNL     1      41.082 -16.348   1.746  1.00  0.00    -0.223 N 
HETATM    7  H   UNL     1      40.551 -16.064  -0.603  1.00  0.00     0.187 HD
HETATM    8  H   UNL     1      41.479 -16.216   2.681  1.00  0.00     0.177 HD
ENDROOT
BRANCH   1   9
HETATM    9  C   UNL     1      41.104 -13.878   3.127  1.00  0.00     0.764 A 
HETATM   10  N   UNL     1      42.305 -14.236   3.628  1.00  0.00    -0.065 NA
HETATM   11  C   UNL     1      42.476 -14.073   4.955  1.00  0.00     0.051 A 
HETATM   12  C   UNL     1      43.809 -14.448   5.528  1.00  0.00     0.071 C 
HETATM   13  C   UNL     1      41.480 -13.584   5.776  1.00  0.00     0.054 A 
HETATM   14  C   UNL     1      40.283 -13.256   5.171  1.00  0.00     0.051 A 
HETATM   15  N   UNL     1      40.082 -13.395   3.847  1.00  0.00    -0.065 NA
HETATM   16  C   UNL     1      39.143 -12.722   5.983  1.00  0.00     0.071 C 
ENDBRANCH   1   9
BRANCH   6  17
HETATM   17  C   UNL     1      41.501 -17.580   1.105  1.00  0.00     0.142 C 
BRANCH  17  18
HETATM   18  C   UNL     1      43.031 -17.683   1.104  1.00  0.00     0.061 C 
BRANCH  18  19
HETATM   19  C   UNL     1      43.562 -18.274   2.370  1.00  0.00    -0.029 A 
HETATM   20  C   UNL     1      43.876 -19.652   2.601  1.00  0.00    -0.002 A 
HETATM   21  C   UNL     1      44.331 -19.763   3.914  1.00  0.00     0.042 A 
HETATM   22  C   UNL     1      43.809 -20.819   1.811  1.00  0.00     0.014 A 
HETATM   23  C   UNL     1      44.724 -20.983   4.480  1.00  0.00     0.030 A 
HETATM   24  N   UNL     1      44.298 -18.503   4.463  1.00  0.00    -0.365 N 
HETATM   25  C   UNL     1      44.645 -22.124   3.677  1.00  0.00     0.002 A 
HETATM   26  C   UNL     1      44.196 -22.047   2.361  1.00  0.00     0.001 A 
HETATM   27  H   UNL     1      44.570 -18.284   5.411  1.00  0.00     0.165 HD
HETATM   28  C   UNL     1      43.839 -17.598   3.543  1.00  0.00     0.096 A 
ENDBRANCH  18  19
ENDBRANCH  17  18
ENDBRANCH   6  17
BRANCH   4  29
HETATM   29  C   UNL     1      40.076 -14.517  -2.527  1.00  0.00     0.031 C 
HETATM   30  C   UNL     1      40.763 -13.592  -3.543  1.00  0.00     0.025 C 
HETATM   31  C   UNL     1      40.595 -15.950  -2.751  1.00  0.00     0.025 C 
HETATM   32  C   UNL     1      38.555 -14.508  -2.743  1.00  0.00     0.025 C 
ENDBRANCH   4  29
TORSDOF 5
ENDMDL
MODEL 4
REMARK VINA RESULT:      -9.0      1.461      5.672
REMARK  5 active torsions:
REMARK  status: ('A' for Active; 'I' for Inactive)
REMARK    1  A    between atoms: C_4  and  N_5 
REMARK       I    between atoms: C_6  and  N_7 
REMARK       I    between atoms: C_6  and  N_14 
REMARK       I    between atoms: N_7  and  C_8 
REMARK    2  A    between atoms: C_8  and  C_9 
REMARK    3  A    between atoms: N_14  and  C_15 
REMARK    4  A    between atoms: C_15  and  C_16 
REMARK    5  A    between atoms: C_16  and  C_17 
ROOT
HETATM    1  N   UNL     1      42.343 -14.122   2.893  1.00  0.00     0.130 NA
HETATM    2  C   UNL     1      42.080 -14.936   1.928  1.00  0.00     0.718 C 
HETATM    3  N   UNL     1      41.907 -14.418   0.656  1.00  0.00    -0.157 N 
HETATM    4  C   UNL     1      42.004 -13.094   0.223  1.00  0.00     0.243 C 
HETATM    5  O   UNL     1      42.377 -12.146   0.907  1.00  0.00    -0.272 OA
HETATM    6  N   UNL     1      41.935 -16.297   2.052  1.00  0.00    -0.223 N 
HETATM    7  H   UNL     1      41.622 -15.092  -0.029  1.00  0.00     0.187 HD
HETATM    8  H   UNL     1      42.302 -16.603   2.958  1.00  0.00     0.177 HD
ENDROOT
BRANCH   1   9
HETATM    9  C   UNL     1      42.511 -14.550   4.204  1.00  0.00     0.764 A 
HETATM   10  N   UNL     1      41.589 -15.373   4.747  1.00  0.00    -0.065 NA
HETATM   11  C   UNL     1      41.822 -15.786   6.009  1.00  0.00     0.051 A 
HETATM   12  C   UNL     1      40.820 -16.715   6.624  1.00  0.00     0.071 C 
HETATM   13  C   UNL     1      42.929 -15.383   6.729  1.00  0.00     0.054 A 
HETATM   14  C   UNL     1      43.808 -14.532   6.089  1.00  0.00     0.051 A 
HETATM   15  N   UNL     1      43.613 -14.110   4.826  1.00  0.00    -0.065 NA
HETATM   16  C   UNL     1      45.035 -14.039   6.793  1.00  0.00     0.071 C 
ENDBRANCH   1   9
BRANCH   6  17
HETATM   17  C   UNL     1      42.062 -17.295   1.007  1.00  0.00     0.142 C 
BRANCH  17  18
HETATM   18  C   UNL     1      43.475 -17.888   1.008  1.00  0.00     0.061 C 
BRANCH  18  19
HETATM   19  C   UNL     1      43.840 -18.488   2.327  1.00  0.00    -0.029 A 
HETATM   20  C   UNL     1      44.101 -19.871   2.590  1.00  0.00    -0.002 A 
HETATM   21  C   UNL     1      44.393 -19.992   3.948  1.00  0.00     0.042 A 
HETATM   22  C   UNL     1      44.112 -21.037   1.795  1.00  0.00     0.014 A 
HETATM   23  C   UNL     1      44.694 -21.218   4.554  1.00  0.00     0.030 A 
HETATM   24  N   UNL     1      44.314 -18.731   4.493  1.00  0.00    -0.365 N 
HETATM   25  C   UNL     1      44.695 -22.357   3.744  1.00  0.00     0.002 A 
HETATM   26  C   UNL     1      44.410 -22.271   2.383  1.00  0.00     0.001 A 
HETATM   27  H   UNL     1      44.472 -18.518   5.467  1.00  0.00     0.165 HD
HETATM   28  C   UNL     1      43.984 -17.818   3.527  1.00  0.00     0.096 A 
ENDBRANCH  18  19
ENDBRANCH  17  18
ENDBRANCH   6  17
BRANCH   4  29
HETATM   29  C   UNL     1      41.661 -12.909  -1.275  1.00  0.00     0.031 C 
HETATM   30  C   UNL     1      42.849 -12.299  -2.036  1.00  0.00     0.025 C 
HETATM   31  C   UNL     1      41.343 -14.281  -1.899  1.00  0.00     0.025 C 
HETATM   32  C   UNL     1      40.423 -12.010  -1.413  1.00  0.00     0.025 C 
ENDBRANCH   4  29
TORSDOF 5
ENDMDL
MODEL 5
REMARK VINA RESULT:      -8.8      0.875      1.895
REMARK  5 active torsions:
REMARK  status: ('A' for Active; 'I' for Inactive)
REMARK    1  A    between atoms: C_4  and  N_5 
REMARK       I    between atoms: C_6  and  N_7 
REMARK       I    between atoms: C_6  and  N_14 
REMARK       I    between atoms: N_7  and  C_8 
REMARK    2  A    between atoms: C_8  and  C_9 
REMARK    3  A    between atoms: N_14  and  C_15 
REMARK    4  A    between atoms: C_15  and  C_16 
REMARK    5  A    between atoms: C_16  and  C_17 
ROOT
HETATM    1  N   UNL     1      41.102 -14.090   0.655  1.00  0.00     0.130 NA
HETATM    2  C   UNL     1      41.532 -15.122   1.299  1.00  0.00     0.718 C 
HETATM    3  N   UNL     1      41.464 -15.113   2.681  1.00  0.00    -0.157 N 
HETATM    4  C   UNL     1      40.954 -14.131   3.531  1.00  0.00     0.243 C 
HETATM    5  O   UNL     1      40.361 -13.117   3.175  1.00  0.00    -0.272 OA
HETATM    6  N   UNL     1      42.079 -16.245   0.726  1.00  0.00    -0.223 N 
HETATM    7  H   UNL     1      41.892 -15.906   3.120  1.00  0.00     0.187 HD
HETATM    8  H   UNL     1      41.877 -16.256  -0.278  1.00  0.00     0.177 HD
ENDROOT
BRANCH   1   9
HETATM    9  C   UNL     1      41.151 -14.004  -0.731  1.00  0.00     0.764 A 
HETATM   10  N   UNL     1      41.808 -12.971  -1.300  1.00  0.00    -0.065 NA
HETATM   11  C   UNL     1      41.853 -12.957  -2.647  1.00  0.00     0.051 A 
HETATM   12  C   UNL     1      42.594 -11.829  -3.298  1.00  0.00     0.071 C 
HETATM   13  C   UNL     1      41.250 -13.929  -3.420  1.00  0.00     0.054 A 
HETATM   14  C   UNL     1      40.592 -14.938  -2.744  1.00  0.00     0.051 A 
HETATM   15  N   UNL     1      40.537 -14.989  -1.400  1.00  0.00    -0.065 NA
HETATM   16  C   UNL     1      39.904 -16.034  -3.499  1.00  0.00     0.071 C 
ENDBRANCH   1   9
BRANCH   6  17
HETATM   17  C   UNL     1      42.187 -17.568   1.311  1.00  0.00     0.142 C 
BRANCH  17  18
HETATM   18  C   UNL     1      43.641 -18.054   1.261  1.00  0.00     0.061 C 
BRANCH  18  19
HETATM   19  C   UNL     1      43.942 -19.060   2.323  1.00  0.00    -0.029 A 
HETATM   20  C   UNL     1      44.031 -18.812   3.731  1.00  0.00    -0.002 A 
HETATM   21  C   UNL     1      44.338 -20.022   4.351  1.00  0.00     0.042 A 
HETATM   22  C   UNL     1      43.882 -17.663   4.536  1.00  0.00     0.014 A 
HETATM   23  C   UNL     1      44.505 -20.144   5.736  1.00  0.00     0.030 A 
HETATM   24  N   UNL     1      44.431 -20.972   3.361  1.00  0.00    -0.365 N 
HETATM   25  C   UNL     1      44.355 -18.990   6.510  1.00  0.00     0.002 A 
HETATM   26  C   UNL     1      44.047 -17.765   5.922  1.00  0.00     0.001 A 
HETATM   27  H   UNL     1      44.650 -21.946   3.521  1.00  0.00     0.165 HD
HETATM   28  C   UNL     1      44.193 -20.406   2.137  1.00  0.00     0.096 A 
ENDBRANCH  18  19
ENDBRANCH  17  18
ENDBRANCH   6  17
BRANCH   4  29
HETATM   29  C   UNL     1      41.132 -14.463   5.033  1.00  0.00     0.031 C 
HETATM   30  C   UNL     1      40.806 -15.939   5.307  1.00  0.00     0.025 C 
HETATM   31  C   UNL     1      42.595 -14.208   5.442  1.00  0.00     0.025 C 
HETATM   32  C   UNL     1      40.224 -13.553   5.873  1.00  0.00     0.025 C 
ENDBRANCH   4  29
TORSDOF 5
ENDMDL
MODEL 6
REMARK VINA RESULT:      -8.8      2.043      5.511
REMARK  5 active torsions:
REMARK  status: ('A' for Active; 'I' for Inactive)
REMARK    1  A    between atoms: C_4  and  N_5 
REMARK       I    between atoms: C_6  and  N_7 
REMARK       I    between atoms: C_6  and  N_14 
REMARK       I    between atoms: N_7  and  C_8 
REMARK    2  A    between atoms: C_8  and  C_9 
REMARK    3  A    between atoms: N_14  and  C_15 
REMARK    4  A    between atoms: C_15  and  C_16 
REMARK    5  A    between atoms: C_16  and  C_17 
ROOT
HETATM    1  N   UNL     1      41.620 -14.420   3.968  1.00  0.00     0.130 NA
HETATM    2  C   UNL     1      41.428 -15.176   2.941  1.00  0.00     0.718 C 
HETATM    3  N   UNL     1      40.579 -14.731   1.943  1.00  0.00    -0.157 N 
HETATM    4  C   UNL     1      39.884 -13.524   1.851  1.00  0.00     0.243 C 
HETATM    5  O   UNL     1      39.999 -12.575   2.620  1.00  0.00    -0.272 OA
HETATM    6  N   UNL     1      41.988 -16.417   2.752  1.00  0.00    -0.223 N 
HETATM    7  H   UNL     1      40.408 -15.401   1.217  1.00  0.00     0.187 HD
HETATM    8  H   UNL     1      42.760 -16.553   3.411  1.00  0.00     0.177 HD
ENDROOT
BRANCH   1   9
HETATM    9  C   UNL     1      42.439 -14.794   5.026  1.00  0.00     0.764 A 
HETATM   10  N   UNL     1      43.513 -14.033   5.325  1.00  0.00    -0.065 NA
HETATM   11  C   UNL     1      44.251 -14.424   6.383  1.00  0.00     0.051 A 
HETATM   12  C   UNL     1      45.437 -13.581   6.743  1.00  0.00     0.071 C 
HETATM   13  C   UNL     1      43.948 -15.550   7.122  1.00  0.00     0.054 A 
HETATM   14  C   UNL     1      42.836 -16.268   6.731  1.00  0.00     0.051 A 
HETATM   15  N   UNL     1      42.071 -15.900   5.687  1.00  0.00    -0.065 NA
HETATM   16  C   UNL     1      42.434 -17.507   7.471  1.00  0.00     0.071 C 
ENDBRANCH   1   9
BRANCH   6  17
HETATM   17  C   UNL     1      42.165 -17.121   1.495  1.00  0.00     0.142 C 
BRANCH  17  18
HETATM   18  C   UNL     1      43.590 -17.679   1.397  1.00  0.00     0.061 C 
BRANCH  18  19
HETATM   19  C   UNL     1      43.975 -18.470   2.604  1.00  0.00    -0.029 A 
HETATM   20  C   UNL     1      44.144 -19.891   2.673  1.00  0.00    -0.002 A 
HETATM   21  C   UNL     1      44.496 -20.208   3.984  1.00  0.00     0.042 A 
HETATM   22  C   UNL     1      44.026 -20.940   1.736  1.00  0.00     0.014 A 
HETATM   23  C   UNL     1      44.734 -21.521   4.409  1.00  0.00     0.030 A 
HETATM   24  N   UNL     1      44.541 -19.028   4.688  1.00  0.00    -0.365 N 
HETATM   25  C   UNL     1      44.607 -22.541   3.462  1.00  0.00     0.002 A 
HETATM   26  C   UNL     1      44.259 -22.258   2.144  1.00  0.00     0.001 A 
HETATM   27  H   UNL     1      44.765 -18.955   5.671  1.00  0.00     0.165 HD
HETATM   28  C   UNL     1      44.232 -17.975   3.868  1.00  0.00     0.096 A 
ENDBRANCH  18  19
ENDBRANCH  17  18
ENDBRANCH   6  17
BRANCH   4  29
HETATM   29  C   UNL     1      38.968 -13.434   0.606  1.00  0.00     0.031 C 
HETATM   30  C   UNL     1      37.610 -14.099   0.879  1.00  0.00     0.025 C 
HETATM   31  C   UNL     1      38.720 -11.954   0.260  1.00  0.00     0.025 C 
HETATM   32  C   UNL     1      39.658 -14.107  -0.590  1.00  0.00     0.025 C 
ENDBRANCH   4  29
TORSDOF 5
ENDMDL
MODEL 7
REMARK VINA RESULT:      -8.7      2.251      5.905
REMARK  5 active torsions:
REMARK  status: ('A' for Active; 'I' for Inactive)
REMARK    1  A    between atoms: C_4  and  N_5 
REMARK       I    between atoms: C_6  and  N_7 
REMARK       I    between atoms: C_6  and  N_14 
REMARK       I    between atoms: N_7  and  C_8 
REMARK    2  A    between atoms: C_8  and  C_9 
REMARK    3  A    between atoms: N_14  and  C_15 
REMARK    4  A    between atoms: C_15  and  C_16 
REMARK    5  A    between atoms: C_16  and  C_17 
ROOT
HETATM    1  N   UNL     1      42.425 -12.832   2.061  1.00  0.00     0.130 NA
HETATM    2  C   UNL     1      42.039 -13.595   1.096  1.00  0.00     0.718 C 
HETATM    3  N   UNL     1      42.032 -13.081  -0.189  1.00  0.00    -0.157 N 
HETATM    4  C   UNL     1      42.423 -11.817  -0.635  1.00  0.00     0.243 C 
HETATM    5  O   UNL     1      42.957 -10.953   0.053  1.00  0.00    -0.272 OA
HETATM    6  N   UNL     1      41.608 -14.892   1.232  1.00  0.00    -0.223 N 
HETATM    7  H   UNL     1      41.642 -13.697  -0.878  1.00  0.00     0.187 HD
HETATM    8  H   UNL     1      41.863 -15.248   2.157  1.00  0.00     0.177 HD
ENDROOT
BRANCH   1   9
HETATM    9  C   UNL     1      42.444 -13.256   3.384  1.00  0.00     0.764 A 
HETATM   10  N   UNL     1      43.633 -13.464   3.988  1.00  0.00    -0.065 NA
HETATM   11  C   UNL     1      43.592 -13.840   5.282  1.00  0.00     0.051 A 
HETATM   12  C   UNL     1      44.902 -14.057   5.977  1.00  0.00     0.071 C 
HETATM   13  C   UNL     1      42.405 -14.026   5.963  1.00  0.00     0.054 A 
HETATM   14  C   UNL     1      41.242 -13.799   5.254  1.00  0.00     0.051 A 
HETATM   15  N   UNL     1      41.247 -13.411   3.965  1.00  0.00    -0.065 NA
HETATM   16  C   UNL     1      39.907 -13.979   5.909  1.00  0.00     0.071 C 
ENDBRANCH   1   9
BRANCH   6  17
HETATM   17  C   UNL     1      41.566 -15.919   0.207  1.00  0.00     0.142 C 
BRANCH  17  18
HETATM   18  C   UNL     1      41.206 -17.274   0.827  1.00  0.00     0.061 C 
BRANCH  18  19
HETATM   19  C   UNL     1      42.281 -17.791   1.727  1.00  0.00    -0.029 A 
HETATM   20  C   UNL     1      42.259 -17.805   3.159  1.00  0.00    -0.002 A 
HETATM   21  C   UNL     1      43.461 -18.363   3.591  1.00  0.00     0.042 A 
HETATM   22  C   UNL     1      41.325 -17.386   4.130  1.00  0.00     0.014 A 
HETATM   23  C   UNL     1      43.779 -18.526   4.945  1.00  0.00     0.030 A 
HETATM   24  N   UNL     1      44.187 -18.680   2.467  1.00  0.00    -0.365 N 
HETATM   25  C   UNL     1      42.837 -18.101   5.887  1.00  0.00     0.002 A 
HETATM   26  C   UNL     1      41.626 -17.540   5.488  1.00  0.00     0.001 A 
HETATM   27  H   UNL     1      45.108 -19.097   2.479  1.00  0.00     0.165 HD
HETATM   28  C   UNL     1      43.487 -18.343   1.340  1.00  0.00     0.096 A 
ENDBRANCH  18  19
ENDBRANCH  17  18
ENDBRANCH   6  17
BRANCH   4  29
HETATM   29  C   UNL     1      42.190 -11.599  -2.150  1.00  0.00     0.031 C 
HETATM   30  C   UNL     1      40.690 -11.458  -2.457  1.00  0.00     0.025 C 
HETATM   31  C   UNL     1      42.896 -10.304  -2.594  1.00  0.00     0.025 C 
HETATM   32  C   UNL     1      42.785 -12.776  -2.937  1.00  0.00     0.025 C 
ENDBRANCH   4  29
TORSDOF 5
ENDMDL
MODEL 8
REMARK VINA RESULT:      -8.5      1.424      1.775
REMARK  5 active torsions:
REMARK  status: ('A' for Active; 'I' for Inactive)
REMARK    1  A    between atoms: C_4  and  N_5 
REMARK       I    between atoms: C_6  and  N_7 
REMARK       I    between atoms: C_6  and  N_14 
REMARK       I    between atoms: N_7  and  C_8 
REMARK    2  A    between atoms: C_8  and  C_9 
REMARK    3  A    between atoms: N_14  and  C_15 
REMARK    4  A    between atoms: C_15  and  C_16 
REMARK    5  A    between atoms: C_16  and  C_17 
ROOT
HETATM    1  N   UNL     1      39.949 -13.356   0.718  1.00  0.00     0.130 NA
HETATM    2  C   UNL     1      40.230 -14.392   1.431  1.00  0.00     0.718 C 
HETATM    3  N   UNL     1      40.274 -14.255   2.807  1.00  0.00    -0.157 N 
HETATM    4  C   UNL     1      40.023 -13.125   3.588  1.00  0.00     0.243 C 
HETATM    5  O   UNL     1      39.601 -12.050   3.171  1.00  0.00    -0.272 OA
HETATM    6  N   UNL     1      40.514 -15.644   0.938  1.00  0.00    -0.223 N 
HETATM    7  H   UNL     1      40.581 -15.075   3.295  1.00  0.00     0.187 HD
HETATM    8  H   UNL     1      40.235 -15.700  -0.045  1.00  0.00     0.177 HD
ENDROOT
BRANCH   1   9
HETATM    9  C   UNL     1      39.904 -13.397  -0.670  1.00  0.00     0.764 A 
HETATM   10  N   UNL     1      40.906 -12.831  -1.376  1.00  0.00    -0.065 NA
HETATM   11  C   UNL     1      40.828 -12.932  -2.718  1.00  0.00     0.051 A 
HETATM   12  C   UNL     1      41.941 -12.326  -3.518  1.00  0.00     0.071 C 
HETATM   13  C   UNL     1      39.777 -13.562  -3.354  1.00  0.00     0.054 A 
HETATM   14  C   UNL     1      38.796 -14.100  -2.545  1.00  0.00     0.051 A 
HETATM   15  N   UNL     1      38.848 -14.027  -1.202  1.00  0.00    -0.065 NA
HETATM   16  C   UNL     1      37.615 -14.798  -3.148  1.00  0.00     0.071 C 
ENDBRANCH   1   9
BRANCH   6  17
HETATM   17  C   UNL     1      40.422 -16.909   1.642  1.00  0.00     0.142 C 
BRANCH  17  18
HETATM   18  C   UNL     1      41.599 -17.815   1.262  1.00  0.00     0.061 C 
BRANCH  18  19
HETATM   19  C   UNL     1      42.488 -18.111   2.427  1.00  0.00    -0.029 A 
HETATM   20  C   UNL     1      43.252 -19.304   2.633  1.00  0.00    -0.002 A 
HETATM   21  C   UNL     1      43.927 -19.166   3.845  1.00  0.00     0.042 A 
HETATM   22  C   UNL     1      43.427 -20.497   1.899  1.00  0.00     0.014 A 
HETATM   23  C   UNL     1      44.769 -20.158   4.362  1.00  0.00     0.030 A 
HETATM   24  N   UNL     1      43.590 -17.935   4.357  1.00  0.00    -0.365 N 
HETATM   25  C   UNL     1      44.923 -21.330   3.616  1.00  0.00     0.002 A 
HETATM   26  C   UNL     1      44.264 -21.499   2.401  1.00  0.00     0.001 A 
HETATM   27  H   UNL     1      43.930 -17.567   5.235  1.00  0.00     0.165 HD
HETATM   28  C   UNL     1      42.727 -17.290   3.512  1.00  0.00     0.096 A 
ENDBRANCH  18  19
ENDBRANCH  17  18
ENDBRANCH   6  17
BRANCH   4  29
HETATM   29  C   UNL     1      40.254 -13.358   5.101  1.00  0.00     0.031 C 
HETATM   30  C   UNL     1      40.272 -14.860   5.425  1.00  0.00     0.025 C 
HETATM   31  C   UNL     1      41.614 -12.760   5.508  1.00  0.00     0.025 C 
HETATM   32  C   UNL     1      39.151 -12.653   5.905  1.00  0.00     0.025 C 
ENDBRANCH   4  29
TORSDOF 5
ENDMDL
MODEL 9
REMARK VINA RESULT:      -8.4      2.049      4.990
REMARK  5 active torsions:
REMARK  status: ('A' for Active; 'I' for Inactive)
REMARK    1  A    between atoms: C_4  and  N_5 
REMARK       I    between atoms: C_6  and  N_7 
REMARK       I    between atoms: C_6  and  N_14 
REMARK       I    between atoms: N_7  and  C_8 
REMARK    2  A    between atoms: C_8  and  C_9 
REMARK    3  A    between atoms: N_14  and  C_15 
REMARK    4  A    between atoms: C_15  and  C_16 
REMARK    5  A    between atoms: C_16  and  C_17 
ROOT
HETATM    1  N   UNL     1      41.664 -15.867  -0.339  1.00  0.00     0.130 NA
HETATM    2  C   UNL     1      40.941 -15.957   0.725  1.00  0.00     0.718 C 
HETATM    3  N   UNL     1      41.452 -16.640   1.815  1.00  0.00    -0.157 N 
HETATM    4  C   UNL     1      42.697 -17.253   1.965  1.00  0.00     0.243 C 
HETATM    5  O   UNL     1      43.622 -17.195   1.161  1.00  0.00    -0.272 OA
HETATM    6  N   UNL     1      39.676 -15.441   0.872  1.00  0.00    -0.223 N 
HETATM    7  H   UNL     1      40.807 -16.745   2.575  1.00  0.00     0.187 HD
HETATM    8  H   UNL     1      39.484 -14.773   0.120  1.00  0.00     0.177 HD
ENDROOT
BRANCH   1   9
HETATM    9  C   UNL     1      41.224 -15.219  -1.487  1.00  0.00     0.764 A 
HETATM   10  N   UNL     1      40.372 -15.861  -2.315  1.00  0.00    -0.065 NA
HETATM   11  C   UNL     1      39.950 -15.171  -3.394  1.00  0.00     0.051 A 
HETATM   12  C   UNL     1      38.990 -15.859  -4.316  1.00  0.00     0.071 C 
HETATM   13  C   UNL     1      40.370 -13.884  -3.662  1.00  0.00     0.054 A 
HETATM   14  C   UNL     1      41.250 -13.318  -2.760  1.00  0.00     0.051 A 
HETATM   15  N   UNL     1      41.683 -13.974  -1.667  1.00  0.00    -0.065 NA
HETATM   16  C   UNL     1      41.763 -11.926  -2.972  1.00  0.00     0.071 C 
ENDBRANCH   1   9
BRANCH   6  17
HETATM   17  C   UNL     1      38.990 -15.131   2.113  1.00  0.00     0.142 C 
BRANCH  17  18
HETATM   18  C   UNL     1      39.524 -13.820   2.701  1.00  0.00     0.061 C 
BRANCH  18  19
HETATM   19  C   UNL     1      40.228 -14.026   4.003  1.00  0.00    -0.029 A 
HETATM   20  C   UNL     1      41.643 -13.984   4.222  1.00  0.00    -0.002 A 
HETATM   21  C   UNL     1      41.865 -14.237   5.575  1.00  0.00     0.042 A 
HETATM   22  C   UNL     1      42.759 -13.757   3.389  1.00  0.00     0.014 A 
HETATM   23  C   UNL     1      43.146 -14.277   6.139  1.00  0.00     0.030 A 
HETATM   24  N   UNL     1      40.634 -14.425   6.159  1.00  0.00    -0.365 N 
HETATM   25  C   UNL     1      44.234 -14.052   5.291  1.00  0.00     0.002 A 
HETATM   26  C   UNL     1      44.046 -13.794   3.935  1.00  0.00     0.001 A 
HETATM   27  H   UNL     1      40.491 -14.632   7.138  1.00  0.00     0.165 HD
HETATM   28  C   UNL     1      39.642 -14.298   5.224  1.00  0.00     0.096 A 
ENDBRANCH  18  19
ENDBRANCH  17  18
ENDBRANCH   6  17
BRANCH   4  29
HETATM   29  C   UNL     1      42.863 -17.987   3.319  1.00  0.00     0.031 C 
HETATM   30  C   UNL     1      43.134 -19.483   3.099  1.00  0.00     0.025 C 
HETATM   31  C   UNL     1      44.059 -17.387   4.082  1.00  0.00     0.025 C 
HETATM   32  C   UNL     1      41.596 -17.795   4.166  1.00  0.00     0.025 C 
ENDBRANCH   4  29
TORSDOF 5
ENDMDL
MODEL 10
REMARK VINA RESULT:      -8.4      1.660      5.667
REMARK  5 active torsions:
REMARK  status: ('A' for Active; 'I' for Inactive)
REMARK    1  A    between atoms: C_4  and  N_5 
REMARK       I    between atoms: C_6  and  N_7 
REMARK       I    between atoms: C_6  and  N_14 
REMARK       I    between atoms: N_7  and  C_8 
REMARK    2  A    between atoms: C_8  and  C_9 
REMARK    3  A    between atoms: N_14  and  C_15 
REMARK    4  A    between atoms: C_15  and  C_16 
REMARK    5  A    between atoms: C_16  and  C_17 
ROOT
HETATM    1  N   UNL     1      41.103 -13.571   1.639  1.00  0.00     0.130 NA
HETATM    2  C   UNL     1      41.358 -14.668   1.011  1.00  0.00     0.718 C 
HETATM    3  N   UNL     1      41.165 -14.705  -0.359  1.00  0.00    -0.157 N 
HETATM    4  C   UNL     1      40.746 -13.687  -1.217  1.00  0.00     0.243 C 
HETATM    5  O   UNL     1      40.574 -12.514  -0.901  1.00  0.00    -0.272 OA
HETATM    6  N   UNL     1      41.794 -15.834   1.593  1.00  0.00    -0.223 N 
HETATM    7  H   UNL     1      41.299 -15.609  -0.771  1.00  0.00     0.187 HD
HETATM    8  H   UNL     1      42.121 -15.646   2.545  1.00  0.00     0.177 HD
ENDROOT
BRANCH   1   9
HETATM    9  C   UNL     1      41.248 -13.450   3.015  1.00  0.00     0.764 A 
HETATM   10  N   UNL     1      40.178 -13.095   3.758  1.00  0.00    -0.065 NA
HETATM   11  C   UNL     1      40.367 -13.028   5.091  1.00  0.00     0.051 A 
HETATM   12  C   UNL     1      39.186 -12.654   5.934  1.00  0.00     0.071 C 
HETATM   13  C   UNL     1      41.588 -13.287   5.680  1.00  0.00     0.054 A 
HETATM   14  C   UNL     1      42.624 -13.632   4.835  1.00  0.00     0.051 A 
HETATM   15  N   UNL     1      42.467 -13.719   3.501  1.00  0.00    -0.065 NA
HETATM   16  C   UNL     1      43.986 -13.926   5.385  1.00  0.00     0.071 C 
ENDBRANCH   1   9
BRANCH   6  17
HETATM   17  C   UNL     1      42.486 -16.935   0.948  1.00  0.00     0.142 C 
BRANCH  17  18
HETATM   18  C   UNL     1      41.939 -18.275   1.454  1.00  0.00     0.061 C 
BRANCH  18  19
HETATM   19  C   UNL     1      42.942 -19.028   2.267  1.00  0.00    -0.029 A 
HETATM   20  C   UNL     1      43.418 -18.676   3.571  1.00  0.00    -0.002 A 
HETATM   21  C   UNL     1      44.347 -19.643   3.954  1.00  0.00     0.042 A 
HETATM   22  C   UNL     1      43.146 -17.616   4.462  1.00  0.00     0.014 A 
HETATM   23  C   UNL     1      45.020 -19.605   5.181  1.00  0.00     0.030 A 
HETATM   24  N   UNL     1      44.433 -20.551   2.924  1.00  0.00    -0.365 N 
HETATM   25  C   UNL     1      44.734 -18.544   6.044  1.00  0.00     0.002 A 
HETATM   26  C   UNL     1      43.810 -17.562   5.693  1.00  0.00     0.001 A 
HETATM   27  H   UNL     1      45.037 -21.360   2.924  1.00  0.00     0.165 HD
HETATM   28  C   UNL     1      43.591 -20.193   1.905  1.00  0.00     0.096 A 
ENDBRANCH  18  19
ENDBRANCH  17  18
ENDBRANCH   6  17
BRANCH   4  29
HETATM   29  C   UNL     1      40.578 -14.149  -2.685  1.00  0.00     0.031 C 
HETATM   30  C   UNL     1      41.023 -15.610  -2.852  1.00  0.00     0.025 C 
HETATM   31  C   UNL     1      39.093 -14.049  -3.085  1.00  0.00     0.025 C 
HETATM   32  C   UNL     1      41.396 -13.236  -3.610  1.00  0.00     0.025 C 
ENDBRANCH   4  29
TORSDOF 5
ENDMDL
