MODEL 1
REMARK VINA RESULT:      -8.6      0.000      0.000
REMARK  2 active torsions:
REMARK  status: ('A' for Active; 'I' for Inactive)
REMARK    1  A    between atoms: C_3  and  C_4 
REMARK       I    between atoms: C_4  and  N_5 
REMARK    2  A    between atoms: N_5  and  N_6 
ROOT
HETATM    1  N   UNL     1      40.793 -16.734   2.530  1.00  0.00    -0.282 N 
HETATM    2  C   UNL     1      40.651 -15.543   3.103  1.00  0.00     0.127 C 
HETATM    3  C   UNL     1      39.745 -14.545   2.480  1.00  0.00     0.015 A 
HETATM    4  C   UNL     1      39.924 -13.182   2.788  1.00  0.00    -0.042 A 
HETATM    5  C   UNL     1      39.119 -12.204   2.189  1.00  0.00     0.008 A 
HETATM    6  C   UNL     1      38.103 -12.579   1.314  1.00  0.00     0.001 A 
HETATM    7  C   UNL     1      37.886 -13.925   1.035  1.00  0.00     0.001 A 
HETATM    8  C   UNL     1      38.698 -14.903   1.613  1.00  0.00     0.016 A 
HETATM    9  C   UNL     1      41.018 -12.789   3.747  1.00  0.00     0.069 C 
HETATM   10  C   UNL     1      41.221 -13.863   4.836  1.00  0.00     0.028 C 
HETATM   11  C   UNL     1      42.544 -13.609   5.568  1.00  0.00     0.038 C 
HETATM   12  C   UNL     1      40.072 -13.898   5.849  1.00  0.00     0.038 C 
HETATM   13  N   UNL     1      41.319 -15.208   4.205  1.00  0.00    -0.366 N 
HETATM   14  H   UNL     1      41.950 -15.883   4.605  1.00  0.00     0.162 HD
HETATM   15  H   UNL     1      40.355 -16.864   1.609  1.00  0.00     0.188 HD
ENDROOT
BRANCH   1  16
HETATM   16  N   UNL     1      41.487 -17.778   2.973  1.00  0.00    -0.264 N 
HETATM   17  C   UNL     1      42.604 -18.110   2.220  1.00  0.00     0.270 C 
HETATM   18  O   UNL     1      42.894 -17.472   1.210  1.00  0.00    -0.266 OA
HETATM   19  H   UNL     1      41.160 -18.374   3.724  1.00  0.00     0.190 HD
BRANCH  17  20
HETATM   20  C   UNL     1      43.378 -19.299   2.652  1.00  0.00     0.039 A 
HETATM   21  C   UNL     1      44.116 -19.359   3.851  1.00  0.00    -0.046 A 
HETATM   22  C   UNL     1      44.266 -18.204   4.801  1.00  0.00     0.049 C 
HETATM   23  C   UNL     1      44.770 -20.562   4.170  1.00  0.00     0.007 A 
HETATM   24  C   UNL     1      44.730 -21.655   3.302  1.00  0.00     0.001 A 
HETATM   25  C   UNL     1      44.037 -21.568   2.099  1.00  0.00     0.001 A 
HETATM   26  C   UNL     1      43.363 -20.393   1.773  1.00  0.00     0.017 A 
ENDBRANCH  17  20
ENDBRANCH   1  16
TORSDOF 2
ENDMDL
MODEL 2
REMARK VINA RESULT:      -8.6      2.127      2.742
REMARK  2 active torsions:
REMARK  status: ('A' for Active; 'I' for Inactive)
REMARK    1  A    between atoms: C_3  and  C_4 
REMARK       I    between atoms: C_4  and  N_5 
REMARK    2  A    between atoms: N_5  and  N_6 
ROOT
HETATM    1  N   UNL     1      42.280 -17.663   1.382  1.00  0.00    -0.282 N 
HETATM    2  C   UNL     1      41.935 -16.417   1.685  1.00  0.00     0.127 C 
HETATM    3  C   UNL     1      41.622 -15.465   0.588  1.00  0.00     0.015 A 
HETATM    4  C   UNL     1      41.704 -14.083   0.845  1.00  0.00    -0.042 A 
HETATM    5  C   UNL     1      41.460 -13.152  -0.173  1.00  0.00     0.008 A 
HETATM    6  C   UNL     1      41.089 -13.590  -1.441  1.00  0.00     0.001 A 
HETATM    7  C   UNL     1      40.962 -14.952  -1.698  1.00  0.00     0.001 A 
HETATM    8  C   UNL     1      41.223 -15.885  -0.693  1.00  0.00     0.016 A 
HETATM    9  C   UNL     1      42.093 -13.620   2.227  1.00  0.00     0.069 C 
HETATM   10  C   UNL     1      41.558 -14.580   3.310  1.00  0.00     0.028 C 
HETATM   11  C   UNL     1      42.252 -14.286   4.645  1.00  0.00     0.038 C 
HETATM   12  C   UNL     1      40.040 -14.481   3.486  1.00  0.00     0.038 C 
HETATM   13  N   UNL     1      41.888 -15.986   2.944  1.00  0.00    -0.366 N 
HETATM   14  H   UNL     1      42.127 -16.631   3.679  1.00  0.00     0.162 HD
HETATM   15  H   UNL     1      42.431 -17.877   0.387  1.00  0.00     0.188 HD
ENDROOT
BRANCH   1  16
HETATM   16  N   UNL     1      42.517 -18.673   2.214  1.00  0.00    -0.264 N 
HETATM   17  C   UNL     1      43.855 -18.995   2.390  1.00  0.00     0.270 C 
HETATM   18  O   UNL     1      44.734 -18.379   1.791  1.00  0.00    -0.266 OA
HETATM   19  H   UNL     1      41.779 -19.256   2.591  1.00  0.00     0.190 HD
BRANCH  17  20
HETATM   20  C   UNL     1      44.159 -20.148   3.272  1.00  0.00     0.039 A 
HETATM   21  C   UNL     1      44.299 -21.472   2.809  1.00  0.00    -0.046 A 
HETATM   22  C   UNL     1      44.089 -21.886   1.379  1.00  0.00     0.049 C 
HETATM   23  C   UNL     1      44.635 -22.470   3.740  1.00  0.00     0.007 A 
HETATM   24  C   UNL     1      44.780 -22.170   5.096  1.00  0.00     0.001 A 
HETATM   25  C   UNL     1      44.593 -20.868   5.548  1.00  0.00     0.001 A 
HETATM   26  C   UNL     1      44.282 -19.858   4.639  1.00  0.00     0.017 A 
ENDBRANCH  17  20
ENDBRANCH   1  16
TORSDOF 2
ENDMDL
MODEL 3
REMARK VINA RESULT:      -8.5      2.569      3.173
REMARK  2 active torsions:
REMARK  status: ('A' for Active; 'I' for Inactive)
REMARK    1  A    between atoms: C_3  and  C_4 
REMARK       I    between atoms: C_4  and  N_5 
REMARK    2  A    between atoms: N_5  and  N_6 
ROOT
HETATM    1  N   UNL     1      41.965 -16.912   0.396  1.00  0.00    -0.282 N 
HETATM    2  C   UNL     1      41.208 -15.820   0.385  1.00  0.00     0.127 C 
HETATM    3  C   UNL     1      40.948 -15.134  -0.906  1.00  0.00     0.015 A 
HETATM    4  C   UNL     1      40.557 -13.780  -0.888  1.00  0.00    -0.042 A 
HETATM    5  C   UNL     1      40.344 -13.084  -2.085  1.00  0.00     0.008 A 
HETATM    6  C   UNL     1      40.474 -13.741  -3.305  1.00  0.00     0.001 A 
HETATM    7  C   UNL     1      40.817 -15.090  -3.337  1.00  0.00     0.001 A 
HETATM    8  C   UNL     1      41.051 -15.784  -2.148  1.00  0.00     0.016 A 
HETATM    9  C   UNL     1      40.405 -13.083   0.440  1.00  0.00     0.069 C 
HETATM   10  C   UNL     1      39.894 -14.052   1.526  1.00  0.00     0.028 C 
HETATM   11  C   UNL     1      40.083 -13.419   2.910  1.00  0.00     0.038 C 
HETATM   12  C   UNL     1      38.422 -14.431   1.330  1.00  0.00     0.038 C 
HETATM   13  N   UNL     1      40.699 -15.305   1.503  1.00  0.00    -0.366 N 
HETATM   14  H   UNL     1      40.902 -15.762   2.376  1.00  0.00     0.162 HD
HETATM   15  H   UNL     1      42.435 -17.163  -0.483  1.00  0.00     0.188 HD
ENDROOT
BRANCH   1  16
HETATM   16  N   UNL     1      42.244 -17.704   1.428  1.00  0.00    -0.264 N 
HETATM   17  C   UNL     1      43.576 -17.721   1.818  1.00  0.00     0.270 C 
HETATM   18  O   UNL     1      44.415 -17.051   1.220  1.00  0.00    -0.266 OA
HETATM   19  H   UNL     1      41.571 -18.351   1.819  1.00  0.00     0.190 HD
BRANCH  17  20
HETATM   20  C   UNL     1      43.938 -18.629   2.933  1.00  0.00     0.039 A 
HETATM   21  C   UNL     1      43.870 -18.266   4.293  1.00  0.00    -0.046 A 
HETATM   22  C   UNL     1      43.488 -16.894   4.775  1.00  0.00     0.049 C 
HETATM   23  C   UNL     1      44.196 -19.234   5.258  1.00  0.00     0.007 A 
HETATM   24  C   UNL     1      44.623 -20.509   4.882  1.00  0.00     0.001 A 
HETATM   25  C   UNL     1      44.732 -20.841   3.535  1.00  0.00     0.001 A 
HETATM   26  C   UNL     1      44.392 -19.904   2.562  1.00  0.00     0.017 A 
ENDBRANCH  17  20
ENDBRANCH   1  16
TORSDOF 2
ENDMDL
MODEL 4
REMARK VINA RESULT:      -8.5      2.228      6.928
REMARK  2 active torsions:
REMARK  status: ('A' for Active; 'I' for Inactive)
REMARK    1  A    between atoms: C_3  and  C_4 
REMARK       I    between atoms: C_4  and  N_5 
REMARK    2  A    between atoms: N_5  and  N_6 
ROOT
HETATM    1  N   UNL     1      41.463 -17.710   1.459  1.00  0.00    -0.282 N 
HETATM    2  C   UNL     1      41.939 -17.573   2.692  1.00  0.00     0.127 C 
HETATM    3  C   UNL     1      42.966 -18.527   3.181  1.00  0.00     0.015 A 
HETATM    4  C   UNL     1      43.138 -18.685   4.570  1.00  0.00    -0.042 A 
HETATM    5  C   UNL     1      44.065 -19.607   5.073  1.00  0.00     0.008 A 
HETATM    6  C   UNL     1      44.858 -20.345   4.199  1.00  0.00     0.001 A 
HETATM    7  C   UNL     1      44.729 -20.168   2.824  1.00  0.00     0.001 A 
HETATM    8  C   UNL     1      43.793 -19.265   2.316  1.00  0.00     0.016 A 
HETATM    9  C   UNL     1      42.283 -17.871   5.508  1.00  0.00     0.069 C 
HETATM   10  C   UNL     1      41.975 -16.478   4.918  1.00  0.00     0.028 C 
HETATM   11  C   UNL     1      40.841 -15.822   5.714  1.00  0.00     0.038 C 
HETATM   12  C   UNL     1      43.200 -15.557   4.912  1.00  0.00     0.038 C 
HETATM   13  N   UNL     1      41.500 -16.621   3.513  1.00  0.00    -0.366 N 
HETATM   14  H   UNL     1      40.786 -15.994   3.181  1.00  0.00     0.162 HD
HETATM   15  H   UNL     1      41.746 -18.551   0.940  1.00  0.00     0.188 HD
ENDROOT
BRANCH   1  16
HETATM   16  N   UNL     1      40.609 -16.917   0.818  1.00  0.00    -0.264 N 
HETATM   17  C   UNL     1      41.146 -15.730   0.341  1.00  0.00     0.270 C 
HETATM   18  O   UNL     1      42.330 -15.455   0.528  1.00  0.00    -0.266 OA
HETATM   19  H   UNL     1      39.612 -17.093   0.792  1.00  0.00     0.190 HD
BRANCH  17  20
HETATM   20  C   UNL     1      40.216 -14.794  -0.336  1.00  0.00     0.039 A 
HETATM   21  C   UNL     1      40.118 -14.664  -1.736  1.00  0.00    -0.046 A 
HETATM   22  C   UNL     1      40.991 -15.406  -2.710  1.00  0.00     0.049 C 
HETATM   23  C   UNL     1      39.162 -13.774  -2.257  1.00  0.00     0.007 A 
HETATM   24  C   UNL     1      38.362 -13.003  -1.411  1.00  0.00     0.001 A 
HETATM   25  C   UNL     1      38.501 -13.105  -0.031  1.00  0.00     0.001 A 
HETATM   26  C   UNL     1      39.426 -13.998   0.507  1.00  0.00     0.017 A 
ENDBRANCH  17  20
ENDBRANCH   1  16
TORSDOF 2
ENDMDL
MODEL 5
REMARK VINA RESULT:      -8.4      1.503      2.785
REMARK  2 active torsions:
REMARK  status: ('A' for Active; 'I' for Inactive)
REMARK    1  A    between atoms: C_3  and  C_4 
REMARK       I    between atoms: C_4  and  N_5 
REMARK    2  A    between atoms: N_5  and  N_6 
ROOT
HETATM    1  N   UNL     1      40.814 -16.405   4.354  1.00  0.00    -0.282 N 
HETATM    2  C   UNL     1      40.674 -15.336   3.577  1.00  0.00     0.127 C 
HETATM    3  C   UNL     1      40.113 -14.089   4.157  1.00  0.00     0.015 A 
HETATM    4  C   UNL     1      39.545 -13.134   3.290  1.00  0.00    -0.042 A 
HETATM    5  C   UNL     1      38.967 -11.965   3.800  1.00  0.00     0.008 A 
HETATM    6  C   UNL     1      38.989 -11.716   5.169  1.00  0.00     0.001 A 
HETATM    7  C   UNL     1      39.585 -12.630   6.033  1.00  0.00     0.001 A 
HETATM    8  C   UNL     1      40.146 -13.808   5.533  1.00  0.00     0.016 A 
HETATM    9  C   UNL     1      39.540 -13.407   1.808  1.00  0.00     0.069 C 
HETATM   10  C   UNL     1      40.796 -14.194   1.378  1.00  0.00     0.028 C 
HETATM   11  C   UNL     1      40.595 -14.751  -0.036  1.00  0.00     0.038 C 
HETATM   12  C   UNL     1      42.067 -13.340   1.419  1.00  0.00     0.038 C 
HETATM   13  N   UNL     1      40.995 -15.359   2.285  1.00  0.00    -0.366 N 
HETATM   14  H   UNL     1      41.350 -16.216   1.895  1.00  0.00     0.162 HD
HETATM   15  H   UNL     1      40.414 -16.350   5.299  1.00  0.00     0.188 HD
ENDROOT
BRANCH   1  16
HETATM   16  N   UNL     1      41.365 -17.575   4.045  1.00  0.00    -0.264 N 
HETATM   17  C   UNL     1      42.750 -17.574   3.960  1.00  0.00     0.270 C 
HETATM   18  O   UNL     1      43.391 -16.542   4.148  1.00  0.00    -0.266 OA
HETATM   19  H   UNL     1      40.818 -18.379   3.759  1.00  0.00     0.190 HD
BRANCH  17  20
HETATM   20  C   UNL     1      43.401 -18.848   3.568  1.00  0.00     0.039 A 
HETATM   21  C   UNL     1      44.303 -19.551   4.391  1.00  0.00    -0.046 A 
HETATM   22  C   UNL     1      44.768 -19.061   5.734  1.00  0.00     0.049 C 
HETATM   23  C   UNL     1      44.817 -20.773   3.923  1.00  0.00     0.007 A 
HETATM   24  C   UNL     1      44.481 -21.258   2.657  1.00  0.00     0.001 A 
HETATM   25  C   UNL     1      43.626 -20.531   1.835  1.00  0.00     0.001 A 
HETATM   26  C   UNL     1      43.087 -19.328   2.287  1.00  0.00     0.017 A 
ENDBRANCH  17  20
ENDBRANCH   1  16
TORSDOF 2
ENDMDL
MODEL 6
REMARK VINA RESULT:      -8.4      3.552      7.767
REMARK  2 active torsions:
REMARK  status: ('A' for Active; 'I' for Inactive)
REMARK    1  A    between atoms: C_3  and  C_4 
REMARK       I    between atoms: C_4  and  N_5 
REMARK    2  A    between atoms: N_5  and  N_6 
ROOT
HETATM    1  N   UNL     1      44.022 -15.735   6.890  1.00  0.00    -0.282 N 
HETATM    2  C   UNL     1      43.495 -15.829   5.673  1.00  0.00     0.127 C 
HETATM    3  C   UNL     1      43.717 -17.066   4.882  1.00  0.00     0.015 A 
HETATM    4  C   UNL     1      43.574 -17.009   3.481  1.00  0.00    -0.042 A 
HETATM    5  C   UNL     1      43.817 -18.142   2.694  1.00  0.00     0.008 A 
HETATM    6  C   UNL     1      44.160 -19.349   3.297  1.00  0.00     0.001 A 
HETATM    7  C   UNL     1      44.263 -19.430   4.683  1.00  0.00     0.001 A 
HETATM    8  C   UNL     1      44.041 -18.299   5.472  1.00  0.00     0.016 A 
HETATM    9  C   UNL     1      43.188 -15.701   2.840  1.00  0.00     0.069 C 
HETATM   10  C   UNL     1      42.242 -14.889   3.750  1.00  0.00     0.028 C 
HETATM   11  C   UNL     1      42.152 -13.446   3.240  1.00  0.00     0.038 C 
HETATM   12  C   UNL     1      40.837 -15.495   3.828  1.00  0.00     0.038 C 
HETATM   13  N   UNL     1      42.796 -14.833   5.131  1.00  0.00    -0.366 N 
HETATM   14  H   UNL     1      42.673 -13.989   5.665  1.00  0.00     0.162 HD
HETATM   15  H   UNL     1      44.663 -16.485   7.179  1.00  0.00     0.188 HD
ENDROOT
BRANCH   1  16
HETATM   16  N   UNL     1      43.870 -14.754   7.775  1.00  0.00    -0.264 N 
HETATM   17  C   UNL     1      44.699 -13.657   7.590  1.00  0.00     0.270 C 
HETATM   18  O   UNL     1      45.516 -13.633   6.672  1.00  0.00    -0.266 OA
HETATM   19  H   UNL     1      43.293 -14.848   8.602  1.00  0.00     0.190 HD
BRANCH  17  20
HETATM   20  C   UNL     1      44.596 -12.562   8.585  1.00  0.00     0.039 A 
HETATM   21  C   UNL     1      43.554 -11.613   8.600  1.00  0.00    -0.046 A 
HETATM   22  C   UNL     1      42.460 -11.554   7.570  1.00  0.00     0.049 C 
HETATM   23  C   UNL     1      43.544 -10.651   9.625  1.00  0.00     0.007 A 
HETATM   24  C   UNL     1      44.565 -10.604  10.578  1.00  0.00     0.001 A 
HETATM   25  C   UNL     1      45.613 -11.517  10.524  1.00  0.00     0.001 A 
HETATM   26  C   UNL     1      45.631 -12.493   9.530  1.00  0.00     0.017 A 
ENDBRANCH  17  20
ENDBRANCH   1  16
TORSDOF 2
ENDMDL
MODEL 7
REMARK VINA RESULT:      -8.4      1.692      7.386
REMARK  2 active torsions:
REMARK  status: ('A' for Active; 'I' for Inactive)
REMARK    1  A    between atoms: C_3  and  C_4 
REMARK       I    between atoms: C_4  and  N_5 
REMARK    2  A    between atoms: N_5  and  N_6 
ROOT
HETATM    1  N   UNL     1      41.537 -17.475   4.033  1.00  0.00    -0.282 N 
HETATM    2  C   UNL     1      42.562 -18.066   4.636  1.00  0.00     0.127 C 
HETATM    3  C   UNL     1      43.284 -19.157   3.933  1.00  0.00     0.015 A 
HETATM    4  C   UNL     1      44.038 -20.072   4.693  1.00  0.00    -0.042 A 
HETATM    5  C   UNL     1      44.698 -21.141   4.073  1.00  0.00     0.008 A 
HETATM    6  C   UNL     1      44.650 -21.280   2.688  1.00  0.00     0.001 A 
HETATM    7  C   UNL     1      43.945 -20.358   1.920  1.00  0.00     0.001 A 
HETATM    8  C   UNL     1      43.268 -19.302   2.535  1.00  0.00     0.016 A 
HETATM    9  C   UNL     1      44.095 -19.904   6.190  1.00  0.00     0.069 C 
HETATM   10  C   UNL     1      44.055 -18.413   6.588  1.00  0.00     0.028 C 
HETATM   11  C   UNL     1      43.764 -18.289   8.088  1.00  0.00     0.038 C 
HETATM   12  C   UNL     1      45.358 -17.680   6.254  1.00  0.00     0.038 C 
HETATM   13  N   UNL     1      42.945 -17.729   5.867  1.00  0.00    -0.366 N 
HETATM   14  H   UNL     1      42.434 -17.007   6.346  1.00  0.00     0.162 HD
HETATM   15  H   UNL     1      41.216 -17.886   3.148  1.00  0.00     0.188 HD
ENDROOT
BRANCH   1  16
HETATM   16  N   UNL     1      40.823 -16.437   4.461  1.00  0.00    -0.264 N 
HETATM   17  C   UNL     1      41.146 -15.218   3.884  1.00  0.00     0.270 C 
HETATM   18  O   UNL     1      42.044 -15.135   3.049  1.00  0.00    -0.266 OA
HETATM   19  H   UNL     1      40.185 -16.498   5.245  1.00  0.00     0.190 HD
BRANCH  17  20
HETATM   20  C   UNL     1      40.407 -14.027   4.370  1.00  0.00     0.039 A 
HETATM   21  C   UNL     1      39.715 -13.136   3.524  1.00  0.00    -0.046 A 
HETATM   22  C   UNL     1      39.698 -13.247   2.025  1.00  0.00     0.049 C 
HETATM   23  C   UNL     1      39.014 -12.070   4.112  1.00  0.00     0.007 A 
HETATM   24  C   UNL     1      39.040 -11.866   5.494  1.00  0.00     0.001 A 
HETATM   25  C   UNL     1      39.766 -12.724   6.313  1.00  0.00     0.001 A 
HETATM   26  C   UNL     1      40.449 -13.802   5.754  1.00  0.00     0.017 A 
ENDBRANCH  17  20
ENDBRANCH   1  16
TORSDOF 2
ENDMDL
MODEL 8
REMARK VINA RESULT:      -8.4      2.131      7.157
REMARK  2 active torsions:
REMARK  status: ('A' for Active; 'I' for Inactive)
REMARK    1  A    between atoms: C_3  and  C_4 
REMARK       I    between atoms: C_4  and  N_5 
REMARK    2  A    between atoms: N_5  and  N_6 
ROOT
HETATM    1  N   UNL     1      42.604 -18.231   3.188  1.00  0.00    -0.282 N 
HETATM    2  C   UNL     1      43.233 -18.616   4.294  1.00  0.00     0.127 C 
HETATM    3  C   UNL     1      43.838 -19.971   4.346  1.00  0.00     0.015 A 
HETATM    4  C   UNL     1      44.090 -20.553   5.605  1.00  0.00    -0.042 A 
HETATM    5  C   UNL     1      44.620 -21.846   5.698  1.00  0.00     0.008 A 
HETATM    6  C   UNL     1      44.945 -22.551   4.543  1.00  0.00     0.001 A 
HETATM    7  C   UNL     1      44.742 -21.972   3.294  1.00  0.00     0.001 A 
HETATM    8  C   UNL     1      44.195 -20.691   3.193  1.00  0.00     0.016 A 
HETATM    9  C   UNL     1      43.748 -19.774   6.849  1.00  0.00     0.069 C 
HETATM   10  C   UNL     1      43.959 -18.260   6.639  1.00  0.00     0.028 C 
HETATM   11  C   UNL     1      43.283 -17.484   7.775  1.00  0.00     0.038 C 
HETATM   12  C   UNL     1      45.441 -17.878   6.565  1.00  0.00     0.038 C 
HETATM   13  N   UNL     1      43.310 -17.833   5.368  1.00  0.00    -0.366 N 
HETATM   14  H   UNL     1      42.874 -16.927   5.332  1.00  0.00     0.162 HD
HETATM   15  H   UNL     1      42.465 -18.942   2.459  1.00  0.00     0.188 HD
ENDROOT
BRANCH   1  16
HETATM   16  N   UNL     1      42.073 -17.041   2.920  1.00  0.00    -0.264 N 
HETATM   17  C   UNL     1      42.708 -16.321   1.919  1.00  0.00     0.270 C 
HETATM   18  O   UNL     1      43.700 -16.774   1.350  1.00  0.00    -0.266 OA
HETATM   19  H   UNL     1      41.345 -16.626   3.489  1.00  0.00     0.190 HD
BRANCH  17  20
HETATM   20  C   UNL     1      42.178 -14.967   1.624  1.00  0.00     0.039 A 
HETATM   21  C   UNL     1      42.546 -13.810   2.340  1.00  0.00    -0.046 A 
HETATM   22  C   UNL     1      43.464 -13.817   3.530  1.00  0.00     0.049 C 
HETATM   23  C   UNL     1      42.008 -12.577   1.932  1.00  0.00     0.007 A 
HETATM   24  C   UNL     1      41.097 -12.503   0.876  1.00  0.00     0.001 A 
HETATM   25  C   UNL     1      40.706 -13.659   0.208  1.00  0.00     0.001 A 
HETATM   26  C   UNL     1      41.243 -14.889   0.581  1.00  0.00     0.017 A 
ENDBRANCH  17  20
ENDBRANCH   1  16
TORSDOF 2
ENDMDL
MODEL 9
REMARK VINA RESULT:      -8.3      1.658      7.159
REMARK  2 active torsions:
REMARK  status: ('A' for Active; 'I' for Inactive)
REMARK    1  A    between atoms: C_3  and  C_4 
REMARK       I    between atoms: C_4  and  N_5 
REMARK    2  A    between atoms: N_5  and  N_6 
ROOT
HETATM    1  N   UNL     1      41.475 -17.313   3.699  1.00  0.00    -0.282 N 
HETATM    2  C   UNL     1      42.422 -17.730   4.533  1.00  0.00     0.127 C 
HETATM    3  C   UNL     1      43.270 -18.885   4.144  1.00  0.00     0.015 A 
HETATM    4  C   UNL     1      43.936 -19.608   5.154  1.00  0.00    -0.042 A 
HETATM    5  C   UNL     1      44.711 -20.730   4.834  1.00  0.00     0.008 A 
HETATM    6  C   UNL     1      44.865 -21.114   3.505  1.00  0.00     0.001 A 
HETATM    7  C   UNL     1      44.249 -20.383   2.493  1.00  0.00     0.001 A 
HETATM    8  C   UNL     1      43.459 -19.275   2.807  1.00  0.00     0.016 A 
HETATM    9  C   UNL     1      43.773 -19.174   6.589  1.00  0.00     0.069 C 
HETATM   10  C   UNL     1      43.630 -17.642   6.698  1.00  0.00     0.028 C 
HETATM   11  C   UNL     1      43.123 -17.271   8.097  1.00  0.00     0.038 C 
HETATM   12  C   UNL     1      44.944 -16.907   6.415  1.00  0.00     0.038 C 
HETATM   13  N   UNL     1      42.614 -17.160   5.721  1.00  0.00    -0.366 N 
HETATM   14  H   UNL     1      42.017 -16.394   5.986  1.00  0.00     0.162 HD
HETATM   15  H   UNL     1      41.297 -17.891   2.868  1.00  0.00     0.188 HD
ENDROOT
BRANCH   1  16
HETATM   16  N   UNL     1      40.676 -16.258   3.830  1.00  0.00    -0.264 N 
HETATM   17  C   UNL     1      41.069 -15.126   3.130  1.00  0.00     0.270 C 
HETATM   18  O   UNL     1      42.099 -15.128   2.459  1.00  0.00    -0.266 OA
HETATM   19  H   UNL     1      39.910 -16.230   4.492  1.00  0.00     0.190 HD
BRANCH  17  20
HETATM   20  C   UNL     1      40.232 -13.912   3.289  1.00  0.00     0.039 A 
HETATM   21  C   UNL     1      40.238 -13.103   4.443  1.00  0.00    -0.046 A 
HETATM   22  C   UNL     1      41.039 -13.411   5.678  1.00  0.00     0.049 C 
HETATM   23  C   UNL     1      39.433 -11.951   4.452  1.00  0.00     0.007 A 
HETATM   24  C   UNL     1      38.612 -11.638   3.366  1.00  0.00     0.001 A 
HETATM   25  C   UNL     1      38.579 -12.470   2.252  1.00  0.00     0.001 A 
HETATM   26  C   UNL     1      39.387 -13.605   2.212  1.00  0.00     0.017 A 
ENDBRANCH  17  20
ENDBRANCH   1  16
TORSDOF 2
ENDMDL
MODEL 10
REMARK VINA RESULT:      -8.2      2.514      4.319
REMARK  2 active torsions:
REMARK  status: ('A' for Active; 'I' for Inactive)
REMARK    1  A    between atoms: C_3  and  C_4 
REMARK       I    between atoms: C_4  and  N_5 
REMARK    2  A    between atoms: N_5  and  N_6 
ROOT
HETATM    1  N   UNL     1      39.107 -15.427   1.586  1.00  0.00    -0.282 N 
HETATM    2  C   UNL     1      39.276 -14.786   0.434  1.00  0.00     0.127 C 
HETATM    3  C   UNL     1      38.380 -13.649   0.101  1.00  0.00     0.015 A 
HETATM    4  C   UNL     1      38.239 -13.269  -1.248  1.00  0.00    -0.042 A 
HETATM    5  C   UNL     1      37.371 -12.231  -1.609  1.00  0.00     0.008 A 
HETATM    6  C   UNL     1      36.671 -11.535  -0.627  1.00  0.00     0.001 A 
HETATM    7  C   UNL     1      36.833 -11.871   0.714  1.00  0.00     0.001 A 
HETATM    8  C   UNL     1      37.682 -12.918   1.079  1.00  0.00     0.016 A 
HETATM    9  C   UNL     1      39.013 -14.020  -2.301  1.00  0.00     0.069 C 
HETATM   10  C   UNL     1      40.384 -14.485  -1.765  1.00  0.00     0.028 C 
HETATM   11  C   UNL     1      40.984 -15.524  -2.719  1.00  0.00     0.038 C 
HETATM   12  C   UNL     1      41.368 -13.325  -1.583  1.00  0.00     0.038 C 
HETATM   13  N   UNL     1      40.209 -15.150  -0.444  1.00  0.00    -0.366 N 
HETATM   14  H   UNL     1      40.794 -15.938  -0.221  1.00  0.00     0.162 HD
HETATM   15  H   UNL     1      38.280 -15.178   2.142  1.00  0.00     0.188 HD
ENDROOT
BRANCH   1  16
HETATM   16  N   UNL     1      39.850 -16.407   2.094  1.00  0.00    -0.264 N 
HETATM   17  C   UNL     1      41.042 -16.003   2.679  1.00  0.00     0.270 C 
HETATM   18  O   UNL     1      41.365 -14.817   2.695  1.00  0.00    -0.266 OA
HETATM   19  H   UNL     1      39.637 -17.386   1.951  1.00  0.00     0.190 HD
BRANCH  17  20
HETATM   20  C   UNL     1      41.924 -17.069   3.213  1.00  0.00     0.039 A 
HETATM   21  C   UNL     1      42.940 -17.694   2.462  1.00  0.00    -0.046 A 
HETATM   22  C   UNL     1      43.206 -17.406   1.011  1.00  0.00     0.049 C 
HETATM   23  C   UNL     1      43.739 -18.659   3.098  1.00  0.00     0.007 A 
HETATM   24  C   UNL     1      43.507 -19.025   4.426  1.00  0.00     0.001 A 
HETATM   25  C   UNL     1      42.471 -18.435   5.142  1.00  0.00     0.001 A 
HETATM   26  C   UNL     1      41.680 -17.460   4.539  1.00  0.00     0.017 A 
ENDBRANCH  17  20
ENDBRANCH   1  16
TORSDOF 2
ENDMDL
