MODEL 1
REMARK VINA RESULT:      -7.8      0.000      0.000
REMARK  6 active torsions:
REMARK  status: ('A' for Active; 'I' for Inactive)
REMARK    1  A    between atoms: C_9  and  C_10 
REMARK       I    between atoms: C_10  and  N_11 
REMARK    2  A    between atoms: N_11  and  C_12 
REMARK    3  A    between atoms: C_12  and  C_13 
REMARK    4  A    between atoms: C_13  and  O_14 
REMARK    5  A    between atoms: C_13  and  C_15 
REMARK    6  A    between atoms: C_18  and  O_19 
ROOT
HETATM    1  C   UNL     1      43.123 -17.392   6.390  1.00  0.00     0.258 C 
HETATM    2  N   UNL     1      43.602 -16.240   5.807  1.00  0.00    -0.350 N 
HETATM    3  O   UNL     1      42.404 -17.379   7.383  1.00  0.00    -0.267 OA
HETATM    4  H   UNL     1      44.282 -16.340   5.054  1.00  0.00     0.163 HD
ENDROOT
BRANCH   2   5
HETATM    5  C   UNL     1      43.368 -14.914   6.381  1.00  0.00     0.114 C 
HETATM    6  C   UNL     1      44.603 -14.039   6.148  1.00  0.00     0.035 C 
BRANCH   5   7
HETATM    7  C   UNL     1      42.055 -14.303   5.814  1.00  0.00     0.173 C 
BRANCH   7   8
HETATM    8  O   UNL     1      40.914 -14.713   6.573  1.00  0.00    -0.389 OA
HETATM    9  H   UNL     1      40.138 -14.597   5.997  1.00  0.00     0.210 HD
ENDBRANCH   7   8
BRANCH   7  10
HETATM   10  C   UNL     1      41.851 -14.590   4.337  1.00  0.00    -0.028 A 
HETATM   11  C   UNL     1      40.932 -15.574   3.945  1.00  0.00     0.012 A 
HETATM   12  C   UNL     1      40.702 -15.832   2.592  1.00  0.00     0.037 A 
HETATM   13  C   UNL     1      41.370 -15.108   1.604  1.00  0.00     0.068 A 
HETATM   14  C   UNL     1      42.292 -14.133   1.983  1.00  0.00     0.037 A 
HETATM   15  C   UNL     1      42.532 -13.878   3.339  1.00  0.00     0.012 A 
BRANCH  13  16
HETATM   16  O   UNL     1      41.040 -15.451   0.322  1.00  0.00    -0.356 OA
HETATM   17  C   UNL     1      41.447 -14.557  -0.704  1.00  0.00     0.210 C 
ENDBRANCH  13  16
ENDBRANCH   7  10
ENDBRANCH   5   7
ENDBRANCH   2   5
BRANCH   1  18
HETATM   18  C   UNL     1      43.529 -18.632   5.746  1.00  0.00     0.105 A 
HETATM   19  C   UNL     1      43.709 -18.876   4.397  1.00  0.00     0.169 A 
HETATM   20  N   UNL     1      43.572 -18.065   3.298  1.00  0.00    -0.233 NA
HETATM   21  N   UNL     1      44.088 -20.221   4.286  1.00  0.00    -0.219 N 
HETATM   22  C   UNL     1      43.818 -18.606   2.142  1.00  0.00     0.035 A 
HETATM   23  C   UNL     1      43.668 -17.762   0.902  1.00  0.00     0.070 C 
HETATM   24  C   UNL     1      44.252 -20.023   1.932  1.00  0.00     0.053 A 
HETATM   25  C   UNL     1      44.360 -20.787   3.031  1.00  0.00     0.036 A 
HETATM   26  C   UNL     1      44.780 -22.225   2.963  1.00  0.00     0.070 C 
HETATM   27  N   UNL     1      44.152 -20.821   5.498  1.00  0.00    -0.170 NA
HETATM   28  C   UNL     1      43.827 -19.868   6.377  1.00  0.00     0.071 A 
HETATM   29  C   UNL     1      43.812 -20.177   7.830  1.00  0.00     0.073 C 
ENDBRANCH   1  18
TORSDOF 6
ENDMDL
MODEL 2
REMARK VINA RESULT:      -7.5      2.959      5.826
REMARK  6 active torsions:
REMARK  status: ('A' for Active; 'I' for Inactive)
REMARK    1  A    between atoms: C_9  and  C_10 
REMARK       I    between atoms: C_10  and  N_11 
REMARK    2  A    between atoms: N_11  and  C_12 
REMARK    3  A    between atoms: C_12  and  C_13 
REMARK    4  A    between atoms: C_13  and  O_14 
REMARK    5  A    between atoms: C_13  and  C_15 
REMARK    6  A    between atoms: C_18  and  O_19 
ROOT
HETATM    1  C   UNL     1      40.297 -15.001   2.252  1.00  0.00     0.258 C 
HETATM    2  N   UNL     1      41.225 -14.450   1.398  1.00  0.00    -0.350 N 
HETATM    3  O   UNL     1      39.094 -14.995   2.013  1.00  0.00    -0.267 OA
HETATM    4  H   UNL     1      42.191 -14.397   1.721  1.00  0.00     0.163 HD
ENDROOT
BRANCH   2   5
HETATM    5  C   UNL     1      40.842 -13.730   0.182  1.00  0.00     0.114 C 
HETATM    6  C   UNL     1      41.412 -12.310   0.238  1.00  0.00     0.035 C 
BRANCH   5   7
HETATM    7  C   UNL     1      41.279 -14.527  -1.080  1.00  0.00     0.173 C 
BRANCH   7   8
HETATM    8  O   UNL     1      42.387 -13.904  -1.736  1.00  0.00    -0.389 OA
HETATM    9  H   UNL     1      43.166 -14.460  -1.560  1.00  0.00     0.210 HD
ENDBRANCH   7   8
BRANCH   7  10
HETATM   10  C   UNL     1      40.143 -14.771  -2.057  1.00  0.00    -0.028 A 
HETATM   11  C   UNL     1      38.948 -14.051  -1.920  1.00  0.00     0.012 A 
HETATM   12  C   UNL     1      37.901 -14.233  -2.826  1.00  0.00     0.037 A 
HETATM   13  C   UNL     1      38.028 -15.124  -3.892  1.00  0.00     0.068 A 
HETATM   14  C   UNL     1      39.208 -15.852  -4.032  1.00  0.00     0.037 A 
HETATM   15  C   UNL     1      40.257 -15.678  -3.120  1.00  0.00     0.012 A 
BRANCH  13  16
HETATM   16  O   UNL     1      36.935 -15.194  -4.711  1.00  0.00    -0.356 OA
HETATM   17  C   UNL     1      36.046 -14.086  -4.688  1.00  0.00     0.210 C 
ENDBRANCH  13  16
ENDBRANCH   7  10
ENDBRANCH   5   7
ENDBRANCH   2   5
BRANCH   1  18
HETATM   18  C   UNL     1      40.840 -15.595   3.464  1.00  0.00     0.105 A 
HETATM   19  C   UNL     1      41.665 -16.700   3.580  1.00  0.00     0.169 A 
HETATM   20  N   UNL     1      42.205 -17.536   2.635  1.00  0.00    -0.233 NA
HETATM   21  N   UNL     1      41.899 -16.876   4.950  1.00  0.00    -0.219 N 
HETATM   22  C   UNL     1      42.954 -18.504   3.075  1.00  0.00     0.035 A 
HETATM   23  C   UNL     1      43.560 -19.459   2.079  1.00  0.00     0.070 C 
HETATM   24  C   UNL     1      43.278 -18.751   4.515  1.00  0.00     0.053 A 
HETATM   25  C   UNL     1      42.717 -17.919   5.408  1.00  0.00     0.036 A 
HETATM   26  C   UNL     1      42.954 -18.058   6.882  1.00  0.00     0.070 C 
HETATM   27  N   UNL     1      41.261 -15.937   5.689  1.00  0.00    -0.170 NA
HETATM   28  C   UNL     1      40.633 -15.162   4.799  1.00  0.00     0.071 A 
HETATM   29  C   UNL     1      39.835 -13.998   5.267  1.00  0.00     0.073 C 
ENDBRANCH   1  18
TORSDOF 6
ENDMDL
MODEL 3
REMARK VINA RESULT:      -7.4      3.939      8.568
REMARK  6 active torsions:
REMARK  status: ('A' for Active; 'I' for Inactive)
REMARK    1  A    between atoms: C_9  and  C_10 
REMARK       I    between atoms: C_10  and  N_11 
REMARK    2  A    between atoms: N_11  and  C_12 
REMARK    3  A    between atoms: C_12  and  C_13 
REMARK    4  A    between atoms: C_13  and  O_14 
REMARK    5  A    between atoms: C_13  and  C_15 
REMARK    6  A    between atoms: C_18  and  O_19 
ROOT
HETATM    1  C   UNL     1      41.266 -14.493  -0.150  1.00  0.00     0.258 C 
HETATM    2  N   UNL     1      42.181 -15.491   0.103  1.00  0.00    -0.350 N 
HETATM    3  O   UNL     1      40.372 -14.202   0.637  1.00  0.00    -0.267 OA
HETATM    4  H   UNL     1      42.821 -15.745  -0.649  1.00  0.00     0.163 HD
ENDROOT
BRANCH   2   5
HETATM    5  C   UNL     1      42.101 -16.346   1.289  1.00  0.00     0.114 C 
HETATM    6  C   UNL     1      41.058 -17.442   1.050  1.00  0.00     0.035 C 
BRANCH   5   7
HETATM    7  C   UNL     1      43.509 -16.895   1.655  1.00  0.00     0.173 C 
BRANCH   7   8
HETATM    8  O   UNL     1      44.059 -17.681   0.594  1.00  0.00    -0.389 OA
HETATM    9  H   UNL     1      43.306 -18.026   0.082  1.00  0.00     0.210 HD
ENDBRANCH   7   8
BRANCH   7  10
HETATM   10  C   UNL     1      43.528 -17.667   2.963  1.00  0.00    -0.028 A 
HETATM   11  C   UNL     1      44.054 -18.966   2.989  1.00  0.00     0.012 A 
HETATM   12  C   UNL     1      44.113 -19.684   4.186  1.00  0.00     0.037 A 
HETATM   13  C   UNL     1      43.664 -19.118   5.380  1.00  0.00     0.068 A 
HETATM   14  C   UNL     1      43.132 -17.830   5.362  1.00  0.00     0.037 A 
HETATM   15  C   UNL     1      43.062 -17.111   4.162  1.00  0.00     0.012 A 
BRANCH  13  16
HETATM   16  O   UNL     1      43.794 -19.922   6.478  1.00  0.00    -0.356 OA
HETATM   17  C   UNL     1      43.879 -19.273   7.740  1.00  0.00     0.210 C 
ENDBRANCH  13  16
ENDBRANCH   7  10
ENDBRANCH   5   7
ENDBRANCH   2   5
BRANCH   1  18
HETATM   18  C   UNL     1      41.431 -13.803  -1.420  1.00  0.00     0.105 A 
HETATM   19  C   UNL     1      41.943 -12.538  -1.645  1.00  0.00     0.169 A 
HETATM   20  N   UNL     1      42.433 -11.587  -0.786  1.00  0.00    -0.233 NA
HETATM   21  N   UNL     1      41.881 -12.328  -3.029  1.00  0.00    -0.219 N 
HETATM   22  C   UNL     1      42.846 -10.476  -1.321  1.00  0.00     0.035 A 
HETATM   23  C   UNL     1      43.380  -9.394  -0.419  1.00  0.00     0.070 C 
HETATM   24  C   UNL     1      42.842 -10.177  -2.787  1.00  0.00     0.053 A 
HETATM   25  C   UNL     1      42.340 -11.128  -3.593  1.00  0.00     0.036 A 
HETATM   26  C   UNL     1      42.272 -10.955  -5.081  1.00  0.00     0.070 C 
HETATM   27  N   UNL     1      41.359 -13.399  -3.673  1.00  0.00    -0.170 NA
HETATM   28  C   UNL     1      41.097 -14.289  -2.710  1.00  0.00     0.071 A 
HETATM   29  C   UNL     1      40.521 -15.612  -3.065  1.00  0.00     0.073 C 
ENDBRANCH   1  18
TORSDOF 6
ENDMDL
MODEL 4
REMARK VINA RESULT:      -7.2      2.957      7.305
REMARK  6 active torsions:
REMARK  status: ('A' for Active; 'I' for Inactive)
REMARK    1  A    between atoms: C_9  and  C_10 
REMARK       I    between atoms: C_10  and  N_11 
REMARK    2  A    between atoms: N_11  and  C_12 
REMARK    3  A    between atoms: C_12  and  C_13 
REMARK    4  A    between atoms: C_13  and  O_14 
REMARK    5  A    between atoms: C_13  and  C_15 
REMARK    6  A    between atoms: C_18  and  O_19 
ROOT
HETATM    1  C   UNL     1      41.849 -15.806   4.321  1.00  0.00     0.258 C 
HETATM    2  N   UNL     1      42.117 -15.892   2.973  1.00  0.00    -0.350 N 
HETATM    3  O   UNL     1      41.606 -16.791   5.010  1.00  0.00    -0.267 OA
HETATM    4  H   UNL     1      42.198 -15.020   2.451  1.00  0.00     0.163 HD
ENDROOT
BRANCH   2   5
HETATM    5  C   UNL     1      42.041 -17.155   2.237  1.00  0.00     0.114 C 
HETATM    6  C   UNL     1      41.061 -17.000   1.071  1.00  0.00     0.035 C 
BRANCH   5   7
HETATM    7  C   UNL     1      43.462 -17.614   1.800  1.00  0.00     0.173 C 
BRANCH   7   8
HETATM    8  O   UNL     1      43.623 -17.540   0.380  1.00  0.00    -0.389 OA
HETATM    9  H   UNL     1      42.762 -17.770  -0.011  1.00  0.00     0.210 HD
ENDBRANCH   7   8
BRANCH   7  10
HETATM   10  C   UNL     1      43.828 -18.995   2.313  1.00  0.00    -0.028 A 
HETATM   11  C   UNL     1      44.364 -19.134   3.600  1.00  0.00     0.012 A 
HETATM   12  C   UNL     1      44.677 -20.397   4.107  1.00  0.00     0.037 A 
HETATM   13  C   UNL     1      44.451 -21.546   3.348  1.00  0.00     0.068 A 
HETATM   14  C   UNL     1      43.926 -21.418   2.063  1.00  0.00     0.037 A 
HETATM   15  C   UNL     1      43.620 -20.152   1.549  1.00  0.00     0.012 A 
BRANCH  13  16
HETATM   16  O   UNL     1      44.787 -22.717   3.970  1.00  0.00    -0.356 OA
HETATM   17  C   UNL     1      45.175 -22.629   5.334  1.00  0.00     0.210 C 
ENDBRANCH  13  16
ENDBRANCH   7  10
ENDBRANCH   5   7
ENDBRANCH   2   5
BRANCH   1  18
HETATM   18  C   UNL     1      41.874 -14.462   4.877  1.00  0.00     0.105 A 
HETATM   19  C   UNL     1      41.082 -13.380   4.536  1.00  0.00     0.169 A 
HETATM   20  N   UNL     1      40.074 -13.243   3.614  1.00  0.00    -0.233 NA
HETATM   21  N   UNL     1      41.499 -12.315   5.345  1.00  0.00    -0.219 N 
HETATM   22  C   UNL     1      39.515 -12.072   3.532  1.00  0.00     0.035 A 
HETATM   23  C   UNL     1      38.413 -11.866   2.526  1.00  0.00     0.070 C 
HETATM   24  C   UNL     1      39.878 -10.889   4.373  1.00  0.00     0.053 A 
HETATM   25  C   UNL     1      40.879 -11.059   5.251  1.00  0.00     0.036 A 
HETATM   26  C   UNL     1      41.346  -9.954   6.151  1.00  0.00     0.070 C 
HETATM   27  N   UNL     1      42.507 -12.682   6.171  1.00  0.00    -0.170 NA
HETATM   28  C   UNL     1      42.728 -13.972   5.899  1.00  0.00     0.071 A 
HETATM   29  C   UNL     1      43.775 -14.716   6.646  1.00  0.00     0.073 C 
ENDBRANCH   1  18
TORSDOF 6
ENDMDL
MODEL 5
REMARK VINA RESULT:      -7.0      2.780      5.695
REMARK  6 active torsions:
REMARK  status: ('A' for Active; 'I' for Inactive)
REMARK    1  A    between atoms: C_9  and  C_10 
REMARK       I    between atoms: C_10  and  N_11 
REMARK    2  A    between atoms: N_11  and  C_12 
REMARK    3  A    between atoms: C_12  and  C_13 
REMARK    4  A    between atoms: C_13  and  O_14 
REMARK    5  A    between atoms: C_13  and  C_15 
REMARK    6  A    between atoms: C_18  and  O_19 
ROOT
HETATM    1  C   UNL     1      41.579 -16.237   1.939  1.00  0.00     0.258 C 
HETATM    2  N   UNL     1      41.991 -15.010   1.468  1.00  0.00    -0.350 N 
HETATM    3  O   UNL     1      40.561 -16.790   1.536  1.00  0.00    -0.267 OA
HETATM    4  H   UNL     1      42.785 -14.569   1.933  1.00  0.00     0.163 HD
ENDROOT
BRANCH   2   5
HETATM    5  C   UNL     1      41.198 -14.227   0.520  1.00  0.00     0.114 C 
HETATM    6  C   UNL     1      41.379 -12.736   0.823  1.00  0.00     0.035 C 
BRANCH   5   7
HETATM    7  C   UNL     1      41.562 -14.614  -0.941  1.00  0.00     0.173 C 
BRANCH   7   8
HETATM    8  O   UNL     1      42.538 -13.725  -1.492  1.00  0.00    -0.389 OA
HETATM    9  H   UNL     1      43.271 -13.683  -0.853  1.00  0.00     0.210 HD
ENDBRANCH   7   8
BRANCH   7  10
HETATM   10  C   UNL     1      40.352 -14.717  -1.852  1.00  0.00    -0.028 A 
HETATM   11  C   UNL     1      40.428 -15.495  -3.016  1.00  0.00     0.012 A 
HETATM   12  C   UNL     1      39.318 -15.632  -3.852  1.00  0.00     0.037 A 
HETATM   13  C   UNL     1      38.108 -15.011  -3.539  1.00  0.00     0.068 A 
HETATM   14  C   UNL     1      38.025 -14.229  -2.388  1.00  0.00     0.037 A 
HETATM   15  C   UNL     1      39.139 -14.081  -1.553  1.00  0.00     0.012 A 
BRANCH  13  16
HETATM   16  O   UNL     1      37.099 -15.241  -4.433  1.00  0.00    -0.356 OA
HETATM   17  C   UNL     1      36.194 -14.171  -4.665  1.00  0.00     0.210 C 
ENDBRANCH  13  16
ENDBRANCH   7  10
ENDBRANCH   5   7
ENDBRANCH   2   5
BRANCH   1  18
HETATM   18  C   UNL     1      42.436 -16.837   2.950  1.00  0.00     0.105 A 
HETATM   19  C   UNL     1      42.903 -16.270   4.121  1.00  0.00     0.169 A 
HETATM   20  N   UNL     1      42.713 -15.027   4.672  1.00  0.00    -0.233 NA
HETATM   21  N   UNL     1      43.696 -17.244   4.743  1.00  0.00    -0.219 N 
HETATM   22  C   UNL     1      43.302 -14.797   5.807  1.00  0.00     0.035 A 
HETATM   23  C   UNL     1      43.136 -13.443   6.446  1.00  0.00     0.070 C 
HETATM   24  C   UNL     1      44.143 -15.785   6.553  1.00  0.00     0.053 A 
HETATM   25  C   UNL     1      44.318 -16.984   5.974  1.00  0.00     0.036 A 
HETATM   26  C   UNL     1      45.141 -18.063   6.610  1.00  0.00     0.070 C 
HETATM   27  N   UNL     1      43.743 -18.386   4.016  1.00  0.00    -0.170 NA
HETATM   28  C   UNL     1      42.980 -18.148   2.944  1.00  0.00     0.071 A 
HETATM   29  C   UNL     1      42.788 -19.210   1.923  1.00  0.00     0.073 C 
ENDBRANCH   1  18
TORSDOF 6
ENDMDL
MODEL 6
REMARK VINA RESULT:      -7.0      3.240      6.901
REMARK  6 active torsions:
REMARK  status: ('A' for Active; 'I' for Inactive)
REMARK    1  A    between atoms: C_9  and  C_10 
REMARK       I    between atoms: C_10  and  N_11 
REMARK    2  A    between atoms: N_11  and  C_12 
REMARK    3  A    between atoms: C_12  and  C_13 
REMARK    4  A    between atoms: C_13  and  O_14 
REMARK    5  A    between atoms: C_13  and  C_15 
REMARK    6  A    between atoms: C_18  and  O_19 
ROOT
HETATM    1  C   UNL     1      42.241 -13.990   2.412  1.00  0.00     0.258 C 
HETATM    2  N   UNL     1      41.123 -14.116   3.205  1.00  0.00    -0.350 N 
HETATM    3  O   UNL     1      43.372 -13.891   2.877  1.00  0.00    -0.267 OA
HETATM    4  H   UNL     1      40.213 -14.080   2.747  1.00  0.00     0.163 HD
ENDROOT
BRANCH   2   5
HETATM    5  C   UNL     1      41.185 -14.048   4.666  1.00  0.00     0.114 C 
HETATM    6  C   UNL     1      40.316 -12.885   5.153  1.00  0.00     0.035 C 
BRANCH   5   7
HETATM    7  C   UNL     1      40.798 -15.419   5.290  1.00  0.00     0.173 C 
BRANCH   7   8
HETATM    8  O   UNL     1      40.327 -15.270   6.633  1.00  0.00    -0.389 OA
HETATM    9  H   UNL     1      41.087 -14.975   7.164  1.00  0.00     0.210 HD
ENDBRANCH   7   8
BRANCH   7  10
HETATM   10  C   UNL     1      41.915 -16.444   5.221  1.00  0.00    -0.028 A 
HETATM   11  C   UNL     1      43.011 -16.330   6.087  1.00  0.00     0.012 A 
HETATM   12  C   UNL     1      44.035 -17.280   6.066  1.00  0.00     0.037 A 
HETATM   13  C   UNL     1      43.981 -18.368   5.194  1.00  0.00     0.068 A 
HETATM   14  C   UNL     1      42.899 -18.486   4.323  1.00  0.00     0.037 A 
HETATM   15  C   UNL     1      41.875 -17.530   4.335  1.00  0.00     0.012 A 
BRANCH  13  16
HETATM   16  O   UNL     1      45.039 -19.229   5.288  1.00  0.00    -0.356 OA
HETATM   17  C   UNL     1      45.003 -20.379   4.454  1.00  0.00     0.210 C 
ENDBRANCH  13  16
ENDBRANCH   7  10
ENDBRANCH   5   7
ENDBRANCH   2   5
BRANCH   1  18
HETATM   18  C   UNL     1      41.992 -13.983   0.979  1.00  0.00     0.105 A 
HETATM   19  C   UNL     1      42.186 -12.947   0.082  1.00  0.00     0.169 A 
HETATM   20  N   UNL     1      42.653 -11.668   0.254  1.00  0.00    -0.233 NA
HETATM   21  N   UNL     1      41.789 -13.431  -1.171  1.00  0.00    -0.219 N 
HETATM   22  C   UNL     1      42.716 -10.924  -0.809  1.00  0.00     0.035 A 
HETATM   23  C   UNL     1      43.209  -9.506  -0.672  1.00  0.00     0.070 C 
HETATM   24  C   UNL     1      42.339 -11.365  -2.188  1.00  0.00     0.053 A 
HETATM   25  C   UNL     1      41.872 -12.618  -2.312  1.00  0.00     0.036 A 
HETATM   26  C   UNL     1      41.454 -13.185  -3.636  1.00  0.00     0.070 C 
HETATM   27  N   UNL     1      41.360 -14.714  -1.097  1.00  0.00    -0.170 NA
HETATM   28  C   UNL     1      41.490 -15.050   0.190  1.00  0.00     0.071 A 
HETATM   29  C   UNL     1      41.122 -16.419   0.637  1.00  0.00     0.073 C 
ENDBRANCH   1  18
TORSDOF 6
ENDMDL
MODEL 7
REMARK VINA RESULT:      -7.0      4.444      8.225
REMARK  6 active torsions:
REMARK  status: ('A' for Active; 'I' for Inactive)
REMARK    1  A    between atoms: C_9  and  C_10 
REMARK       I    between atoms: C_10  and  N_11 
REMARK    2  A    between atoms: N_11  and  C_12 
REMARK    3  A    between atoms: C_12  and  C_13 
REMARK    4  A    between atoms: C_13  and  O_14 
REMARK    5  A    between atoms: C_13  and  C_15 
REMARK    6  A    between atoms: C_18  and  O_19 
ROOT
HETATM    1  C   UNL     1      41.047 -11.028   7.079  1.00  0.00     0.258 C 
HETATM    2  N   UNL     1      41.432 -12.281   6.656  1.00  0.00    -0.350 N 
HETATM    3  O   UNL     1      40.403 -10.261   6.372  1.00  0.00    -0.267 OA
HETATM    4  H   UNL     1      42.059 -12.811   7.260  1.00  0.00     0.163 HD
ENDROOT
BRANCH   2   5
HETATM    5  C   UNL     1      41.183 -12.759   5.295  1.00  0.00     0.114 C 
HETATM    6  C   UNL     1      42.522 -12.965   4.581  1.00  0.00     0.035 C 
BRANCH   5   7
HETATM    7  C   UNL     1      40.290 -14.032   5.323  1.00  0.00     0.173 C 
BRANCH   7   8
HETATM    8  O   UNL     1      39.825 -14.317   6.645  1.00  0.00    -0.389 OA
HETATM    9  H   UNL     1      39.125 -13.671   6.842  1.00  0.00     0.210 HD
ENDBRANCH   7   8
BRANCH   7  10
HETATM   10  C   UNL     1      40.964 -15.249   4.715  1.00  0.00    -0.028 A 
HETATM   11  C   UNL     1      41.810 -16.038   5.507  1.00  0.00     0.012 A 
HETATM   12  C   UNL     1      42.414 -17.182   4.980  1.00  0.00     0.037 A 
HETATM   13  C   UNL     1      42.178 -17.569   3.660  1.00  0.00     0.068 A 
HETATM   14  C   UNL     1      41.346 -16.786   2.862  1.00  0.00     0.037 A 
HETATM   15  C   UNL     1      40.746 -15.634   3.384  1.00  0.00     0.012 A 
BRANCH  13  16
HETATM   16  O   UNL     1      42.819 -18.715   3.278  1.00  0.00    -0.356 OA
HETATM   17  C   UNL     1      43.902 -19.144   4.091  1.00  0.00     0.210 C 
ENDBRANCH  13  16
ENDBRANCH   7  10
ENDBRANCH   5   7
ENDBRANCH   2   5
BRANCH   1  18
HETATM   18  C   UNL     1      41.458 -10.673   8.429  1.00  0.00     0.105 A 
HETATM   19  C   UNL     1      42.697 -10.843   9.019  1.00  0.00     0.169 A 
HETATM   20  N   UNL     1      43.870 -11.370   8.539  1.00  0.00    -0.233 NA
HETATM   21  N   UNL     1      42.582 -10.354  10.327  1.00  0.00    -0.219 N 
HETATM   22  C   UNL     1      44.878 -11.389   9.360  1.00  0.00     0.035 A 
HETATM   23  C   UNL     1      46.185 -11.970   8.886  1.00  0.00     0.070 C 
HETATM   24  C   UNL     1      44.853 -10.866  10.762  1.00  0.00     0.053 A 
HETATM   25  C   UNL     1      43.682 -10.373  11.198  1.00  0.00     0.036 A 
HETATM   26  C   UNL     1      43.517  -9.822  12.583  1.00  0.00     0.070 C 
HETATM   27  N   UNL     1      41.334  -9.890  10.577  1.00  0.00    -0.170 NA
HETATM   28  C   UNL     1      40.661 -10.071   9.437  1.00  0.00     0.071 A 
HETATM   29  C   UNL     1      39.238  -9.650   9.345  1.00  0.00     0.073 C 
ENDBRANCH   1  18
TORSDOF 6
ENDMDL
MODEL 8
REMARK VINA RESULT:      -6.9      3.949      8.198
REMARK  6 active torsions:
REMARK  status: ('A' for Active; 'I' for Inactive)
REMARK    1  A    between atoms: C_9  and  C_10 
REMARK       I    between atoms: C_10  and  N_11 
REMARK    2  A    between atoms: N_11  and  C_12 
REMARK    3  A    between atoms: C_12  and  C_13 
REMARK    4  A    between atoms: C_13  and  O_14 
REMARK    5  A    between atoms: C_13  and  C_15 
REMARK    6  A    between atoms: C_18  and  O_19 
ROOT
HETATM    1  C   UNL     1      41.990 -13.009   5.443  1.00  0.00     0.258 C 
HETATM    2  N   UNL     1      42.146 -14.139   6.214  1.00  0.00    -0.350 N 
HETATM    3  O   UNL     1      42.537 -12.871   4.354  1.00  0.00    -0.267 OA
HETATM    4  H   UNL     1      41.749 -14.129   7.153  1.00  0.00     0.163 HD
ENDROOT
BRANCH   2   5
HETATM    5  C   UNL     1      43.053 -15.225   5.838  1.00  0.00     0.114 C 
HETATM    6  C   UNL     1      44.294 -15.178   6.734  1.00  0.00     0.035 C 
BRANCH   5   7
HETATM    7  C   UNL     1      42.309 -16.590   5.877  1.00  0.00     0.173 C 
BRANCH   7   8
HETATM    8  O   UNL     1      42.092 -17.031   7.221  1.00  0.00    -0.389 OA
HETATM    9  H   UNL     1      41.351 -16.507   7.571  1.00  0.00     0.210 HD
ENDBRANCH   7   8
BRANCH   7  10
HETATM   10  C   UNL     1      42.996 -17.670   5.060  1.00  0.00    -0.028 A 
HETATM   11  C   UNL     1      43.029 -17.562   3.663  1.00  0.00     0.012 A 
HETATM   12  C   UNL     1      43.685 -18.525   2.892  1.00  0.00     0.037 A 
HETATM   13  C   UNL     1      44.330 -19.604   3.497  1.00  0.00     0.068 A 
HETATM   14  C   UNL     1      44.295 -19.725   4.885  1.00  0.00     0.037 A 
HETATM   15  C   UNL     1      43.631 -18.766   5.660  1.00  0.00     0.012 A 
BRANCH  13  16
HETATM   16  O   UNL     1      44.945 -20.462   2.628  1.00  0.00    -0.356 OA
HETATM   17  C   UNL     1      44.259 -21.671   2.329  1.00  0.00     0.210 C 
ENDBRANCH  13  16
ENDBRANCH   7  10
ENDBRANCH   5   7
ENDBRANCH   2   5
BRANCH   1  18
HETATM   18  C   UNL     1      41.127 -11.983   6.008  1.00  0.00     0.105 A 
HETATM   19  C   UNL     1      41.335 -11.220   7.143  1.00  0.00     0.169 A 
HETATM   20  N   UNL     1      42.370 -11.189   8.043  1.00  0.00    -0.233 NA
HETATM   21  N   UNL     1      40.214 -10.388   7.270  1.00  0.00    -0.219 N 
HETATM   22  C   UNL     1      42.264 -10.342   9.023  1.00  0.00     0.035 A 
HETATM   23  C   UNL     1      43.368 -10.279  10.047  1.00  0.00     0.070 C 
HETATM   24  C   UNL     1      41.119  -9.400   9.222  1.00  0.00     0.053 A 
HETATM   25  C   UNL     1      40.119  -9.472   8.328  1.00  0.00     0.036 A 
HETATM   26  C   UNL     1      38.910  -8.589   8.413  1.00  0.00     0.070 C 
HETATM   27  N   UNL     1      39.323 -10.597   6.272  1.00  0.00    -0.170 NA
HETATM   28  C   UNL     1      39.872 -11.547   5.508  1.00  0.00     0.071 A 
HETATM   29  C   UNL     1      39.162 -12.019   4.291  1.00  0.00     0.073 C 
ENDBRANCH   1  18
TORSDOF 6
ENDMDL
MODEL 9
REMARK VINA RESULT:      -6.8      3.028      6.571
REMARK  6 active torsions:
REMARK  status: ('A' for Active; 'I' for Inactive)
REMARK    1  A    between atoms: C_9  and  C_10 
REMARK       I    between atoms: C_10  and  N_11 
REMARK    2  A    between atoms: N_11  and  C_12 
REMARK    3  A    between atoms: C_12  and  C_13 
REMARK    4  A    between atoms: C_13  and  O_14 
REMARK    5  A    between atoms: C_13  and  C_15 
REMARK    6  A    between atoms: C_18  and  O_19 
ROOT
HETATM    1  C   UNL     1      42.539 -14.095   3.648  1.00  0.00     0.258 C 
HETATM    2  N   UNL     1      42.433 -15.020   4.663  1.00  0.00    -0.350 N 
HETATM    3  O   UNL     1      43.620 -13.691   3.234  1.00  0.00    -0.267 OA
HETATM    4  H   UNL     1      41.501 -15.219   5.024  1.00  0.00     0.163 HD
ENDROOT
BRANCH   2   5
HETATM    5  C   UNL     1      43.599 -15.523   5.391  1.00  0.00     0.114 C 
HETATM    6  C   UNL     1      44.006 -14.503   6.458  1.00  0.00     0.035 C 
BRANCH   5   7
HETATM    7  C   UNL     1      43.311 -16.941   5.962  1.00  0.00     0.173 C 
BRANCH   7   8
HETATM    8  O   UNL     1      43.918 -17.123   7.244  1.00  0.00    -0.389 OA
HETATM    9  H   UNL     1      43.763 -18.050   7.498  1.00  0.00     0.210 HD
ENDBRANCH   7   8
BRANCH   7  10
HETATM   10  C   UNL     1      43.707 -18.059   5.014  1.00  0.00    -0.028 A 
HETATM   11  C   UNL     1      44.649 -19.012   5.427  1.00  0.00     0.012 A 
HETATM   12  C   UNL     1      45.005 -20.069   4.587  1.00  0.00     0.037 A 
HETATM   13  C   UNL     1      44.421 -20.206   3.327  1.00  0.00     0.068 A 
HETATM   14  C   UNL     1      43.490 -19.259   2.904  1.00  0.00     0.037 A 
HETATM   15  C   UNL     1      43.138 -18.193   3.741  1.00  0.00     0.012 A 
BRANCH  13  16
HETATM   16  O   UNL     1      44.847 -21.293   2.615  1.00  0.00    -0.356 OA
HETATM   17  C   UNL     1      43.952 -21.809   1.639  1.00  0.00     0.210 C 
ENDBRANCH  13  16
ENDBRANCH   7  10
ENDBRANCH   5   7
ENDBRANCH   2   5
BRANCH   1  18
HETATM   18  C   UNL     1      41.277 -13.627   3.097  1.00  0.00     0.105 A 
HETATM   19  C   UNL     1      40.752 -13.864   1.839  1.00  0.00     0.169 A 
HETATM   20  N   UNL     1      41.232 -14.582   0.772  1.00  0.00    -0.233 NA
HETATM   21  N   UNL     1      39.525 -13.190   1.790  1.00  0.00    -0.219 N 
HETATM   22  C   UNL     1      40.486 -14.612  -0.292  1.00  0.00     0.035 A 
HETATM   23  C   UNL     1      40.975 -15.374  -1.496  1.00  0.00     0.070 C 
HETATM   24  C   UNL     1      39.153 -13.945  -0.424  1.00  0.00     0.053 A 
HETATM   25  C   UNL     1      38.726 -13.240   0.637  1.00  0.00     0.036 A 
HETATM   26  C   UNL     1      37.412 -12.519   0.637  1.00  0.00     0.070 C 
HETATM   27  N   UNL     1      39.262 -12.548   2.953  1.00  0.00    -0.170 NA
HETATM   28  C   UNL     1      40.307 -12.816   3.742  1.00  0.00     0.071 A 
HETATM   29  C   UNL     1      40.345 -12.276   5.127  1.00  0.00     0.073 C 
ENDBRANCH   1  18
TORSDOF 6
ENDMDL
MODEL 10
REMARK VINA RESULT:      -6.8      2.559      5.011
REMARK  6 active torsions:
REMARK  status: ('A' for Active; 'I' for Inactive)
REMARK    1  A    between atoms: C_9  and  C_10 
REMARK       I    between atoms: C_10  and  N_11 
REMARK    2  A    between atoms: N_11  and  C_12 
REMARK    3  A    between atoms: C_12  and  C_13 
REMARK    4  A    between atoms: C_13  and  O_14 
REMARK    5  A    between atoms: C_13  and  C_15 
REMARK    6  A    between atoms: C_18  and  O_19 
ROOT
HETATM    1  C   UNL     1      42.845 -15.560   3.032  1.00  0.00     0.258 C 
HETATM    2  N   UNL     1      41.575 -15.503   2.503  1.00  0.00    -0.350 N 
HETATM    3  O   UNL     1      43.521 -14.557   3.234  1.00  0.00    -0.267 OA
HETATM    4  H   UNL     1      41.125 -16.386   2.262  1.00  0.00     0.163 HD
ENDROOT
BRANCH   2   5
HETATM    5  C   UNL     1      40.968 -14.250   2.052  1.00  0.00     0.114 C 
HETATM    6  C   UNL     1      40.970 -14.211   0.522  1.00  0.00     0.035 C 
BRANCH   5   7
HETATM    7  C   UNL     1      39.554 -14.077   2.678  1.00  0.00     0.173 C 
BRANCH   7   8
HETATM    8  O   UNL     1      38.603 -13.630   1.708  1.00  0.00    -0.389 OA
HETATM    9  H   UNL     1      38.134 -14.421   1.390  1.00  0.00     0.210 HD
ENDBRANCH   7   8
BRANCH   7  10
HETATM   10  C   UNL     1      39.546 -13.173   3.898  1.00  0.00    -0.028 A 
HETATM   11  C   UNL     1      39.958 -13.682   5.137  1.00  0.00     0.012 A 
HETATM   12  C   UNL     1      39.992 -12.861   6.266  1.00  0.00     0.037 A 
HETATM   13  C   UNL     1      39.630 -11.516   6.181  1.00  0.00     0.068 A 
HETATM   14  C   UNL     1      39.211 -11.003   4.955  1.00  0.00     0.037 A 
HETATM   15  C   UNL     1      39.167 -11.826   3.823  1.00  0.00     0.012 A 
BRANCH  13  16
HETATM   16  O   UNL     1      39.724 -10.823   7.356  1.00  0.00    -0.356 OA
HETATM   17  C   UNL     1      39.256 -11.481   8.526  1.00  0.00     0.210 C 
ENDBRANCH  13  16
ENDBRANCH   7  10
ENDBRANCH   5   7
ENDBRANCH   2   5
BRANCH   1  18
HETATM   18  C   UNL     1      43.335 -16.895   3.338  1.00  0.00     0.105 A 
HETATM   19  C   UNL     1      43.516 -17.476   4.579  1.00  0.00     0.169 A 
HETATM   20  N   UNL     1      43.298 -17.001   5.849  1.00  0.00    -0.233 NA
HETATM   21  N   UNL     1      44.015 -18.764   4.344  1.00  0.00    -0.219 N 
HETATM   22  C   UNL     1      43.574 -17.809   6.828  1.00  0.00     0.035 A 
HETATM   23  C   UNL     1      43.366 -17.330   8.242  1.00  0.00     0.070 C 
HETATM   24  C   UNL     1      44.085 -19.206   6.669  1.00  0.00     0.053 A 
HETATM   25  C   UNL     1      44.299 -19.629   5.412  1.00  0.00     0.036 A 
HETATM   26  C   UNL     1      44.815 -21.004   5.111  1.00  0.00     0.070 C 
HETATM   27  N   UNL     1      44.153 -19.010   3.019  1.00  0.00    -0.170 NA
HETATM   28  C   UNL     1      43.736 -17.894   2.413  1.00  0.00     0.071 A 
HETATM   29  C   UNL     1      43.733 -17.817   0.929  1.00  0.00     0.073 C 
ENDBRANCH   1  18
TORSDOF 6
ENDMDL
