MODEL 1
REMARK VINA RESULT:      -7.6      0.000      0.000
REMARK  5 active torsions:
REMARK  status: ('A' for Active; 'I' for Inactive)
REMARK    1  A    between atoms: C_10  and  N_11 
REMARK    2  A    between atoms: N_11  and  C_12 
REMARK    3  A    between atoms: C_12  and  C_13 
REMARK    4  A    between atoms: C_13  and  N_14 
REMARK       I    between atoms: N_14  and  C_15 
REMARK    5  A    between atoms: C_15  and  C_16 
ROOT
HETATM    1  C   UNL     1      44.623 -21.911   1.835  1.00  0.00     0.048 C 
HETATM    2  C   UNL     1      44.488 -21.240   3.172  1.00  0.00    -0.060 A 
HETATM    3  C   UNL     1      44.092 -19.900   3.267  1.00  0.00     0.037 A 
HETATM    4  C   UNL     1      43.946 -19.292   4.521  1.00  0.00     0.044 A 
HETATM    5  C   UNL     1      44.181 -20.023   5.699  1.00  0.00    -0.009 A 
HETATM    6  C   UNL     1      44.565 -21.368   5.600  1.00  0.00     0.014 A 
HETATM    7  C   UNL     1      44.712 -21.969   4.347  1.00  0.00     0.007 A 
HETATM    8  N   UNL     1      43.583 -18.002   4.613  1.00  0.00    -0.346 N 
HETATM    9  H   UNL     1      43.412 -17.510   3.744  1.00  0.00     0.167 HD
HETATM   10  C   UNL     1      43.441 -17.327   5.768  1.00  0.00     0.086 A 
HETATM   11  C   UNL     1      43.621 -18.032   6.974  1.00  0.00    -0.023 A 
HETATM   12  C   UNL     1      43.448 -17.372   8.316  1.00  0.00     0.052 C 
HETATM   13  C   UNL     1      44.015 -19.377   6.927  1.00  0.00     0.023 A 
ENDROOT
BRANCH  10  14
HETATM   14  N   UNL     1      43.040 -15.987   5.771  1.00  0.00    -0.277 NA
HETATM   15  H   UNL     1      43.640 -15.423   5.165  1.00  0.00     0.129 HD
BRANCH  14  16
HETATM   16  C   UNL     1      41.621 -15.683   5.595  1.00  0.00     0.113 C 
BRANCH  16  17
HETATM   17  C   UNL     1      41.328 -14.869   4.328  1.00  0.00     0.137 C 
BRANCH  17  18
HETATM   18  N   UNL     1      41.429 -15.594   3.063  1.00  0.00    -0.360 N 
HETATM   19  C   UNL     1      42.591 -15.836   2.356  1.00  0.00     0.221 C 
HETATM   20  O   UNL     1      43.693 -15.429   2.718  1.00  0.00    -0.273 OA
HETATM   21  H   UNL     1      40.573 -16.005   2.708  1.00  0.00     0.162 HD
BRANCH  19  22
HETATM   22  C   UNL     1      42.383 -16.658   1.085  1.00  0.00     0.070 C 
HETATM   23  C   UNL     1      43.592 -17.551   0.816  1.00  0.00     0.019 C 
HETATM   24  C   UNL     1      41.113 -17.502   1.187  1.00  0.00     0.019 C 
ENDBRANCH  19  22
ENDBRANCH  17  18
ENDBRANCH  16  17
ENDBRANCH  14  16
ENDBRANCH  10  14
TORSDOF 5
ENDMDL
MODEL 2
REMARK VINA RESULT:      -7.5      2.223      2.808
REMARK  5 active torsions:
REMARK  status: ('A' for Active; 'I' for Inactive)
REMARK    1  A    between atoms: C_10  and  N_11 
REMARK    2  A    between atoms: N_11  and  C_12 
REMARK    3  A    between atoms: C_12  and  C_13 
REMARK    4  A    between atoms: C_13  and  N_14 
REMARK       I    between atoms: N_14  and  C_15 
REMARK    5  A    between atoms: C_15  and  C_16 
ROOT
HETATM    1  C   UNL     1      44.173 -21.977   1.525  1.00  0.00     0.048 C 
HETATM    2  C   UNL     1      44.118 -20.809   2.469  1.00  0.00    -0.060 A 
HETATM    3  C   UNL     1      43.443 -19.634   2.119  1.00  0.00     0.037 A 
HETATM    4  C   UNL     1      43.377 -18.560   3.016  1.00  0.00     0.044 A 
HETATM    5  C   UNL     1      43.975 -18.655   4.286  1.00  0.00    -0.009 A 
HETATM    6  C   UNL     1      44.638 -19.840   4.638  1.00  0.00     0.014 A 
HETATM    7  C   UNL     1      44.704 -20.906   3.737  1.00  0.00     0.007 A 
HETATM    8  N   UNL     1      42.745 -17.425   2.675  1.00  0.00    -0.346 N 
HETATM    9  H   UNL     1      42.318 -17.396   1.757  1.00  0.00     0.167 HD
HETATM   10  C   UNL     1      42.650 -16.336   3.458  1.00  0.00     0.086 A 
HETATM   11  C   UNL     1      43.195 -16.403   4.755  1.00  0.00    -0.023 A 
HETATM   12  C   UNL     1      43.106 -15.249   5.718  1.00  0.00     0.052 C 
HETATM   13  C   UNL     1      43.876 -17.562   5.151  1.00  0.00     0.023 A 
ENDROOT
BRANCH  10  14
HETATM   14  N   UNL     1      41.955 -15.200   3.028  1.00  0.00    -0.277 NA
HETATM   15  H   UNL     1      42.262 -14.914   2.095  1.00  0.00     0.129 HD
BRANCH  14  16
HETATM   16  C   UNL     1      40.500 -15.178   3.172  1.00  0.00     0.113 C 
BRANCH  16  17
HETATM   17  C   UNL     1      39.765 -15.835   1.996  1.00  0.00     0.137 C 
BRANCH  17  18
HETATM   18  N   UNL     1      39.958 -15.210   0.690  1.00  0.00    -0.360 N 
HETATM   19  C   UNL     1      40.952 -15.518  -0.219  1.00  0.00     0.221 C 
HETATM   20  O   UNL     1      41.821 -16.360  -0.003  1.00  0.00    -0.273 OA
HETATM   21  H   UNL     1      39.260 -14.532   0.406  1.00  0.00     0.162 HD
BRANCH  19  22
HETATM   22  C   UNL     1      40.870 -14.721  -1.520  1.00  0.00     0.070 C 
HETATM   23  C   UNL     1      40.954 -15.651  -2.729  1.00  0.00     0.019 C 
HETATM   24  C   UNL     1      39.582 -13.899  -1.573  1.00  0.00     0.019 C 
ENDBRANCH  19  22
ENDBRANCH  17  18
ENDBRANCH  16  17
ENDBRANCH  14  16
ENDBRANCH  10  14
TORSDOF 5
ENDMDL
MODEL 3
REMARK VINA RESULT:      -7.3      1.848      4.482
REMARK  5 active torsions:
REMARK  status: ('A' for Active; 'I' for Inactive)
REMARK    1  A    between atoms: C_10  and  N_11 
REMARK    2  A    between atoms: N_11  and  C_12 
REMARK    3  A    between atoms: C_12  and  C_13 
REMARK    4  A    between atoms: C_13  and  N_14 
REMARK       I    between atoms: N_14  and  C_15 
REMARK    5  A    between atoms: C_15  and  C_16 
ROOT
HETATM    1  C   UNL     1      44.816 -21.156   5.107  1.00  0.00     0.048 C 
HETATM    2  C   UNL     1      44.194 -20.241   4.090  1.00  0.00    -0.060 A 
HETATM    3  C   UNL     1      43.226 -19.303   4.467  1.00  0.00     0.037 A 
HETATM    4  C   UNL     1      42.670 -18.437   3.515  1.00  0.00     0.044 A 
HETATM    5  C   UNL     1      43.089 -18.491   2.173  1.00  0.00    -0.009 A 
HETATM    6  C   UNL     1      44.069 -19.423   1.804  1.00  0.00     0.014 A 
HETATM    7  C   UNL     1      44.617 -20.286   2.756  1.00  0.00     0.007 A 
HETATM    8  N   UNL     1      41.728 -17.549   3.871  1.00  0.00    -0.346 N 
HETATM    9  H   UNL     1      41.459 -17.531   4.847  1.00  0.00     0.167 HD
HETATM   10  C   UNL     1      41.121 -16.695   3.026  1.00  0.00     0.086 A 
HETATM   11  C   UNL     1      41.543 -16.682   1.682  1.00  0.00    -0.023 A 
HETATM   12  C   UNL     1      40.949 -15.739   0.670  1.00  0.00     0.052 C 
HETATM   13  C   UNL     1      42.513 -17.602   1.261  1.00  0.00     0.023 A 
ENDROOT
BRANCH  10  14
HETATM   14  N   UNL     1      40.162 -15.788   3.488  1.00  0.00    -0.277 NA
HETATM   15  H   UNL     1      39.406 -16.272   3.978  1.00  0.00     0.129 HD
BRANCH  14  16
HETATM   16  C   UNL     1      40.617 -14.593   4.197  1.00  0.00     0.113 C 
BRANCH  16  17
HETATM   17  C   UNL     1      40.680 -14.779   5.719  1.00  0.00     0.137 C 
BRANCH  17  18
HETATM   18  N   UNL     1      42.011 -14.978   6.286  1.00  0.00    -0.360 N 
HETATM   19  C   UNL     1      42.492 -16.150   6.838  1.00  0.00     0.221 C 
HETATM   20  O   UNL     1      41.816 -17.172   6.935  1.00  0.00    -0.273 OA
HETATM   21  H   UNL     1      42.656 -14.199   6.210  1.00  0.00     0.162 HD
BRANCH  19  22
HETATM   22  C   UNL     1      43.942 -16.061   7.312  1.00  0.00     0.070 C 
HETATM   23  C   UNL     1      44.781 -17.178   6.694  1.00  0.00     0.019 C 
HETATM   24  C   UNL     1      44.542 -14.698   6.973  1.00  0.00     0.019 C 
ENDBRANCH  19  22
ENDBRANCH  17  18
ENDBRANCH  16  17
ENDBRANCH  14  16
ENDBRANCH  10  14
TORSDOF 5
ENDMDL
MODEL 4
REMARK VINA RESULT:      -7.3      3.538      5.792
REMARK  5 active torsions:
REMARK  status: ('A' for Active; 'I' for Inactive)
REMARK    1  A    between atoms: C_10  and  N_11 
REMARK    2  A    between atoms: N_11  and  C_12 
REMARK    3  A    between atoms: C_12  and  C_13 
REMARK    4  A    between atoms: C_13  and  N_14 
REMARK       I    between atoms: N_14  and  C_15 
REMARK    5  A    between atoms: C_15  and  C_16 
ROOT
HETATM    1  C   UNL     1      45.067 -22.481   4.758  1.00  0.00     0.048 C 
HETATM    2  C   UNL     1      44.637 -21.141   4.232  1.00  0.00    -0.060 A 
HETATM    3  C   UNL     1      44.436 -20.060   5.099  1.00  0.00     0.037 A 
HETATM    4  C   UNL     1      44.059 -18.808   4.596  1.00  0.00     0.044 A 
HETATM    5  C   UNL     1      43.893 -18.618   3.212  1.00  0.00    -0.009 A 
HETATM    6  C   UNL     1      44.109 -19.700   2.346  1.00  0.00     0.014 A 
HETATM    7  C   UNL     1      44.481 -20.947   2.854  1.00  0.00     0.007 A 
HETATM    8  N   UNL     1      43.849 -17.776   5.428  1.00  0.00    -0.346 N 
HETATM    9  H   UNL     1      43.988 -17.947   6.417  1.00  0.00     0.167 HD
HETATM   10  C   UNL     1      43.463 -16.546   5.041  1.00  0.00     0.086 A 
HETATM   11  C   UNL     1      43.329 -16.298   3.661  1.00  0.00    -0.023 A 
HETATM   12  C   UNL     1      42.937 -14.945   3.129  1.00  0.00     0.052 C 
HETATM   13  C   UNL     1      43.525 -17.350   2.755  1.00  0.00     0.023 A 
ENDROOT
BRANCH  10  14
HETATM   14  N   UNL     1      43.285 -15.522   5.977  1.00  0.00    -0.277 NA
HETATM   15  H   UNL     1      42.369 -15.591   6.426  1.00  0.00     0.129 HD
BRANCH  14  16
HETATM   16  C   UNL     1      44.360 -15.255   6.931  1.00  0.00     0.113 C 
BRANCH  16  17
HETATM   17  C   UNL     1      44.655 -13.760   7.109  1.00  0.00     0.137 C 
BRANCH  17  18
HETATM   18  N   UNL     1      44.159 -13.151   8.341  1.00  0.00    -0.360 N 
HETATM   19  C   UNL     1      44.823 -12.212   9.108  1.00  0.00     0.221 C 
HETATM   20  O   UNL     1      45.949 -11.800   8.836  1.00  0.00    -0.273 OA
HETATM   21  H   UNL     1      43.217 -13.399   8.620  1.00  0.00     0.162 HD
BRANCH  19  22
HETATM   22  C   UNL     1      44.029 -11.730  10.321  1.00  0.00     0.070 C 
HETATM   23  C   UNL     1      44.278 -12.639  11.523  1.00  0.00     0.019 C 
HETATM   24  C   UNL     1      44.387 -10.285  10.666  1.00  0.00     0.019 C 
ENDBRANCH  19  22
ENDBRANCH  17  18
ENDBRANCH  16  17
ENDBRANCH  14  16
ENDBRANCH  10  14
TORSDOF 5
ENDMDL
MODEL 5
REMARK VINA RESULT:      -7.3      2.025      4.707
REMARK  5 active torsions:
REMARK  status: ('A' for Active; 'I' for Inactive)
REMARK    1  A    between atoms: C_10  and  N_11 
REMARK    2  A    between atoms: N_11  and  C_12 
REMARK    3  A    between atoms: C_12  and  C_13 
REMARK    4  A    between atoms: C_13  and  N_14 
REMARK       I    between atoms: N_14  and  C_15 
REMARK    5  A    between atoms: C_15  and  C_16 
ROOT
HETATM    1  C   UNL     1      44.813 -20.181   4.855  1.00  0.00     0.048 C 
HETATM    2  C   UNL     1      44.016 -19.316   3.919  1.00  0.00    -0.060 A 
HETATM    3  C   UNL     1      43.087 -18.392   4.411  1.00  0.00     0.037 A 
HETATM    4  C   UNL     1      42.368 -17.573   3.530  1.00  0.00     0.044 A 
HETATM    5  C   UNL     1      42.580 -17.661   2.142  1.00  0.00    -0.009 A 
HETATM    6  C   UNL     1      43.521 -18.579   1.655  1.00  0.00     0.014 A 
HETATM    7  C   UNL     1      44.233 -19.395   2.538  1.00  0.00     0.007 A 
HETATM    8  N   UNL     1      41.464 -16.698   4.000  1.00  0.00    -0.346 N 
HETATM    9  H   UNL     1      41.345 -16.655   5.005  1.00  0.00     0.167 HD
HETATM   10  C   UNL     1      40.710 -15.890   3.233  1.00  0.00     0.086 A 
HETATM   11  C   UNL     1      40.922 -15.911   1.841  1.00  0.00    -0.023 A 
HETATM   12  C   UNL     1      40.153 -15.017   0.904  1.00  0.00     0.052 C 
HETATM   13  C   UNL     1      41.845 -16.819   1.304  1.00  0.00     0.023 A 
ENDROOT
BRANCH  10  14
HETATM   14  N   UNL     1      39.804 -14.993   3.809  1.00  0.00    -0.277 NA
HETATM   15  H   UNL     1      38.839 -15.282   3.632  1.00  0.00     0.129 HD
BRANCH  14  16
HETATM   16  C   UNL     1      40.020 -14.577   5.194  1.00  0.00     0.113 C 
BRANCH  16  17
HETATM   17  C   UNL     1      41.133 -13.532   5.346  1.00  0.00     0.137 C 
BRANCH  17  18
HETATM   18  N   UNL     1      42.338 -13.975   6.043  1.00  0.00    -0.360 N 
HETATM   19  C   UNL     1      43.623 -13.953   5.537  1.00  0.00     0.221 C 
HETATM   20  O   UNL     1      43.890 -13.569   4.400  1.00  0.00    -0.273 OA
HETATM   21  H   UNL     1      42.220 -14.269   7.006  1.00  0.00     0.162 HD
BRANCH  19  22
HETATM   22  C   UNL     1      44.684 -14.445   6.521  1.00  0.00     0.070 C 
HETATM   23  C   UNL     1      44.756 -13.527   7.740  1.00  0.00     0.019 C 
HETATM   24  C   UNL     1      44.398 -15.882   6.956  1.00  0.00     0.019 C 
ENDBRANCH  19  22
ENDBRANCH  17  18
ENDBRANCH  16  17
ENDBRANCH  14  16
ENDBRANCH  10  14
TORSDOF 5
ENDMDL
MODEL 6
REMARK VINA RESULT:      -7.1      1.922      4.835
REMARK  5 active torsions:
REMARK  status: ('A' for Active; 'I' for Inactive)
REMARK    1  A    between atoms: C_10  and  N_11 
REMARK    2  A    between atoms: N_11  and  C_12 
REMARK    3  A    between atoms: C_12  and  C_13 
REMARK    4  A    between atoms: C_13  and  N_14 
REMARK       I    between atoms: N_14  and  C_15 
REMARK    5  A    between atoms: C_15  and  C_16 
ROOT
HETATM    1  C   UNL     1      40.708 -15.336   1.095  1.00  0.00     0.048 C 
HETATM    2  C   UNL     1      41.662 -16.383   1.596  1.00  0.00    -0.060 A 
HETATM    3  C   UNL     1      41.654 -16.779   2.938  1.00  0.00     0.037 A 
HETATM    4  C   UNL     1      42.531 -17.774   3.389  1.00  0.00     0.044 A 
HETATM    5  C   UNL     1      43.421 -18.397   2.495  1.00  0.00    -0.009 A 
HETATM    6  C   UNL     1      43.416 -18.006   1.148  1.00  0.00     0.014 A 
HETATM    7  C   UNL     1      42.541 -17.011   0.705  1.00  0.00     0.007 A 
HETATM    8  N   UNL     1      42.537 -18.143   4.680  1.00  0.00    -0.346 N 
HETATM    9  H   UNL     1      41.875 -17.681   5.292  1.00  0.00     0.167 HD
HETATM   10  C   UNL     1      43.357 -19.069   5.209  1.00  0.00     0.086 A 
HETATM   11  C   UNL     1      44.232 -19.752   4.342  1.00  0.00    -0.023 A 
HETATM   12  C   UNL     1      45.162 -20.829   4.833  1.00  0.00     0.052 C 
HETATM   13  C   UNL     1      44.272 -19.390   2.988  1.00  0.00     0.023 A 
ENDROOT
BRANCH  10  14
HETATM   14  N   UNL     1      43.281 -19.406   6.565  1.00  0.00    -0.277 NA
HETATM   15  H   UNL     1      43.394 -20.413   6.699  1.00  0.00     0.129 HD
BRANCH  14  16
HETATM   16  C   UNL     1      44.058 -18.620   7.522  1.00  0.00     0.113 C 
BRANCH  16  17
HETATM   17  C   UNL     1      43.310 -17.386   8.042  1.00  0.00     0.137 C 
BRANCH  17  18
HETATM   18  N   UNL     1      43.703 -16.105   7.458  1.00  0.00    -0.360 N 
HETATM   19  C   UNL     1      42.940 -15.335   6.600  1.00  0.00     0.221 C 
HETATM   20  O   UNL     1      41.826 -15.674   6.207  1.00  0.00    -0.273 OA
HETATM   21  H   UNL     1      44.592 -15.724   7.761  1.00  0.00     0.162 HD
BRANCH  19  22
HETATM   22  C   UNL     1      43.606 -14.023   6.190  1.00  0.00     0.070 C 
HETATM   23  C   UNL     1      45.009 -13.920   6.785  1.00  0.00     0.019 C 
HETATM   24  C   UNL     1      43.667 -13.897   4.668  1.00  0.00     0.019 C 
ENDBRANCH  19  22
ENDBRANCH  17  18
ENDBRANCH  16  17
ENDBRANCH  14  16
ENDBRANCH  10  14
TORSDOF 5
ENDMDL
MODEL 7
REMARK VINA RESULT:      -6.9      1.861      3.466
REMARK  5 active torsions:
REMARK  status: ('A' for Active; 'I' for Inactive)
REMARK    1  A    between atoms: C_10  and  N_11 
REMARK    2  A    between atoms: N_11  and  C_12 
REMARK    3  A    between atoms: C_12  and  C_13 
REMARK    4  A    between atoms: C_13  and  N_14 
REMARK       I    between atoms: N_14  and  C_15 
REMARK    5  A    between atoms: C_15  and  C_16 
ROOT
HETATM    1  C   UNL     1      45.299 -22.581   5.077  1.00  0.00     0.048 C 
HETATM    2  C   UNL     1      44.740 -21.517   4.175  1.00  0.00    -0.060 A 
HETATM    3  C   UNL     1      44.567 -20.206   4.634  1.00  0.00     0.037 A 
HETATM    4  C   UNL     1      44.067 -19.216   3.777  1.00  0.00     0.044 A 
HETATM    5  C   UNL     1      43.747 -19.524   2.443  1.00  0.00    -0.009 A 
HETATM    6  C   UNL     1      43.935 -20.836   1.984  1.00  0.00     0.014 A 
HETATM    7  C   UNL     1      44.430 -21.820   2.843  1.00  0.00     0.007 A 
HETATM    8  N   UNL     1      43.884 -17.962   4.221  1.00  0.00    -0.346 N 
HETATM    9  H   UNL     1      44.136 -17.774   5.184  1.00  0.00     0.167 HD
HETATM   10  C   UNL     1      43.389 -16.952   3.482  1.00  0.00     0.086 A 
HETATM   11  C   UNL     1      43.099 -17.204   2.127  1.00  0.00    -0.023 A 
HETATM   12  C   UNL     1      42.575 -16.130   1.211  1.00  0.00     0.052 C 
HETATM   13  C   UNL     1      43.260 -18.502   1.623  1.00  0.00     0.023 A 
ENDROOT
BRANCH  10  14
HETATM   14  N   UNL     1      43.250 -15.669   4.021  1.00  0.00    -0.277 NA
HETATM   15  H   UNL     1      42.993 -14.994   3.298  1.00  0.00     0.129 HD
BRANCH  14  16
HETATM   16  C   UNL     1      42.463 -15.508   5.243  1.00  0.00     0.113 C 
BRANCH  16  17
HETATM   17  C   UNL     1      41.013 -15.986   5.098  1.00  0.00     0.137 C 
BRANCH  17  18
HETATM   18  N   UNL     1      40.252 -15.400   3.997  1.00  0.00    -0.360 N 
HETATM   19  C   UNL     1      40.250 -14.067   3.629  1.00  0.00     0.221 C 
HETATM   20  O   UNL     1      40.890 -13.206   4.228  1.00  0.00    -0.273 OA
HETATM   21  H   UNL     1      39.726 -16.044   3.417  1.00  0.00     0.162 HD
BRANCH  19  22
HETATM   22  C   UNL     1      39.383 -13.764   2.408  1.00  0.00     0.070 C 
HETATM   23  C   UNL     1      40.163 -12.941   1.385  1.00  0.00     0.019 C 
HETATM   24  C   UNL     1      38.872 -15.055   1.771  1.00  0.00     0.019 C 
ENDBRANCH  19  22
ENDBRANCH  17  18
ENDBRANCH  16  17
ENDBRANCH  14  16
ENDBRANCH  10  14
TORSDOF 5
ENDMDL
MODEL 8
REMARK VINA RESULT:      -6.8      2.547      4.010
REMARK  5 active torsions:
REMARK  status: ('A' for Active; 'I' for Inactive)
REMARK    1  A    between atoms: C_10  and  N_11 
REMARK    2  A    between atoms: N_11  and  C_12 
REMARK    3  A    between atoms: C_12  and  C_13 
REMARK    4  A    between atoms: C_13  and  N_14 
REMARK       I    between atoms: N_14  and  C_15 
REMARK    5  A    between atoms: C_15  and  C_16 
ROOT
HETATM    1  C   UNL     1      43.973 -21.901   1.365  1.00  0.00     0.048 C 
HETATM    2  C   UNL     1      44.146 -20.958   2.522  1.00  0.00    -0.060 A 
HETATM    3  C   UNL     1      43.558 -19.688   2.507  1.00  0.00     0.037 A 
HETATM    4  C   UNL     1      43.706 -18.826   3.602  1.00  0.00     0.044 A 
HETATM    5  C   UNL     1      44.434 -19.232   4.735  1.00  0.00    -0.009 A 
HETATM    6  C   UNL     1      45.009 -20.511   4.751  1.00  0.00     0.014 A 
HETATM    7  C   UNL     1      44.861 -21.365   3.655  1.00  0.00     0.007 A 
HETATM    8  N   UNL     1      43.157 -17.600   3.582  1.00  0.00    -0.346 N 
HETATM    9  H   UNL     1      42.632 -17.346   2.754  1.00  0.00     0.167 HD
HETATM   10  C   UNL     1      43.264 -16.696   4.572  1.00  0.00     0.086 A 
HETATM   11  C   UNL     1      43.945 -17.077   5.745  1.00  0.00    -0.023 A 
HETATM   12  C   UNL     1      44.086 -16.149   6.922  1.00  0.00     0.052 C 
HETATM   13  C   UNL     1      44.547 -18.342   5.806  1.00  0.00     0.023 A 
ENDROOT
BRANCH  10  14
HETATM   14  N   UNL     1      42.644 -15.447   4.475  1.00  0.00    -0.277 NA
HETATM   15  H   UNL     1      43.053 -14.892   3.720  1.00  0.00     0.129 HD
BRANCH  14  16
HETATM   16  C   UNL     1      41.182 -15.392   4.483  1.00  0.00     0.113 C 
BRANCH  16  17
HETATM   17  C   UNL     1      40.587 -15.294   5.894  1.00  0.00     0.137 C 
BRANCH  17  18
HETATM   18  N   UNL     1      39.924 -14.036   6.224  1.00  0.00    -0.360 N 
HETATM   19  C   UNL     1      40.526 -12.794   6.293  1.00  0.00     0.221 C 
HETATM   20  O   UNL     1      41.727 -12.620   6.102  1.00  0.00    -0.273 OA
HETATM   21  H   UNL     1      38.920 -14.075   6.356  1.00  0.00     0.162 HD
BRANCH  19  22
HETATM   22  C   UNL     1      39.561 -11.656   6.623  1.00  0.00     0.070 C 
HETATM   23  C   UNL     1      39.623 -11.310   8.110  1.00  0.00     0.019 C 
HETATM   24  C   UNL     1      39.868 -10.420   5.779  1.00  0.00     0.019 C 
ENDBRANCH  19  22
ENDBRANCH  17  18
ENDBRANCH  16  17
ENDBRANCH  14  16
ENDBRANCH  10  14
TORSDOF 5
ENDMDL
MODEL 9
REMARK VINA RESULT:      -6.8      2.061      4.230
REMARK  5 active torsions:
REMARK  status: ('A' for Active; 'I' for Inactive)
REMARK    1  A    between atoms: C_10  and  N_11 
REMARK    2  A    between atoms: N_11  and  C_12 
REMARK    3  A    between atoms: C_12  and  C_13 
REMARK    4  A    between atoms: C_13  and  N_14 
REMARK       I    between atoms: N_14  and  C_15 
REMARK    5  A    between atoms: C_15  and  C_16 
ROOT
HETATM    1  C   UNL     1      45.264 -22.536   5.096  1.00  0.00     0.048 C 
HETATM    2  C   UNL     1      44.714 -21.460   4.202  1.00  0.00    -0.060 A 
HETATM    3  C   UNL     1      44.538 -20.154   4.674  1.00  0.00     0.037 A 
HETATM    4  C   UNL     1      44.047 -19.153   3.825  1.00  0.00     0.044 A 
HETATM    5  C   UNL     1      43.739 -19.446   2.484  1.00  0.00    -0.009 A 
HETATM    6  C   UNL     1      43.929 -20.752   2.012  1.00  0.00     0.014 A 
HETATM    7  C   UNL     1      44.416 -21.747   2.864  1.00  0.00     0.007 A 
HETATM    8  N   UNL     1      43.862 -17.904   4.282  1.00  0.00    -0.346 N 
HETATM    9  H   UNL     1      44.105 -17.728   5.249  1.00  0.00     0.167 HD
HETATM   10  C   UNL     1      43.375 -16.886   3.550  1.00  0.00     0.086 A 
HETATM   11  C   UNL     1      43.096 -17.121   2.190  1.00  0.00    -0.023 A 
HETATM   12  C   UNL     1      42.582 -16.036   1.282  1.00  0.00     0.052 C 
HETATM   13  C   UNL     1      43.261 -18.414   1.672  1.00  0.00     0.023 A 
ENDROOT
BRANCH  10  14
HETATM   14  N   UNL     1      43.231 -15.609   4.103  1.00  0.00    -0.277 NA
HETATM   15  H   UNL     1      42.482 -15.090   3.639  1.00  0.00     0.129 HD
BRANCH  14  16
HETATM   16  C   UNL     1      43.184 -15.481   5.559  1.00  0.00     0.113 C 
BRANCH  16  17
HETATM   17  C   UNL     1      43.310 -14.031   6.044  1.00  0.00     0.137 C 
BRANCH  17  18
HETATM   18  N   UNL     1      42.068 -13.264   6.102  1.00  0.00    -0.360 N 
HETATM   19  C   UNL     1      41.452 -12.633   5.038  1.00  0.00     0.221 C 
HETATM   20  O   UNL     1      41.917 -12.631   3.900  1.00  0.00    -0.273 OA
HETATM   21  H   UNL     1      41.589 -13.247   6.995  1.00  0.00     0.162 HD
BRANCH  19  22
HETATM   22  C   UNL     1      40.140 -11.942   5.404  1.00  0.00     0.070 C 
HETATM   23  C   UNL     1      39.211 -11.874   4.193  1.00  0.00     0.019 C 
HETATM   24  C   UNL     1      39.450 -12.664   6.561  1.00  0.00     0.019 C 
ENDBRANCH  19  22
ENDBRANCH  17  18
ENDBRANCH  16  17
ENDBRANCH  14  16
ENDBRANCH  10  14
TORSDOF 5
ENDMDL
MODEL 10
REMARK VINA RESULT:      -6.7      1.351      4.308
REMARK  5 active torsions:
REMARK  status: ('A' for Active; 'I' for Inactive)
REMARK    1  A    between atoms: C_10  and  N_11 
REMARK    2  A    between atoms: N_11  and  C_12 
REMARK    3  A    between atoms: C_12  and  C_13 
REMARK    4  A    between atoms: C_13  and  N_14 
REMARK       I    between atoms: N_14  and  C_15 
REMARK    5  A    between atoms: C_15  and  C_16 
ROOT
HETATM    1  C   UNL     1      43.403 -17.304   8.500  1.00  0.00     0.048 C 
HETATM    2  C   UNL     1      43.612 -18.302   7.396  1.00  0.00    -0.060 A 
HETATM    3  C   UNL     1      43.589 -17.903   6.055  1.00  0.00     0.037 A 
HETATM    4  C   UNL     1      43.810 -18.837   5.034  1.00  0.00     0.044 A 
HETATM    5  C   UNL     1      44.071 -20.184   5.345  1.00  0.00    -0.009 A 
HETATM    6  C   UNL     1      44.106 -20.576   6.691  1.00  0.00     0.014 A 
HETATM    7  C   UNL     1      43.883 -19.641   7.705  1.00  0.00     0.007 A 
HETATM    8  N   UNL     1      43.771 -18.460   3.746  1.00  0.00    -0.346 N 
HETATM    9  H   UNL     1      43.590 -17.481   3.560  1.00  0.00     0.167 HD
HETATM   10  C   UNL     1      43.946 -19.286   2.699  1.00  0.00     0.086 A 
HETATM   11  C   UNL     1      44.256 -20.635   2.965  1.00  0.00    -0.023 A 
HETATM   12  C   UNL     1      44.506 -21.628   1.861  1.00  0.00     0.052 C 
HETATM   13  C   UNL     1      44.294 -21.078   4.295  1.00  0.00     0.023 A 
ENDROOT
BRANCH  10  14
HETATM   14  N   UNL     1      43.907 -18.803   1.387  1.00  0.00    -0.277 NA
HETATM   15  H   UNL     1      43.203 -19.297   0.835  1.00  0.00     0.129 HD
BRANCH  14  16
HETATM   16  C   UNL     1      43.871 -17.356   1.179  1.00  0.00     0.113 C 
BRANCH  16  17
HETATM   17  C   UNL     1      42.456 -16.814   0.938  1.00  0.00     0.137 C 
BRANCH  17  18
HETATM   18  N   UNL     1      41.966 -15.845   1.915  1.00  0.00    -0.360 N 
HETATM   19  C   UNL     1      41.316 -16.141   3.098  1.00  0.00     0.221 C 
HETATM   20  O   UNL     1      41.053 -17.289   3.449  1.00  0.00    -0.273 OA
HETATM   21  H   UNL     1      42.177 -14.871   1.730  1.00  0.00     0.162 HD
BRANCH  19  22
HETATM   22  C   UNL     1      40.960 -14.912   3.933  1.00  0.00     0.070 C 
HETATM   23  C   UNL     1      39.781 -14.163   3.314  1.00  0.00     0.019 C 
HETATM   24  C   UNL     1      40.640 -15.308   5.374  1.00  0.00     0.019 C 
ENDBRANCH  19  22
ENDBRANCH  17  18
ENDBRANCH  16  17
ENDBRANCH  14  16
ENDBRANCH  10  14
TORSDOF 5
ENDMDL
