MODEL 1
REMARK VINA RESULT:      -8.4      0.000      0.000
REMARK  2 active torsions:
REMARK  status: ('A' for Active; 'I' for Inactive)
REMARK    1  A    between atoms: O_2  and  C_3 
REMARK    2  A    between atoms: C_7  and  N_8 
REMARK       I    between atoms: N_8  and  C_9 
REMARK       I    between atoms: C_9  and  N_10 
ROOT
HETATM    1  N   UNL     1      41.163 -15.082   1.563  1.00  0.00    -0.309 N 
HETATM    2  C   UNL     1      41.784 -16.098   0.872  1.00  0.00     0.323 C 
HETATM    3  N   UNL     1      42.787 -16.761   1.569  1.00  0.00    -0.328 N 
HETATM    4  C   UNL     1      43.358 -17.954   0.925  1.00  0.00     0.185 C 
HETATM    5  C   UNL     1      43.714 -18.931   1.992  1.00  0.00     0.035 A 
HETATM    6  C   UNL     1      43.769 -18.695   3.351  1.00  0.00    -0.020 A 
HETATM    7  C   UNL     1      43.444 -17.353   3.912  1.00  0.00     0.061 C 
HETATM    8  C   UNL     1      43.493 -16.297   2.787  1.00  0.00     0.132 C 
HETATM    9  N   UNL     1      44.037 -20.241   1.773  1.00  0.00    -0.357 N 
HETATM   10  H   UNL     1      44.070 -20.699   0.872  1.00  0.00     0.166 HD
HETATM   11  C   UNL     1      44.292 -20.865   2.977  1.00  0.00     0.043 A 
HETATM   12  C   UNL     1      44.127 -19.913   3.988  1.00  0.00    -0.001 A 
HETATM   13  C   UNL     1      44.644 -22.194   3.242  1.00  0.00     0.030 A 
HETATM   14  C   UNL     1      44.830 -22.561   4.578  1.00  0.00     0.002 A 
HETATM   15  C   UNL     1      44.670 -21.635   5.606  1.00  0.00     0.001 A 
HETATM   16  C   UNL     1      44.319 -20.309   5.325  1.00  0.00     0.014 A 
HETATM   17  O   UNL     1      41.483 -16.439  -0.270  1.00  0.00    -0.247 OA
HETATM   18  H   UNL     1      41.388 -15.006   2.539  1.00  0.00     0.170 HD
ENDROOT
BRANCH   1  19
HETATM   19  C   UNL     1      40.105 -14.256   1.125  1.00  0.00     0.038 A 
HETATM   20  C   UNL     1      40.272 -13.083   0.386  1.00  0.00     0.056 A 
HETATM   21  C   UNL     1      39.159 -12.346  -0.037  1.00  0.00     0.069 A 
HETATM   22  C   UNL     1      37.861 -12.775   0.270  1.00  0.00     0.090 A 
HETATM   23 CL   UNL     1      39.429 -10.918  -0.974  1.00  0.00    -0.081 Cl
HETATM   24  C   UNL     1      37.692 -13.924   1.044  1.00  0.00     0.041 A 
HETATM   25  C   UNL     1      38.806 -14.661   1.459  1.00  0.00     0.032 A 
BRANCH  22  26
HETATM   26  O   UNL     1      36.805 -12.010  -0.152  1.00  0.00    -0.354 OA
HETATM   27  C   UNL     1      36.229 -11.196   0.865  1.00  0.00     0.210 C 
ENDBRANCH  22  26
ENDBRANCH   1  19
TORSDOF 2
ENDMDL
MODEL 2
REMARK VINA RESULT:      -8.3      2.829      3.790
REMARK  2 active torsions:
REMARK  status: ('A' for Active; 'I' for Inactive)
REMARK    1  A    between atoms: O_2  and  C_3 
REMARK    2  A    between atoms: C_7  and  N_8 
REMARK       I    between atoms: N_8  and  C_9 
REMARK       I    between atoms: C_9  and  N_10 
ROOT
HETATM    1  N   UNL     1      41.766 -13.648   0.514  1.00  0.00    -0.309 N 
HETATM    2  C   UNL     1      42.289 -13.991   1.739  1.00  0.00     0.323 C 
HETATM    3  N   UNL     1      42.062 -15.305   2.134  1.00  0.00    -0.328 N 
HETATM    4  C   UNL     1      42.743 -15.752   3.358  1.00  0.00     0.185 C 
HETATM    5  C   UNL     1      43.090 -17.192   3.196  1.00  0.00     0.035 A 
HETATM    6  C   UNL     1      42.634 -18.051   2.216  1.00  0.00    -0.020 A 
HETATM    7  C   UNL     1      41.702 -17.581   1.153  1.00  0.00     0.061 C 
HETATM    8  C   UNL     1      41.057 -16.247   1.586  1.00  0.00     0.132 C 
HETATM    9  N   UNL     1      43.939 -17.886   4.011  1.00  0.00    -0.357 N 
HETATM   10  H   UNL     1      44.430 -17.510   4.811  1.00  0.00     0.166 HD
HETATM   11  C   UNL     1      44.051 -19.187   3.567  1.00  0.00     0.043 A 
HETATM   12  C   UNL     1      43.240 -19.317   2.435  1.00  0.00    -0.001 A 
HETATM   13  C   UNL     1      44.811 -20.247   4.076  1.00  0.00     0.030 A 
HETATM   14  C   UNL     1      44.745 -21.473   3.407  1.00  0.00     0.002 A 
HETATM   15  C   UNL     1      43.948 -21.630   2.275  1.00  0.00     0.001 A 
HETATM   16  C   UNL     1      43.192 -20.562   1.779  1.00  0.00     0.014 A 
HETATM   17  O   UNL     1      42.938 -13.226   2.450  1.00  0.00    -0.247 OA
HETATM   18  H   UNL     1      41.398 -14.401  -0.039  1.00  0.00     0.170 HD
ENDROOT
BRANCH   1  19
HETATM   19  C   UNL     1      41.855 -12.405  -0.151  1.00  0.00     0.038 A 
HETATM   20  C   UNL     1      41.223 -11.235   0.274  1.00  0.00     0.056 A 
HETATM   21  C   UNL     1      41.401 -10.037  -0.430  1.00  0.00     0.069 A 
HETATM   22  C   UNL     1      42.216  -9.992  -1.567  1.00  0.00     0.090 A 
HETATM   23 CL   UNL     1      40.616  -8.614   0.162  1.00  0.00    -0.081 Cl
HETATM   24  C   UNL     1      42.816 -11.169  -2.019  1.00  0.00     0.041 A 
HETATM   25  C   UNL     1      42.642 -12.362  -1.309  1.00  0.00     0.032 A 
BRANCH  22  26
HETATM   26  O   UNL     1      42.345  -8.800  -2.231  1.00  0.00    -0.354 OA
HETATM   27  C   UNL     1      42.348  -8.920  -3.651  1.00  0.00     0.210 C 
ENDBRANCH  22  26
ENDBRANCH   1  19
TORSDOF 2
ENDMDL
MODEL 3
REMARK VINA RESULT:      -8.2      3.924      9.645
REMARK  2 active torsions:
REMARK  status: ('A' for Active; 'I' for Inactive)
REMARK    1  A    between atoms: O_2  and  C_3 
REMARK    2  A    between atoms: C_7  and  N_8 
REMARK       I    between atoms: N_8  and  C_9 
REMARK       I    between atoms: C_9  and  N_10 
ROOT
HETATM    1  N   UNL     1      41.779 -16.420  -0.003  1.00  0.00    -0.309 N 
HETATM    2  C   UNL     1      41.489 -15.083  -0.148  1.00  0.00     0.323 C 
HETATM    3  N   UNL     1      40.893 -14.733  -1.355  1.00  0.00    -0.328 N 
HETATM    4  C   UNL     1      40.421 -13.346  -1.479  1.00  0.00     0.185 C 
HETATM    5  C   UNL     1      39.193 -13.348  -2.323  1.00  0.00     0.035 A 
HETATM    6  C   UNL     1      38.713 -14.392  -3.089  1.00  0.00    -0.020 A 
HETATM    7  C   UNL     1      39.420 -15.702  -3.133  1.00  0.00     0.061 C 
HETATM    8  C   UNL     1      40.860 -15.530  -2.604  1.00  0.00     0.132 C 
HETATM    9  N   UNL     1      38.337 -12.291  -2.457  1.00  0.00    -0.357 N 
HETATM   10  H   UNL     1      38.433 -11.392  -2.003  1.00  0.00     0.166 HD
HETATM   11  C   UNL     1      37.298 -12.636  -3.295  1.00  0.00     0.043 A 
HETATM   12  C   UNL     1      37.509 -13.957  -3.704  1.00  0.00    -0.001 A 
HETATM   13  C   UNL     1      36.190 -11.887  -3.708  1.00  0.00     0.030 A 
HETATM   14  C   UNL     1      35.270 -12.503  -4.561  1.00  0.00     0.002 A 
HETATM   15  C   UNL     1      35.453 -13.818  -4.983  1.00  0.00     0.001 A 
HETATM   16  C   UNL     1      36.567 -14.556  -4.563  1.00  0.00     0.014 A 
HETATM   17  O   UNL     1      41.702 -14.234   0.715  1.00  0.00    -0.247 OA
HETATM   18  H   UNL     1      41.412 -17.033  -0.708  1.00  0.00     0.170 HD
ENDROOT
BRANCH   1  19
HETATM   19  C   UNL     1      42.359 -17.066   1.111  1.00  0.00     0.038 A 
HETATM   20  C   UNL     1      41.737 -17.210   2.353  1.00  0.00     0.056 A 
HETATM   21  C   UNL     1      42.376 -17.899   3.391  1.00  0.00     0.069 A 
HETATM   22  C   UNL     1      43.645 -18.459   3.200  1.00  0.00     0.090 A 
HETATM   23 CL   UNL     1      41.542 -18.071   4.896  1.00  0.00    -0.081 Cl
HETATM   24  C   UNL     1      44.288 -18.280   1.974  1.00  0.00     0.041 A 
HETATM   25  C   UNL     1      43.643 -17.597   0.937  1.00  0.00     0.032 A 
BRANCH  22  26
HETATM   26  O   UNL     1      44.236 -19.110   4.251  1.00  0.00    -0.354 OA
HETATM   27  C   UNL     1      44.773 -20.388   3.920  1.00  0.00     0.210 C 
ENDBRANCH  22  26
ENDBRANCH   1  19
TORSDOF 2
ENDMDL
MODEL 4
REMARK VINA RESULT:      -8.1      3.499      9.292
REMARK  2 active torsions:
REMARK  status: ('A' for Active; 'I' for Inactive)
REMARK    1  A    between atoms: O_2  and  C_3 
REMARK    2  A    between atoms: C_7  and  N_8 
REMARK       I    between atoms: N_8  and  C_9 
REMARK       I    between atoms: C_9  and  N_10 
ROOT
HETATM    1  N   UNL     1      42.758 -16.917   2.352  1.00  0.00    -0.309 N 
HETATM    2  C   UNL     1      41.417 -16.612   2.345  1.00  0.00     0.323 C 
HETATM    3  N   UNL     1      41.085 -15.408   1.733  1.00  0.00    -0.328 N 
HETATM    4  C   UNL     1      39.652 -15.129   1.563  1.00  0.00     0.185 C 
HETATM    5  C   UNL     1      39.474 -14.370   0.293  1.00  0.00     0.035 A 
HETATM    6  C   UNL     1      40.465 -13.783  -0.469  1.00  0.00    -0.020 A 
HETATM    7  C   UNL     1      41.897 -13.871  -0.069  1.00  0.00     0.061 C 
HETATM    8  C   UNL     1      41.994 -14.281   1.416  1.00  0.00     0.132 C 
HETATM    9  N   UNL     1      38.274 -14.149  -0.323  1.00  0.00    -0.357 N 
HETATM   10  H   UNL     1      37.374 -14.472   0.006  1.00  0.00     0.166 HD
HETATM   11  C   UNL     1      38.471 -13.432  -1.484  1.00  0.00     0.043 A 
HETATM   12  C   UNL     1      39.844 -13.191  -1.601  1.00  0.00    -0.001 A 
HETATM   13  C   UNL     1      37.544 -12.991  -2.436  1.00  0.00     0.030 A 
HETATM   14  C   UNL     1      38.033 -12.287  -3.541  1.00  0.00     0.002 A 
HETATM   15  C   UNL     1      39.395 -12.035  -3.685  1.00  0.00     0.001 A 
HETATM   16  C   UNL     1      40.311 -12.480  -2.724  1.00  0.00     0.014 A 
HETATM   17  O   UNL     1      40.543 -17.338   2.814  1.00  0.00    -0.247 OA
HETATM   18  H   UNL     1      43.351 -16.324   1.799  1.00  0.00     0.170 HD
ENDROOT
BRANCH   1  19
HETATM   19  C   UNL     1      43.384 -18.069   2.876  1.00  0.00     0.038 A 
HETATM   20  C   UNL     1      43.579 -19.255   2.165  1.00  0.00     0.056 A 
HETATM   21  C   UNL     1      44.244 -20.335   2.757  1.00  0.00     0.069 A 
HETATM   22  C   UNL     1      44.727 -20.244   4.069  1.00  0.00     0.090 A 
HETATM   23 CL   UNL     1      44.483 -21.767   1.816  1.00  0.00    -0.081 Cl
HETATM   24  C   UNL     1      44.496 -19.076   4.797  1.00  0.00     0.041 A 
HETATM   25  C   UNL     1      43.838 -17.996   4.199  1.00  0.00     0.032 A 
BRANCH  22  26
HETATM   26  O   UNL     1      45.356 -21.335   4.609  1.00  0.00    -0.354 OA
HETATM   27  C   UNL     1      44.585 -22.032   5.584  1.00  0.00     0.210 C 
ENDBRANCH  22  26
ENDBRANCH   1  19
TORSDOF 2
ENDMDL
MODEL 5
REMARK VINA RESULT:      -7.9      8.147     10.586
REMARK  2 active torsions:
REMARK  status: ('A' for Active; 'I' for Inactive)
REMARK    1  A    between atoms: O_2  and  C_3 
REMARK    2  A    between atoms: C_7  and  N_8 
REMARK       I    between atoms: N_8  and  C_9 
REMARK       I    between atoms: C_9  and  N_10 
ROOT
HETATM    1  N   UNL     1      42.974 -13.823   6.681  1.00  0.00    -0.309 N 
HETATM    2  C   UNL     1      43.967 -13.357   7.511  1.00  0.00     0.323 C 
HETATM    3  N   UNL     1      43.694 -12.149   8.142  1.00  0.00    -0.328 N 
HETATM    4  C   UNL     1      44.659 -11.703   9.158  1.00  0.00     0.185 C 
HETATM    5  C   UNL     1      43.909 -10.983  10.225  1.00  0.00     0.035 A 
HETATM    6  C   UNL     1      42.598 -10.553  10.174  1.00  0.00    -0.020 A 
HETATM    7  C   UNL     1      41.754 -10.799   8.972  1.00  0.00     0.061 C 
HETATM    8  C   UNL     1      42.658 -11.156   7.772  1.00  0.00     0.132 C 
HETATM    9  N   UNL     1      44.423 -10.642  11.445  1.00  0.00    -0.357 N 
HETATM   10  H   UNL     1      45.362 -10.838  11.766  1.00  0.00     0.166 HD
HETATM   11  C   UNL     1      43.458 -10.004  12.195  1.00  0.00     0.043 A 
HETATM   12  C   UNL     1      42.297  -9.938  11.418  1.00  0.00    -0.001 A 
HETATM   13  C   UNL     1      43.524  -9.493  13.497  1.00  0.00     0.030 A 
HETATM   14  C   UNL     1      42.371  -8.901  14.022  1.00  0.00     0.002 A 
HETATM   15  C   UNL     1      41.200  -8.824  13.272  1.00  0.00     0.001 A 
HETATM   16  C   UNL     1      41.149  -9.337  11.971  1.00  0.00     0.014 A 
HETATM   17  O   UNL     1      45.023 -13.951   7.724  1.00  0.00    -0.247 OA
HETATM   18  H   UNL     1      42.099 -13.332   6.715  1.00  0.00     0.170 HD
ENDROOT
BRANCH   1  19
HETATM   19  C   UNL     1      42.960 -15.021   5.932  1.00  0.00     0.038 A 
HETATM   20  C   UNL     1      43.309 -15.114   4.584  1.00  0.00     0.056 A 
HETATM   21  C   UNL     1      43.301 -16.353   3.933  1.00  0.00     0.069 A 
HETATM   22  C   UNL     1      42.946 -17.519   4.622  1.00  0.00     0.090 A 
HETATM   23 CL   UNL     1      43.773 -16.409   2.270  1.00  0.00    -0.081 Cl
HETATM   24  C   UNL     1      42.555 -17.424   5.959  1.00  0.00     0.041 A 
HETATM   25  C   UNL     1      42.572 -16.185   6.608  1.00  0.00     0.032 A 
BRANCH  22  26
HETATM   26  O   UNL     1      42.937 -18.706   3.937  1.00  0.00    -0.354 OA
HETATM   27  C   UNL     1      44.117 -19.488   4.107  1.00  0.00     0.210 C 
ENDBRANCH  22  26
ENDBRANCH   1  19
TORSDOF 2
ENDMDL
MODEL 6
REMARK VINA RESULT:      -7.8      3.893      9.053
REMARK  2 active torsions:
REMARK  status: ('A' for Active; 'I' for Inactive)
REMARK    1  A    between atoms: O_2  and  C_3 
REMARK    2  A    between atoms: C_7  and  N_8 
REMARK       I    between atoms: N_8  and  C_9 
REMARK       I    between atoms: C_9  and  N_10 
ROOT
HETATM    1  N   UNL     1      42.358 -16.299   2.748  1.00  0.00    -0.309 N 
HETATM    2  C   UNL     1      41.761 -16.339   1.508  1.00  0.00     0.323 C 
HETATM    3  N   UNL     1      41.416 -15.101   0.977  1.00  0.00    -0.328 N 
HETATM    4  C   UNL     1      40.927 -15.094  -0.410  1.00  0.00     0.185 C 
HETATM    5  C   UNL     1      41.382 -13.830  -1.055  1.00  0.00     0.035 A 
HETATM    6  C   UNL     1      41.926 -12.726  -0.428  1.00  0.00    -0.020 A 
HETATM    7  C   UNL     1      42.130 -12.702   1.047  1.00  0.00     0.061 C 
HETATM    8  C   UNL     1      41.286 -13.816   1.703  1.00  0.00     0.132 C 
HETATM    9  N   UNL     1      41.335 -13.578  -2.398  1.00  0.00    -0.357 N 
HETATM   10  H   UNL     1      40.992 -14.213  -3.105  1.00  0.00     0.166 HD
HETATM   11  C   UNL     1      41.852 -12.326  -2.655  1.00  0.00     0.043 A 
HETATM   12  C   UNL     1      42.234 -11.768  -1.431  1.00  0.00    -0.001 A 
HETATM   13  C   UNL     1      42.016 -11.655  -3.873  1.00  0.00     0.030 A 
HETATM   14  C   UNL     1      42.589 -10.380  -3.840  1.00  0.00     0.002 A 
HETATM   15  C   UNL     1      42.982  -9.802  -2.636  1.00  0.00     0.001 A 
HETATM   16  C   UNL     1      42.811 -10.484  -1.425  1.00  0.00     0.014 A 
HETATM   17  O   UNL     1      41.555 -17.372   0.876  1.00  0.00    -0.247 OA
HETATM   18  H   UNL     1      42.616 -15.390   3.087  1.00  0.00     0.170 HD
ENDROOT
BRANCH   1  19
HETATM   19  C   UNL     1      42.832 -17.384   3.517  1.00  0.00     0.038 A 
HETATM   20  C   UNL     1      43.665 -18.394   3.031  1.00  0.00     0.056 A 
HETATM   21  C   UNL     1      44.116 -19.412   3.879  1.00  0.00     0.069 A 
HETATM   22  C   UNL     1      43.744 -19.433   5.229  1.00  0.00     0.090 A 
HETATM   23 CL   UNL     1      45.171 -20.617   3.226  1.00  0.00    -0.081 Cl
HETATM   24  C   UNL     1      42.877 -18.449   5.709  1.00  0.00     0.041 A 
HETATM   25  C   UNL     1      42.434 -17.429   4.860  1.00  0.00     0.032 A 
BRANCH  22  26
HETATM   26  O   UNL     1      44.198 -20.459   6.015  1.00  0.00    -0.354 OA
HETATM   27  C   UNL     1      43.643 -20.479   7.328  1.00  0.00     0.210 C 
ENDBRANCH  22  26
ENDBRANCH   1  19
TORSDOF 2
ENDMDL
MODEL 7
REMARK VINA RESULT:      -7.7      5.084      9.498
REMARK  2 active torsions:
REMARK  status: ('A' for Active; 'I' for Inactive)
REMARK    1  A    between atoms: O_2  and  C_3 
REMARK    2  A    between atoms: C_7  and  N_8 
REMARK       I    between atoms: N_8  and  C_9 
REMARK       I    between atoms: C_9  and  N_10 
ROOT
HETATM    1  N   UNL     1      42.238 -16.527   4.315  1.00  0.00    -0.309 N 
HETATM    2  C   UNL     1      42.530 -15.311   3.741  1.00  0.00     0.323 C 
HETATM    3  N   UNL     1      41.622 -14.294   4.013  1.00  0.00    -0.328 N 
HETATM    4  C   UNL     1      41.987 -12.945   3.554  1.00  0.00     0.185 C 
HETATM    5  C   UNL     1      41.459 -11.961   4.540  1.00  0.00     0.035 A 
HETATM    6  C   UNL     1      40.558 -12.206   5.558  1.00  0.00    -0.020 A 
HETATM    7  C   UNL     1      40.006 -13.571   5.784  1.00  0.00     0.061 C 
HETATM    8  C   UNL     1      40.240 -14.437   4.528  1.00  0.00     0.132 C 
HETATM    9  N   UNL     1      41.806 -10.640   4.586  1.00  0.00    -0.357 N 
HETATM   10  H   UNL     1      42.457 -10.178   3.966  1.00  0.00     0.166 HD
HETATM   11  C   UNL     1      41.149 -10.022   5.630  1.00  0.00     0.043 A 
HETATM   12  C   UNL     1      40.358 -10.988   6.260  1.00  0.00    -0.001 A 
HETATM   13  C   UNL     1      41.204  -8.692   6.064  1.00  0.00     0.030 A 
HETATM   14  C   UNL     1      40.433  -8.339   7.175  1.00  0.00     0.002 A 
HETATM   15  C   UNL     1      39.638  -9.281   7.825  1.00  0.00     0.001 A 
HETATM   16  C   UNL     1      39.592 -10.607   7.378  1.00  0.00     0.014 A 
HETATM   17  O   UNL     1      43.526 -15.095   3.053  1.00  0.00    -0.247 OA
HETATM   18  H   UNL     1      41.488 -16.535   4.982  1.00  0.00     0.170 HD
ENDROOT
BRANCH   1  19
HETATM   19  C   UNL     1      42.982 -17.725   4.234  1.00  0.00     0.038 A 
HETATM   20  C   UNL     1      42.950 -18.603   3.149  1.00  0.00     0.056 A 
HETATM   21  C   UNL     1      43.752 -19.751   3.142  1.00  0.00     0.069 A 
HETATM   22  C   UNL     1      44.600 -20.036   4.220  1.00  0.00     0.090 A 
HETATM   23 CL   UNL     1      43.692 -20.784   1.756  1.00  0.00    -0.081 Cl
HETATM   24  C   UNL     1      44.602 -19.183   5.324  1.00  0.00     0.041 A 
HETATM   25  C   UNL     1      43.805 -18.033   5.325  1.00  0.00     0.032 A 
BRANCH  22  26
HETATM   26  O   UNL     1      45.353 -21.180   4.173  1.00  0.00    -0.354 OA
HETATM   27  C   UNL     1      44.994 -22.155   5.148  1.00  0.00     0.210 C 
ENDBRANCH  22  26
ENDBRANCH   1  19
TORSDOF 2
ENDMDL
MODEL 8
REMARK VINA RESULT:      -7.7      8.023      9.198
REMARK  2 active torsions:
REMARK  status: ('A' for Active; 'I' for Inactive)
REMARK    1  A    between atoms: O_2  and  C_3 
REMARK    2  A    between atoms: C_7  and  N_8 
REMARK       I    between atoms: N_8  and  C_9 
REMARK       I    between atoms: C_9  and  N_10 
ROOT
HETATM    1  N   UNL     1      43.426 -11.998   9.326  1.00  0.00    -0.309 N 
HETATM    2  C   UNL     1      42.953 -11.926   8.036  1.00  0.00     0.323 C 
HETATM    3  N   UNL     1      43.509 -12.841   7.150  1.00  0.00    -0.328 N 
HETATM    4  C   UNL     1      42.912 -12.903   5.807  1.00  0.00     0.185 C 
HETATM    5  C   UNL     1      42.982 -14.314   5.333  1.00  0.00     0.035 A 
HETATM    6  C   UNL     1      43.705 -15.345   5.898  1.00  0.00    -0.020 A 
HETATM    7  C   UNL     1      44.528 -15.128   7.121  1.00  0.00     0.061 C 
HETATM    8  C   UNL     1      44.760 -13.615   7.325  1.00  0.00     0.132 C 
HETATM    9  N   UNL     1      42.312 -14.806   4.248  1.00  0.00    -0.357 N 
HETATM   10  H   UNL     1      41.696 -14.278   3.645  1.00  0.00     0.166 HD
HETATM   11  C   UNL     1      42.584 -16.150   4.104  1.00  0.00     0.043 A 
HETATM   12  C   UNL     1      43.457 -16.516   5.133  1.00  0.00    -0.001 A 
HETATM   13  C   UNL     1      42.117 -17.064   3.151  1.00  0.00     0.030 A 
HETATM   14  C   UNL     1      42.551 -18.389   3.254  1.00  0.00     0.002 A 
HETATM   15  C   UNL     1      43.418 -18.782   4.271  1.00  0.00     0.001 A 
HETATM   16  C   UNL     1      43.879 -17.857   5.216  1.00  0.00     0.014 A 
HETATM   17  O   UNL     1      42.083 -11.141   7.664  1.00  0.00    -0.247 OA
HETATM   18  H   UNL     1      44.014 -12.782   9.541  1.00  0.00     0.170 HD
ENDROOT
BRANCH   1  19
HETATM   19  C   UNL     1      43.035 -11.219  10.439  1.00  0.00     0.038 A 
HETATM   20  C   UNL     1      41.710 -10.989  10.815  1.00  0.00     0.056 A 
HETATM   21  C   UNL     1      41.419 -10.233  11.957  1.00  0.00     0.069 A 
HETATM   22  C   UNL     1      42.448  -9.700  12.742  1.00  0.00     0.090 A 
HETATM   23 CL   UNL     1      39.759 -10.007  12.388  1.00  0.00    -0.081 Cl
HETATM   24  C   UNL     1      43.773  -9.893  12.345  1.00  0.00     0.041 A 
HETATM   25  C   UNL     1      44.061 -10.655  11.208  1.00  0.00     0.032 A 
BRANCH  22  26
HETATM   26  O   UNL     1      42.112  -8.954  13.841  1.00  0.00    -0.354 OA
HETATM   27  C   UNL     1      42.254  -9.642  15.081  1.00  0.00     0.210 C 
ENDBRANCH  22  26
ENDBRANCH   1  19
TORSDOF 2
ENDMDL
MODEL 9
REMARK VINA RESULT:      -7.7      3.892      9.291
REMARK  2 active torsions:
REMARK  status: ('A' for Active; 'I' for Inactive)
REMARK    1  A    between atoms: O_2  and  C_3 
REMARK    2  A    between atoms: C_7  and  N_8 
REMARK       I    between atoms: N_8  and  C_9 
REMARK       I    between atoms: C_9  and  N_10 
ROOT
HETATM    1  N   UNL     1      42.334 -17.351   3.008  1.00  0.00    -0.309 N 
HETATM    2  C   UNL     1      42.750 -16.200   2.378  1.00  0.00     0.323 C 
HETATM    3  N   UNL     1      41.765 -15.234   2.199  1.00  0.00    -0.328 N 
HETATM    4  C   UNL     1      42.208 -13.932   1.679  1.00  0.00     0.185 C 
HETATM    5  C   UNL     1      41.356 -12.874   2.292  1.00  0.00     0.035 A 
HETATM    6  C   UNL     1      40.187 -13.058   3.004  1.00  0.00    -0.020 A 
HETATM    7  C   UNL     1      39.642 -14.423   3.249  1.00  0.00     0.061 C 
HETATM    8  C   UNL     1      40.297 -15.423   2.273  1.00  0.00     0.132 C 
HETATM    9  N   UNL     1      41.621 -11.534   2.246  1.00  0.00    -0.357 N 
HETATM   10  H   UNL     1      42.419 -11.106   1.797  1.00  0.00     0.166 HD
HETATM   11  C   UNL     1      40.643 -10.842   2.928  1.00  0.00     0.043 A 
HETATM   12  C   UNL     1      39.728 -11.779   3.418  1.00  0.00    -0.001 A 
HETATM   13  C   UNL     1      40.507  -9.467   3.153  1.00  0.00     0.030 A 
HETATM   14  C   UNL     1      39.408  -9.037   3.903  1.00  0.00     0.002 A 
HETATM   15  C   UNL     1      38.483  -9.948   4.406  1.00  0.00     0.001 A 
HETATM   16  C   UNL     1      38.630 -11.321   4.172  1.00  0.00     0.014 A 
HETATM   17  O   UNL     1      43.904 -15.994   2.011  1.00  0.00    -0.247 OA
HETATM   18  H   UNL     1      41.410 -17.333   3.401  1.00  0.00     0.170 HD
ENDROOT
BRANCH   1  19
HETATM   19  C   UNL     1      43.108 -18.484   3.344  1.00  0.00     0.038 A 
HETATM   20  C   UNL     1      43.375 -19.544   2.475  1.00  0.00     0.056 A 
HETATM   21  C   UNL     1      44.185 -20.610   2.885  1.00  0.00     0.069 A 
HETATM   22  C   UNL     1      44.743 -20.629   4.169  1.00  0.00     0.090 A 
HETATM   23 CL   UNL     1      44.505 -21.878   1.753  1.00  0.00    -0.081 Cl
HETATM   24  C   UNL     1      44.443 -19.592   5.054  1.00  0.00     0.041 A 
HETATM   25  C   UNL     1      43.639 -18.525   4.639  1.00  0.00     0.032 A 
BRANCH  22  26
HETATM   26  O   UNL     1      45.516 -21.703   4.528  1.00  0.00    -0.354 OA
HETATM   27  C   UNL     1      44.906 -22.568   5.482  1.00  0.00     0.210 C 
ENDBRANCH  22  26
ENDBRANCH   1  19
TORSDOF 2
ENDMDL
MODEL 10
REMARK VINA RESULT:      -7.6      2.775      2.908
REMARK  2 active torsions:
REMARK  status: ('A' for Active; 'I' for Inactive)
REMARK    1  A    between atoms: O_2  and  C_3 
REMARK    2  A    between atoms: C_7  and  N_8 
REMARK       I    between atoms: N_8  and  C_9 
REMARK       I    between atoms: C_9  and  N_10 
ROOT
HETATM    1  N   UNL     1      41.699 -14.336   4.318  1.00  0.00    -0.309 N 
HETATM    2  C   UNL     1      42.228 -15.010   3.242  1.00  0.00     0.323 C 
HETATM    3  N   UNL     1      43.172 -15.981   3.557  1.00  0.00    -0.328 N 
HETATM    4  C   UNL     1      43.636 -16.831   2.450  1.00  0.00     0.185 C 
HETATM    5  C   UNL     1      43.910 -18.191   2.993  1.00  0.00     0.035 A 
HETATM    6  C   UNL     1      43.989 -18.554   4.323  1.00  0.00    -0.020 A 
HETATM    7  C   UNL     1      43.782 -17.554   5.407  1.00  0.00     0.061 C 
HETATM    8  C   UNL     1      43.919 -16.129   4.828  1.00  0.00     0.132 C 
HETATM    9  N   UNL     1      44.118 -19.308   2.233  1.00  0.00    -0.357 N 
HETATM   10  H   UNL     1      44.109 -19.344   1.223  1.00  0.00     0.166 HD
HETATM   11  C   UNL     1      44.322 -20.398   3.052  1.00  0.00     0.043 A 
HETATM   12  C   UNL     1      44.242 -19.951   4.375  1.00  0.00    -0.001 A 
HETATM   13  C   UNL     1      44.559 -21.738   2.722  1.00  0.00     0.030 A 
HETATM   14  C   UNL     1      44.716 -22.647   3.772  1.00  0.00     0.002 A 
HETATM   15  C   UNL     1      44.640 -22.231   5.099  1.00  0.00     0.001 A 
HETATM   16  C   UNL     1      44.403 -20.887   5.415  1.00  0.00     0.014 A 
HETATM   17  O   UNL     1      41.895 -14.814   2.075  1.00  0.00    -0.247 OA
HETATM   18  H   UNL     1      41.932 -14.696   5.226  1.00  0.00     0.170 HD
ENDROOT
BRANCH   1  19
HETATM   19  C   UNL     1      40.715 -13.323   4.309  1.00  0.00     0.038 A 
HETATM   20  C   UNL     1      39.893 -13.030   3.219  1.00  0.00     0.056 A 
HETATM   21  C   UNL     1      38.917 -12.030   3.315  1.00  0.00     0.069 A 
HETATM   22  C   UNL     1      38.747 -11.312   4.505  1.00  0.00     0.090 A 
HETATM   23 CL   UNL     1      37.910 -11.734   1.941  1.00  0.00    -0.081 Cl
HETATM   24  C   UNL     1      39.594 -11.573   5.583  1.00  0.00     0.041 A 
HETATM   25  C   UNL     1      40.564 -12.577   5.486  1.00  0.00     0.032 A 
BRANCH  22  26
HETATM   26  O   UNL     1      37.789 -10.332   4.544  1.00  0.00    -0.354 OA
HETATM   27  C   UNL     1      38.307  -9.015   4.716  1.00  0.00     0.210 C 
ENDBRANCH  22  26
ENDBRANCH   1  19
TORSDOF 2
ENDMDL
