MODEL 1
REMARK VINA RESULT:      -9.9      0.000      0.000
REMARK  9 active torsions:
REMARK  status: ('A' for Active; 'I' for Inactive)
REMARK    1  A    between atoms: C_2  and  C_3 
REMARK    2  A    between atoms: C_6  and  N_7 
REMARK       I    between atoms: N_7  and  C_8 
REMARK    3  A    between atoms: C_8  and  C_9 
REMARK    4  A    between atoms: C_9  and  S_10 
REMARK    5  A    between atoms: S_10  and  C_11 
REMARK    6  A    between atoms: C_15  and  C_16 
REMARK       I    between atoms: C_16  and  N_17 
REMARK    7  A    between atoms: N_17  and  C_18 
REMARK    8  A    between atoms: C_19  and  O_20 
REMARK    9  A    between atoms: C_27  and  C_28 
ROOT
HETATM    1  C   UNL     1      41.274 -12.831   5.026  1.00  0.00     0.087 C 
HETATM    2  N   UNL     1      42.080 -13.546   5.902  1.00  0.00    -0.353 N 
HETATM    3  C   UNL     1      42.624 -14.792   5.623  1.00  0.00     0.019 C 
HETATM    4  C   UNL     1      43.696 -15.271   6.575  1.00  0.00     0.069 C 
HETATM    5  C   UNL     1      42.209 -15.477   4.533  1.00  0.00     0.046 C 
HETATM    6  C   UNL     1      41.006 -14.982   3.733  1.00  0.00     0.104 C 
HETATM    7  C   UNL     1      40.656 -13.512   4.026  1.00  0.00     0.055 C 
HETATM    8  C   UNL     1      39.511 -12.905   3.232  1.00  0.00     0.019 C 
HETATM    9  N   UNL     1      38.560 -12.402   2.572  1.00  0.00    -0.096 N 
HETATM   10  H   UNL     1      42.589 -13.014   6.601  1.00  0.00     0.166 HD
ENDROOT
BRANCH   1  11
HETATM   11  S   UNL     1      41.101 -11.079   5.069  1.00  0.00    -0.102 SA
BRANCH  11  12
HETATM   12  C   UNL     1      40.492 -10.644   6.709  1.00  0.00     0.184 C 
BRANCH  12  13
HETATM   13  C   UNL     1      41.501 -10.226   7.776  1.00  0.00     0.231 C 
HETATM   14  N   UNL     1      41.773 -11.144   8.768  1.00  0.00    -0.327 N 
HETATM   15  H   UNL     1      41.456 -12.094   8.603  1.00  0.00     0.169 HD
HETATM   16  O   UNL     1      41.943  -9.078   7.740  1.00  0.00    -0.272 OA
BRANCH  14  17
HETATM   17  C   UNL     1      42.230 -10.866  10.077  1.00  0.00     0.034 A 
HETATM   18  C   UNL     1      43.571 -10.666  10.411  1.00  0.00     0.030 A 
HETATM   19  C   UNL     1      43.927 -10.188  11.678  1.00  0.00     0.009 A 
HETATM   20  C   UNL     1      42.949  -9.905  12.637  1.00  0.00    -0.058 A 
HETATM   21  C   UNL     1      41.611 -10.167  12.325  1.00  0.00     0.009 A 
HETATM   22  C   UNL     1      41.258 -10.656  11.062  1.00  0.00     0.030 A 
BRANCH  20  23
HETATM   23  C   UNL     1      43.321  -9.247  13.941  1.00  0.00     0.034 C 
HETATM   24  C   UNL     1      42.387  -9.677  15.067  1.00  0.00     0.010 C 
ENDBRANCH  20  23
ENDBRANCH  14  17
ENDBRANCH  12  13
ENDBRANCH  11  12
ENDBRANCH   1  11
BRANCH   6  25
HETATM   25  C   UNL     1      41.122 -15.233   2.231  1.00  0.00    -0.044 A 
HETATM   26  C   UNL     1      40.691 -16.460   1.694  1.00  0.00     0.008 A 
HETATM   27  C   UNL     1      40.812 -16.721   0.330  1.00  0.00     0.001 A 
HETATM   28  C   UNL     1      41.358 -15.761  -0.517  1.00  0.00     0.000 A 
HETATM   29  C   UNL     1      41.781 -14.538  -0.003  1.00  0.00     0.001 A 
HETATM   30  C   UNL     1      41.660 -14.270   1.361  1.00  0.00     0.008 A 
ENDBRANCH   6  25
BRANCH   5  31
HETATM   31  C   UNL     1      43.143 -16.506   3.981  1.00  0.00     0.255 C 
HETATM   32  N   UNL     1      42.826 -17.810   4.257  1.00  0.00    -0.321 N 
HETATM   33  H   UNL     1      42.086 -18.019   4.917  1.00  0.00     0.169 HD
HETATM   34  O   UNL     1      44.087 -16.127   3.293  1.00  0.00    -0.268 OA
BRANCH  32  35
HETATM   35  C   UNL     1      43.388 -18.959   3.641  1.00  0.00     0.068 A 
HETATM   36  C   UNL     1      44.248 -19.762   4.417  1.00  0.00     0.095 A 
HETATM   37  C   UNL     1      44.787 -20.934   3.870  1.00  0.00     0.039 A 
HETATM   38  C   UNL     1      44.486 -21.306   2.560  1.00  0.00     0.003 A 
HETATM   39  C   UNL     1      43.646 -20.513   1.788  1.00  0.00     0.002 A 
HETATM   40  C   UNL     1      43.098 -19.348   2.327  1.00  0.00     0.032 A 
BRANCH  36  41
HETATM   41  O   UNL     1      44.485 -19.316   5.698  1.00  0.00    -0.354 OA
HETATM   42  C   UNL     1      43.860 -20.053   6.744  1.00  0.00     0.210 C 
ENDBRANCH  36  41
ENDBRANCH  32  35
ENDBRANCH   5  31
TORSDOF 9
ENDMDL
MODEL 2
REMARK VINA RESULT:      -9.5      3.838      8.484
REMARK  9 active torsions:
REMARK  status: ('A' for Active; 'I' for Inactive)
REMARK    1  A    between atoms: C_2  and  C_3 
REMARK    2  A    between atoms: C_6  and  N_7 
REMARK       I    between atoms: N_7  and  C_8 
REMARK    3  A    between atoms: C_8  and  C_9 
REMARK    4  A    between atoms: C_9  and  S_10 
REMARK    5  A    between atoms: S_10  and  C_11 
REMARK    6  A    between atoms: C_15  and  C_16 
REMARK       I    between atoms: C_16  and  N_17 
REMARK    7  A    between atoms: N_17  and  C_18 
REMARK    8  A    between atoms: C_19  and  O_20 
REMARK    9  A    between atoms: C_27  and  C_28 
ROOT
HETATM    1  C   UNL     1      42.257 -14.503   5.069  1.00  0.00     0.087 C 
HETATM    2  N   UNL     1      42.006 -15.683   4.382  1.00  0.00    -0.353 N 
HETATM    3  C   UNL     1      41.116 -15.797   3.323  1.00  0.00     0.019 C 
HETATM    4  C   UNL     1      41.197 -17.081   2.530  1.00  0.00     0.069 C 
HETATM    5  C   UNL     1      40.275 -14.776   3.039  1.00  0.00     0.046 C 
HETATM    6  C   UNL     1      40.158 -13.595   4.001  1.00  0.00     0.104 C 
HETATM    7  C   UNL     1      41.334 -13.508   4.990  1.00  0.00     0.055 C 
HETATM    8  C   UNL     1      41.342 -12.330   5.950  1.00  0.00     0.019 C 
HETATM    9  N   UNL     1      41.348 -11.351   6.745  1.00  0.00    -0.096 N 
HETATM   10  H   UNL     1      42.735 -16.389   4.394  1.00  0.00     0.166 HD
ENDROOT
BRANCH   1  11
HETATM   11  S   UNL     1      43.754 -14.179   5.938  1.00  0.00    -0.102 SA
BRANCH  11  12
HETATM   12  C   UNL     1      43.911 -15.441   7.215  1.00  0.00     0.184 C 
BRANCH  12  13
HETATM   13  C   UNL     1      43.587 -16.889   6.856  1.00  0.00     0.231 C 
HETATM   14  N   UNL     1      44.566 -17.601   6.195  1.00  0.00    -0.327 N 
HETATM   15  H   UNL     1      45.494 -17.189   6.186  1.00  0.00     0.169 HD
HETATM   16  O   UNL     1      42.454 -17.308   7.096  1.00  0.00    -0.272 OA
BRANCH  14  17
HETATM   17  C   UNL     1      44.375 -18.708   5.336  1.00  0.00     0.034 A 
HETATM   18  C   UNL     1      44.110 -18.599   3.970  1.00  0.00     0.030 A 
HETATM   19  C   UNL     1      44.143 -19.731   3.144  1.00  0.00     0.009 A 
HETATM   20  C   UNL     1      44.438 -20.992   3.672  1.00  0.00    -0.058 A 
HETATM   21  C   UNL     1      44.639 -21.110   5.050  1.00  0.00     0.009 A 
HETATM   22  C   UNL     1      44.594 -19.981   5.875  1.00  0.00     0.030 A 
BRANCH  20  23
HETATM   23  C   UNL     1      44.624 -22.180   2.762  1.00  0.00     0.034 C 
HETATM   24  C   UNL     1      43.999 -21.935   1.393  1.00  0.00     0.010 C 
ENDBRANCH  20  23
ENDBRANCH  14  17
ENDBRANCH  12  13
ENDBRANCH  11  12
ENDBRANCH   1  11
BRANCH   6  25
HETATM   25  C   UNL     1      39.923 -12.257   3.304  1.00  0.00    -0.044 A 
HETATM   26  C   UNL     1      40.990 -11.614   2.650  1.00  0.00     0.008 A 
HETATM   27  C   UNL     1      40.805 -10.379   2.030  1.00  0.00     0.001 A 
HETATM   28  C   UNL     1      39.553  -9.772   2.048  1.00  0.00     0.000 A 
HETATM   29  C   UNL     1      38.483 -10.399   2.683  1.00  0.00     0.001 A 
HETATM   30  C   UNL     1      38.663 -11.636   3.304  1.00  0.00     0.008 A 
ENDBRANCH   6  25
BRANCH   5  31
HETATM   31  C   UNL     1      39.741 -14.702   1.645  1.00  0.00     0.255 C 
HETATM   32  N   UNL     1      40.652 -14.383   0.672  1.00  0.00    -0.321 N 
HETATM   33  H   UNL     1      41.582 -14.079   0.934  1.00  0.00     0.169 HD
HETATM   34  O   UNL     1      38.557 -14.971   1.460  1.00  0.00    -0.268 OA
BRANCH  32  35
HETATM   35  C   UNL     1      40.460 -14.506  -0.729  1.00  0.00     0.068 A 
HETATM   36  C   UNL     1      39.844 -13.430  -1.401  1.00  0.00     0.095 A 
HETATM   37  C   UNL     1      39.680 -13.482  -2.792  1.00  0.00     0.039 A 
HETATM   38  C   UNL     1      40.112 -14.595  -3.513  1.00  0.00     0.003 A 
HETATM   39  C   UNL     1      40.712 -15.661  -2.854  1.00  0.00     0.002 A 
HETATM   40  C   UNL     1      40.886 -15.615  -1.470  1.00  0.00     0.032 A 
BRANCH  36  41
HETATM   41  O   UNL     1      39.453 -12.376  -0.607  1.00  0.00    -0.354 OA
HETATM   42  C   UNL     1      38.066 -12.059  -0.623  1.00  0.00     0.210 C 
ENDBRANCH  36  41
ENDBRANCH  32  35
ENDBRANCH   5  31
TORSDOF 9
ENDMDL
MODEL 3
REMARK VINA RESULT:      -9.0      3.635      7.722
REMARK  9 active torsions:
REMARK  status: ('A' for Active; 'I' for Inactive)
REMARK    1  A    between atoms: C_2  and  C_3 
REMARK    2  A    between atoms: C_6  and  N_7 
REMARK       I    between atoms: N_7  and  C_8 
REMARK    3  A    between atoms: C_8  and  C_9 
REMARK    4  A    between atoms: C_9  and  S_10 
REMARK    5  A    between atoms: S_10  and  C_11 
REMARK    6  A    between atoms: C_15  and  C_16 
REMARK       I    between atoms: C_16  and  N_17 
REMARK    7  A    between atoms: N_17  and  C_18 
REMARK    8  A    between atoms: C_19  and  O_20 
REMARK    9  A    between atoms: C_27  and  C_28 
ROOT
HETATM    1  C   UNL     1      39.868 -11.765   3.474  1.00  0.00     0.087 C 
HETATM    2  N   UNL     1      40.632 -11.748   4.634  1.00  0.00    -0.353 N 
HETATM    3  C   UNL     1      41.439 -12.797   5.054  1.00  0.00     0.019 C 
HETATM    4  C   UNL     1      42.402 -12.478   6.174  1.00  0.00     0.069 C 
HETATM    5  C   UNL     1      41.352 -13.998   4.439  1.00  0.00     0.046 C 
HETATM    6  C   UNL     1      40.232 -14.262   3.435  1.00  0.00     0.104 C 
HETATM    7  C   UNL     1      39.569 -12.971   2.924  1.00  0.00     0.055 C 
HETATM    8  C   UNL     1      38.484 -13.123   1.871  1.00  0.00     0.019 C 
HETATM    9  N   UNL     1      37.583 -13.251   0.997  1.00  0.00    -0.096 N 
HETATM   10  H   UNL     1      40.905 -10.839   4.995  1.00  0.00     0.166 HD
ENDROOT
BRANCH   1  11
HETATM   11  S   UNL     1      39.366 -10.312   2.616  1.00  0.00    -0.102 SA
BRANCH  11  12
HETATM   12  C   UNL     1      40.759  -9.784   1.602  1.00  0.00     0.184 C 
BRANCH  12  13
HETATM   13  C   UNL     1      41.330 -10.762   0.578  1.00  0.00     0.231 C 
HETATM   14  N   UNL     1      40.680 -10.842  -0.636  1.00  0.00    -0.327 N 
HETATM   15  H   UNL     1      40.013 -10.104  -0.839  1.00  0.00     0.169 HD
HETATM   16  O   UNL     1      42.272 -11.476   0.919  1.00  0.00    -0.272 OA
BRANCH  14  17
HETATM   17  C   UNL     1      40.663 -11.948  -1.516  1.00  0.00     0.034 A 
HETATM   18  C   UNL     1      41.793 -12.445  -2.168  1.00  0.00     0.030 A 
HETATM   19  C   UNL     1      41.742 -13.665  -2.855  1.00  0.00     0.009 A 
HETATM   20  C   UNL     1      40.558 -14.408  -2.905  1.00  0.00    -0.058 A 
HETATM   21  C   UNL     1      39.410 -13.880  -2.307  1.00  0.00     0.009 A 
HETATM   22  C   UNL     1      39.460 -12.655  -1.631  1.00  0.00     0.030 A 
BRANCH  20  23
HETATM   23  C   UNL     1      40.545 -15.789  -3.510  1.00  0.00     0.034 C 
HETATM   24  C   UNL     1      39.152 -16.170  -3.997  1.00  0.00     0.010 C 
ENDBRANCH  20  23
ENDBRANCH  14  17
ENDBRANCH  12  13
ENDBRANCH  11  12
ENDBRANCH   1  11
BRANCH   6  25
HETATM   25  C   UNL     1      40.649 -15.165   2.275  1.00  0.00    -0.044 A 
HETATM   26  C   UNL     1      40.248 -16.514   2.262  1.00  0.00     0.008 A 
HETATM   27  C   UNL     1      40.638 -17.362   1.226  1.00  0.00     0.001 A 
HETATM   28  C   UNL     1      41.429 -16.876   0.189  1.00  0.00     0.000 A 
HETATM   29  C   UNL     1      41.827 -15.542   0.182  1.00  0.00     0.001 A 
HETATM   30  C   UNL     1      41.437 -14.687   1.215  1.00  0.00     0.008 A 
ENDBRANCH   6  25
BRANCH   5  31
HETATM   31  C   UNL     1      42.542 -14.899   4.535  1.00  0.00     0.255 C 
HETATM   32  N   UNL     1      42.317 -16.130   5.093  1.00  0.00    -0.321 N 
HETATM   33  H   UNL     1      41.426 -16.327   5.534  1.00  0.00     0.169 HD
HETATM   34  O   UNL     1      43.610 -14.502   4.077  1.00  0.00    -0.268 OA
BRANCH  32  35
HETATM   35  C   UNL     1      43.199 -17.241   5.058  1.00  0.00     0.068 A 
HETATM   36  C   UNL     1      43.947 -17.518   6.220  1.00  0.00     0.095 A 
HETATM   37  C   UNL     1      44.793 -18.635   6.252  1.00  0.00     0.039 A 
HETATM   38  C   UNL     1      44.908 -19.467   5.138  1.00  0.00     0.003 A 
HETATM   39  C   UNL     1      44.180 -19.192   3.987  1.00  0.00     0.002 A 
HETATM   40  C   UNL     1      43.329 -18.086   3.949  1.00  0.00     0.032 A 
BRANCH  36  41
HETATM   41  O   UNL     1      43.766 -16.645   7.269  1.00  0.00    -0.354 OA
HETATM   42  C   UNL     1      43.436 -17.231   8.523  1.00  0.00     0.210 C 
ENDBRANCH  36  41
ENDBRANCH  32  35
ENDBRANCH   5  31
TORSDOF 9
ENDMDL
MODEL 4
REMARK VINA RESULT:      -8.9      4.490      9.331
REMARK  9 active torsions:
REMARK  status: ('A' for Active; 'I' for Inactive)
REMARK    1  A    between atoms: C_2  and  C_3 
REMARK    2  A    between atoms: C_6  and  N_7 
REMARK       I    between atoms: N_7  and  C_8 
REMARK    3  A    between atoms: C_8  and  C_9 
REMARK    4  A    between atoms: C_9  and  S_10 
REMARK    5  A    between atoms: S_10  and  C_11 
REMARK    6  A    between atoms: C_15  and  C_16 
REMARK       I    between atoms: C_16  and  N_17 
REMARK    7  A    between atoms: N_17  and  C_18 
REMARK    8  A    between atoms: C_19  and  O_20 
REMARK    9  A    between atoms: C_27  and  C_28 
ROOT
HETATM    1  C   UNL     1      41.332 -14.248   2.794  1.00  0.00     0.087 C 
HETATM    2  N   UNL     1      41.562 -15.125   1.742  1.00  0.00    -0.353 N 
HETATM    3  C   UNL     1      40.891 -15.082   0.528  1.00  0.00     0.019 C 
HETATM    4  C   UNL     1      41.479 -15.926  -0.580  1.00  0.00     0.069 C 
HETATM    5  C   UNL     1      39.805 -14.288   0.389  1.00  0.00     0.046 C 
HETATM    6  C   UNL     1      39.196 -13.607   1.613  1.00  0.00     0.104 C 
HETATM    7  C   UNL     1      40.152 -13.574   2.818  1.00  0.00     0.055 C 
HETATM    8  C   UNL     1      39.663 -12.860   4.067  1.00  0.00     0.019 C 
HETATM    9  N   UNL     1      39.255 -12.268   5.104  1.00  0.00    -0.096 N 
HETATM   10  H   UNL     1      42.474 -15.569   1.701  1.00  0.00     0.166 HD
ENDROOT
BRANCH   1  11
HETATM   11  S   UNL     1      42.527 -13.876   4.033  1.00  0.00    -0.102 SA
BRANCH  11  12
HETATM   12  C   UNL     1      42.134 -14.887   5.472  1.00  0.00     0.184 C 
BRANCH  12  13
HETATM   13  C   UNL     1      42.332 -16.398   5.380  1.00  0.00     0.231 C 
HETATM   14  N   UNL     1      43.627 -16.848   5.234  1.00  0.00    -0.327 N 
HETATM   15  H   UNL     1      44.363 -16.172   5.413  1.00  0.00     0.169 HD
HETATM   16  O   UNL     1      41.331 -17.114   5.355  1.00  0.00    -0.272 OA
BRANCH  14  17
HETATM   17  C   UNL     1      44.040 -18.065   4.642  1.00  0.00     0.034 A 
HETATM   18  C   UNL     1      44.557 -19.145   5.358  1.00  0.00     0.030 A 
HETATM   19  C   UNL     1      44.745 -20.388   4.738  1.00  0.00     0.009 A 
HETATM   20  C   UNL     1      44.423 -20.569   3.389  1.00  0.00    -0.058 A 
HETATM   21  C   UNL     1      43.966 -19.470   2.656  1.00  0.00     0.009 A 
HETATM   22  C   UNL     1      43.790 -18.227   3.274  1.00  0.00     0.030 A 
BRANCH  20  23
HETATM   23  C   UNL     1      44.480 -21.941   2.765  1.00  0.00     0.034 C 
HETATM   24  C   UNL     1      43.993 -21.916   1.321  1.00  0.00     0.010 C 
ENDBRANCH  20  23
ENDBRANCH  14  17
ENDBRANCH  12  13
ENDBRANCH  11  12
ENDBRANCH   1  11
BRANCH   6  25
HETATM   25  C   UNL     1      38.625 -12.220   1.323  1.00  0.00    -0.044 A 
HETATM   26  C   UNL     1      39.496 -11.130   1.145  1.00  0.00     0.008 A 
HETATM   27  C   UNL     1      38.996  -9.851   0.905  1.00  0.00     0.001 A 
HETATM   28  C   UNL     1      37.622  -9.643   0.835  1.00  0.00     0.000 A 
HETATM   29  C   UNL     1      36.746 -10.713   1.000  1.00  0.00     0.001 A 
HETATM   30  C   UNL     1      37.241 -11.996   1.238  1.00  0.00     0.008 A 
ENDBRANCH   6  25
BRANCH   5  31
HETATM   31  C   UNL     1      39.447 -13.862  -1.000  1.00  0.00     0.255 C 
HETATM   32  N   UNL     1      38.192 -14.208  -1.426  1.00  0.00    -0.321 N 
HETATM   33  H   UNL     1      37.627 -14.837  -0.867  1.00  0.00     0.169 HD
HETATM   34  O   UNL     1      40.267 -13.206  -1.637  1.00  0.00    -0.268 OA
BRANCH  32  35
HETATM   35  C   UNL     1      37.528 -13.706  -2.576  1.00  0.00     0.068 A 
HETATM   36  C   UNL     1      37.303 -14.599  -3.642  1.00  0.00     0.095 A 
HETATM   37  C   UNL     1      36.606 -14.164  -4.778  1.00  0.00     0.039 A 
HETATM   38  C   UNL     1      36.143 -12.852  -4.863  1.00  0.00     0.003 A 
HETATM   39  C   UNL     1      36.370 -11.965  -3.818  1.00  0.00     0.002 A 
HETATM   40  C   UNL     1      37.057 -12.391  -2.680  1.00  0.00     0.032 A 
BRANCH  36  41
HETATM   41  O   UNL     1      37.794 -15.873  -3.467  1.00  0.00    -0.354 OA
HETATM   42  C   UNL     1      38.958 -16.205  -4.217  1.00  0.00     0.210 C 
ENDBRANCH  36  41
ENDBRANCH  32  35
ENDBRANCH   5  31
TORSDOF 9
ENDMDL
MODEL 5
REMARK VINA RESULT:      -8.8      2.578      5.218
REMARK  9 active torsions:
REMARK  status: ('A' for Active; 'I' for Inactive)
REMARK    1  A    between atoms: C_2  and  C_3 
REMARK    2  A    between atoms: C_6  and  N_7 
REMARK       I    between atoms: N_7  and  C_8 
REMARK    3  A    between atoms: C_8  and  C_9 
REMARK    4  A    between atoms: C_9  and  S_10 
REMARK    5  A    between atoms: S_10  and  C_11 
REMARK    6  A    between atoms: C_15  and  C_16 
REMARK       I    between atoms: C_16  and  N_17 
REMARK    7  A    between atoms: N_17  and  C_18 
REMARK    8  A    between atoms: C_19  and  O_20 
REMARK    9  A    between atoms: C_27  and  C_28 
ROOT
HETATM    1  C   UNL     1      41.623 -12.721   4.460  1.00  0.00     0.087 C 
HETATM    2  N   UNL     1      41.360 -11.769   3.484  1.00  0.00    -0.353 N 
HETATM    3  C   UNL     1      41.516 -11.982   2.121  1.00  0.00     0.019 C 
HETATM    4  C   UNL     1      40.909 -10.933   1.217  1.00  0.00     0.069 C 
HETATM    5  C   UNL     1      42.149 -13.094   1.684  1.00  0.00     0.046 C 
HETATM    6  C   UNL     1      42.870 -14.003   2.678  1.00  0.00     0.104 C 
HETATM    7  C   UNL     1      42.434 -13.762   4.134  1.00  0.00     0.055 C 
HETATM    8  C   UNL     1      43.048 -14.661   5.195  1.00  0.00     0.019 C 
HETATM    9  N   UNL     1      43.558 -15.408   6.074  1.00  0.00    -0.096 N 
HETATM   10  H   UNL     1      40.699 -11.035   3.720  1.00  0.00     0.166 HD
ENDROOT
BRANCH   1  11
HETATM   11  S   UNL     1      40.875 -12.718   6.054  1.00  0.00    -0.102 SA
BRANCH  11  12
HETATM   12  C   UNL     1      40.611 -10.995   6.514  1.00  0.00     0.184 C 
BRANCH  12  13
HETATM   13  C   UNL     1      41.608 -10.330   7.460  1.00  0.00     0.231 C 
HETATM   14  N   UNL     1      41.869 -10.981   8.647  1.00  0.00    -0.327 N 
HETATM   15  H   UNL     1      41.554 -11.944   8.712  1.00  0.00     0.169 HD
HETATM   16  O   UNL     1      42.050  -9.223   7.153  1.00  0.00    -0.272 OA
BRANCH  14  17
HETATM   17  C   UNL     1      42.311 -10.395   9.856  1.00  0.00     0.034 A 
HETATM   18  C   UNL     1      41.695  -9.298  10.462  1.00  0.00     0.030 A 
HETATM   19  C   UNL     1      42.054  -8.905  11.758  1.00  0.00     0.009 A 
HETATM   20  C   UNL     1      43.037  -9.600  12.469  1.00  0.00    -0.058 A 
HETATM   21  C   UNL     1      43.698 -10.658  11.838  1.00  0.00     0.009 A 
HETATM   22  C   UNL     1      43.347 -11.042  10.539  1.00  0.00     0.030 A 
BRANCH  20  23
HETATM   23  C   UNL     1      43.312  -9.273  13.915  1.00  0.00     0.034 C 
HETATM   24  C   UNL     1      42.356 -10.013  14.845  1.00  0.00     0.010 C 
ENDBRANCH  20  23
ENDBRANCH  14  17
ENDBRANCH  12  13
ENDBRANCH  11  12
ENDBRANCH   1  11
BRANCH   6  25
HETATM   25  C   UNL     1      42.798 -15.486   2.318  1.00  0.00    -0.044 A 
HETATM   26  C   UNL     1      41.593 -16.190   2.500  1.00  0.00     0.008 A 
HETATM   27  C   UNL     1      41.512 -17.549   2.202  1.00  0.00     0.001 A 
HETATM   28  C   UNL     1      42.628 -18.223   1.716  1.00  0.00     0.000 A 
HETATM   29  C   UNL     1      43.825 -17.539   1.521  1.00  0.00     0.001 A 
HETATM   30  C   UNL     1      43.912 -16.177   1.815  1.00  0.00     0.008 A 
ENDBRANCH   6  25
BRANCH   5  31
HETATM   31  C   UNL     1      41.841 -13.549   0.293  1.00  0.00     0.255 C 
HETATM   32  N   UNL     1      40.654 -14.214   0.130  1.00  0.00    -0.321 N 
HETATM   33  H   UNL     1      40.117 -14.490   0.943  1.00  0.00     0.169 HD
HETATM   34  O   UNL     1      42.634 -13.264  -0.601  1.00  0.00    -0.268 OA
BRANCH  32  35
HETATM   35  C   UNL     1      40.020 -14.508  -1.105  1.00  0.00     0.068 A 
HETATM   36  C   UNL     1      38.736 -13.969  -1.325  1.00  0.00     0.095 A 
HETATM   37  C   UNL     1      38.090 -14.189  -2.549  1.00  0.00     0.039 A 
HETATM   38  C   UNL     1      38.705 -14.945  -3.547  1.00  0.00     0.003 A 
HETATM   39  C   UNL     1      39.967 -15.486  -3.331  1.00  0.00     0.002 A 
HETATM   40  C   UNL     1      40.621 -15.266  -2.118  1.00  0.00     0.032 A 
BRANCH  36  41
HETATM   41  O   UNL     1      38.211 -13.236  -0.285  1.00  0.00    -0.354 OA
HETATM   42  C   UNL     1      37.322 -13.928   0.585  1.00  0.00     0.210 C 
ENDBRANCH  36  41
ENDBRANCH  32  35
ENDBRANCH   5  31
TORSDOF 9
ENDMDL
MODEL 6
REMARK VINA RESULT:      -8.8      4.767      9.889
REMARK  9 active torsions:
REMARK  status: ('A' for Active; 'I' for Inactive)
REMARK    1  A    between atoms: C_2  and  C_3 
REMARK    2  A    between atoms: C_6  and  N_7 
REMARK       I    between atoms: N_7  and  C_8 
REMARK    3  A    between atoms: C_8  and  C_9 
REMARK    4  A    between atoms: C_9  and  S_10 
REMARK    5  A    between atoms: S_10  and  C_11 
REMARK    6  A    between atoms: C_15  and  C_16 
REMARK       I    between atoms: C_16  and  N_17 
REMARK    7  A    between atoms: N_17  and  C_18 
REMARK    8  A    between atoms: C_19  and  O_20 
REMARK    9  A    between atoms: C_27  and  C_28 
ROOT
HETATM    1  C   UNL     1      41.432 -12.961   1.504  1.00  0.00     0.087 C 
HETATM    2  N   UNL     1      42.222 -11.903   1.073  1.00  0.00    -0.353 N 
HETATM    3  C   UNL     1      42.456 -11.594  -0.260  1.00  0.00     0.019 C 
HETATM    4  C   UNL     1      43.098 -10.251  -0.521  1.00  0.00     0.069 C 
HETATM    5  C   UNL     1      42.080 -12.462  -1.226  1.00  0.00     0.046 C 
HETATM    6  C   UNL     1      41.594 -13.861  -0.849  1.00  0.00     0.104 C 
HETATM    7  C   UNL     1      41.193 -13.976   0.632  1.00  0.00     0.055 C 
HETATM    8  C   UNL     1      40.635 -15.313   1.093  1.00  0.00     0.019 C 
HETATM    9  N   UNL     1      40.173 -16.422   1.475  1.00  0.00    -0.096 N 
HETATM   10  H   UNL     1      42.336 -11.121   1.710  1.00  0.00     0.166 HD
ENDROOT
BRANCH   1  11
HETATM   11  S   UNL     1      40.630 -13.005   3.070  1.00  0.00    -0.102 SA
BRANCH  11  12
HETATM   12  C   UNL     1      41.836 -13.601   4.269  1.00  0.00     0.184 C 
BRANCH  12  13
HETATM   13  C   UNL     1      42.071 -15.105   4.383  1.00  0.00     0.231 C 
HETATM   14  N   UNL     1      43.290 -15.580   3.945  1.00  0.00    -0.327 N 
HETATM   15  H   UNL     1      44.012 -14.885   3.782  1.00  0.00     0.169 HD
HETATM   16  O   UNL     1      41.141 -15.811   4.774  1.00  0.00    -0.272 OA
BRANCH  14  17
HETATM   17  C   UNL     1      43.572 -16.883   3.475  1.00  0.00     0.034 A 
HETATM   18  C   UNL     1      43.666 -18.007   4.298  1.00  0.00     0.030 A 
HETATM   19  C   UNL     1      43.737 -19.292   3.746  1.00  0.00     0.009 A 
HETATM   20  C   UNL     1      43.719 -19.477   2.360  1.00  0.00    -0.058 A 
HETATM   21  C   UNL     1      43.690 -18.348   1.535  1.00  0.00     0.009 A 
HETATM   22  C   UNL     1      43.631 -17.064   2.088  1.00  0.00     0.030 A 
BRANCH  20  23
HETATM   23  C   UNL     1      43.640 -20.863   1.772  1.00  0.00     0.034 C 
HETATM   24  C   UNL     1      44.400 -21.873   2.624  1.00  0.00     0.010 C 
ENDBRANCH  20  23
ENDBRANCH  14  17
ENDBRANCH  12  13
ENDBRANCH  11  12
ENDBRANCH   1  11
BRANCH   6  25
HETATM   25  C   UNL     1      40.493 -14.395  -1.763  1.00  0.00    -0.044 A 
HETATM   26  C   UNL     1      40.792 -15.399  -2.702  1.00  0.00     0.008 A 
HETATM   27  C   UNL     1      39.808 -15.884  -3.563  1.00  0.00     0.001 A 
HETATM   28  C   UNL     1      38.514 -15.377  -3.497  1.00  0.00     0.000 A 
HETATM   29  C   UNL     1      38.199 -14.389  -2.567  1.00  0.00     0.001 A 
HETATM   30  C   UNL     1      39.179 -13.902  -1.701  1.00  0.00     0.008 A 
ENDBRANCH   6  25
BRANCH   5  31
HETATM   31  C   UNL     1      41.856 -11.902  -2.594  1.00  0.00     0.255 C 
HETATM   32  N   UNL     1      40.800 -11.037  -2.721  1.00  0.00    -0.321 N 
HETATM   33  H   UNL     1      40.148 -10.924  -1.953  1.00  0.00     0.169 HD
HETATM   34  O   UNL     1      42.642 -12.210  -3.486  1.00  0.00    -0.268 OA
BRANCH  32  35
HETATM   35  C   UNL     1      40.541 -10.184  -3.825  1.00  0.00     0.068 A 
HETATM   36  C   UNL     1      40.711  -8.798  -3.633  1.00  0.00     0.095 A 
HETATM   37  C   UNL     1      40.518  -7.919  -4.707  1.00  0.00     0.039 A 
HETATM   38  C   UNL     1      40.150  -8.405  -5.961  1.00  0.00     0.003 A 
HETATM   39  C   UNL     1      39.973  -9.770  -6.153  1.00  0.00     0.002 A 
HETATM   40  C   UNL     1      40.170 -10.654  -5.091  1.00  0.00     0.032 A 
BRANCH  36  41
HETATM   41  O   UNL     1      41.077  -8.412  -2.363  1.00  0.00    -0.354 OA
HETATM   42  C   UNL     1      40.268  -7.412  -1.754  1.00  0.00     0.210 C 
ENDBRANCH  36  41
ENDBRANCH  32  35
ENDBRANCH   5  31
TORSDOF 9
ENDMDL
MODEL 7
REMARK VINA RESULT:      -8.7      2.749      5.613
REMARK  9 active torsions:
REMARK  status: ('A' for Active; 'I' for Inactive)
REMARK    1  A    between atoms: C_2  and  C_3 
REMARK    2  A    between atoms: C_6  and  N_7 
REMARK       I    between atoms: N_7  and  C_8 
REMARK    3  A    between atoms: C_8  and  C_9 
REMARK    4  A    between atoms: C_9  and  S_10 
REMARK    5  A    between atoms: S_10  and  C_11 
REMARK    6  A    between atoms: C_15  and  C_16 
REMARK       I    between atoms: C_16  and  N_17 
REMARK    7  A    between atoms: N_17  and  C_18 
REMARK    8  A    between atoms: C_19  and  O_20 
REMARK    9  A    between atoms: C_27  and  C_28 
ROOT
HETATM    1  C   UNL     1      40.625 -12.336   4.335  1.00  0.00     0.087 C 
HETATM    2  N   UNL     1      39.719 -11.673   3.518  1.00  0.00    -0.353 N 
HETATM    3  C   UNL     1      39.358 -12.095   2.246  1.00  0.00     0.019 C 
HETATM    4  C   UNL     1      38.157 -11.406   1.640  1.00  0.00     0.069 C 
HETATM    5  C   UNL     1      40.051 -13.091   1.648  1.00  0.00     0.046 C 
HETATM    6  C   UNL     1      41.347 -13.602   2.274  1.00  0.00     0.104 C 
HETATM    7  C   UNL     1      41.496 -13.201   3.752  1.00  0.00     0.055 C 
HETATM    8  C   UNL     1      42.724 -13.716   4.486  1.00  0.00     0.019 C 
HETATM    9  N   UNL     1      43.743 -14.144   5.093  1.00  0.00    -0.096 N 
HETATM   10  H   UNL     1      39.030 -11.083   3.974  1.00  0.00     0.166 HD
ENDROOT
BRANCH   1  11
HETATM   11  S   UNL     1      40.630 -12.209   6.091  1.00  0.00    -0.102 SA
BRANCH  11  12
HETATM   12  C   UNL     1      40.749 -10.457   6.497  1.00  0.00     0.184 C 
BRANCH  12  13
HETATM   13  C   UNL     1      41.666 -10.032   7.641  1.00  0.00     0.231 C 
HETATM   14  N   UNL     1      41.980 -10.994   8.577  1.00  0.00    -0.327 N 
HETATM   15  H   UNL     1      41.761 -11.954   8.329  1.00  0.00     0.169 HD
HETATM   16  O   UNL     1      41.999  -8.849   7.710  1.00  0.00    -0.272 OA
BRANCH  14  17
HETATM   17  C   UNL     1      42.351 -10.777   9.925  1.00  0.00     0.034 A 
HETATM   18  C   UNL     1      43.672 -10.708  10.369  1.00  0.00     0.030 A 
HETATM   19  C   UNL     1      43.966 -10.282  11.671  1.00  0.00     0.009 A 
HETATM   20  C   UNL     1      42.943  -9.919  12.552  1.00  0.00    -0.058 A 
HETATM   21  C   UNL     1      41.617 -10.049  12.128  1.00  0.00     0.009 A 
HETATM   22  C   UNL     1      41.324 -10.487  10.831  1.00  0.00     0.030 A 
BRANCH  20  23
HETATM   23  C   UNL     1      43.265  -9.316  13.896  1.00  0.00     0.034 C 
HETATM   24  C   UNL     1      42.332  -9.840  14.981  1.00  0.00     0.010 C 
ENDBRANCH  20  23
ENDBRANCH  14  17
ENDBRANCH  12  13
ENDBRANCH  11  12
ENDBRANCH   1  11
BRANCH   6  25
HETATM   25  C   UNL     1      41.570 -15.101   2.084  1.00  0.00    -0.044 A 
HETATM   26  C   UNL     1      42.452 -15.553   1.084  1.00  0.00     0.008 A 
HETATM   27  C   UNL     1      42.651 -16.917   0.875  1.00  0.00     0.001 A 
HETATM   28  C   UNL     1      41.979 -17.848   1.663  1.00  0.00     0.000 A 
HETATM   29  C   UNL     1      41.111 -17.417   2.662  1.00  0.00     0.001 A 
HETATM   30  C   UNL     1      40.909 -16.053   2.877  1.00  0.00     0.008 A 
ENDBRANCH   6  25
BRANCH   5  31
HETATM   31  C   UNL     1      39.348 -13.857   0.573  1.00  0.00     0.255 C 
HETATM   32  N   UNL     1      39.821 -13.672  -0.700  1.00  0.00    -0.321 N 
HETATM   33  H   UNL     1      40.503 -12.946  -0.882  1.00  0.00     0.169 HD
HETATM   34  O   UNL     1      38.443 -14.621   0.900  1.00  0.00    -0.268 OA
BRANCH  32  35
HETATM   35  C   UNL     1      39.508 -14.465  -1.835  1.00  0.00     0.068 A 
HETATM   36  C   UNL     1      38.323 -14.163  -2.536  1.00  0.00     0.095 A 
HETATM   37  C   UNL     1      37.998 -14.884  -3.693  1.00  0.00     0.039 A 
HETATM   38  C   UNL     1      38.832 -15.905  -4.148  1.00  0.00     0.003 A 
HETATM   39  C   UNL     1      39.996 -16.213  -3.454  1.00  0.00     0.002 A 
HETATM   40  C   UNL     1      40.333 -15.495  -2.305  1.00  0.00     0.032 A 
BRANCH  36  41
HETATM   41  O   UNL     1      37.565 -13.139  -2.014  1.00  0.00    -0.354 OA
HETATM   42  C   UNL     1      37.311 -12.041  -2.884  1.00  0.00     0.210 C 
ENDBRANCH  36  41
ENDBRANCH  32  35
ENDBRANCH   5  31
TORSDOF 9
ENDMDL
MODEL 8
REMARK VINA RESULT:      -8.4      2.062      2.818
REMARK  9 active torsions:
REMARK  status: ('A' for Active; 'I' for Inactive)
REMARK    1  A    between atoms: C_2  and  C_3 
REMARK    2  A    between atoms: C_6  and  N_7 
REMARK       I    between atoms: N_7  and  C_8 
REMARK    3  A    between atoms: C_8  and  C_9 
REMARK    4  A    between atoms: C_9  and  S_10 
REMARK    5  A    between atoms: S_10  and  C_11 
REMARK    6  A    between atoms: C_15  and  C_16 
REMARK       I    between atoms: C_16  and  N_17 
REMARK    7  A    between atoms: N_17  and  C_18 
REMARK    8  A    between atoms: C_19  and  O_20 
REMARK    9  A    between atoms: C_27  and  C_28 
ROOT
HETATM    1  C   UNL     1      38.660 -11.711   3.642  1.00  0.00     0.087 C 
HETATM    2  N   UNL     1      39.051 -12.454   4.748  1.00  0.00    -0.353 N 
HETATM    3  C   UNL     1      39.872 -13.571   4.689  1.00  0.00     0.019 C 
HETATM    4  C   UNL     1      40.410 -14.063   6.013  1.00  0.00     0.069 C 
HETATM    5  C   UNL     1      40.170 -14.123   3.491  1.00  0.00     0.046 C 
HETATM    6  C   UNL     1      39.442 -13.653   2.233  1.00  0.00     0.104 C 
HETATM    7  C   UNL     1      38.740 -12.297   2.418  1.00  0.00     0.055 C 
HETATM    8  C   UNL     1      38.039 -11.711   1.203  1.00  0.00     0.019 C 
HETATM    9  N   UNL     1      37.458 -11.226   0.194  1.00  0.00    -0.096 N 
HETATM   10  H   UNL     1      39.051 -11.981   5.647  1.00  0.00     0.166 HD
ENDROOT
BRANCH   1  11
HETATM   11  S   UNL     1      38.181 -10.018   3.723  1.00  0.00    -0.102 SA
BRANCH  11  12
HETATM   12  C   UNL     1      39.460  -9.146   4.646  1.00  0.00     0.184 C 
BRANCH  12  13
HETATM   13  C   UNL     1      39.568  -9.386   6.149  1.00  0.00     0.231 C 
HETATM   14  N   UNL     1      40.721  -8.949   6.768  1.00  0.00    -0.327 N 
HETATM   15  H   UNL     1      41.308  -8.318   6.232  1.00  0.00     0.169 HD
HETATM   16  O   UNL     1      38.672 -10.023   6.702  1.00  0.00    -0.272 OA
BRANCH  14  17
HETATM   17  C   UNL     1      41.289  -9.458   7.958  1.00  0.00     0.034 A 
HETATM   18  C   UNL     1      42.150 -10.557   8.004  1.00  0.00     0.030 A 
HETATM   19  C   UNL     1      42.839 -10.875   9.182  1.00  0.00     0.009 A 
HETATM   20  C   UNL     1      42.678 -10.101  10.335  1.00  0.00    -0.058 A 
HETATM   21  C   UNL     1      41.767  -9.040  10.308  1.00  0.00     0.009 A 
HETATM   22  C   UNL     1      41.070  -8.731   9.134  1.00  0.00     0.030 A 
BRANCH  20  23
HETATM   23  C   UNL     1      43.533 -10.349  11.552  1.00  0.00     0.034 C 
HETATM   24  C   UNL     1      44.786 -11.143  11.198  1.00  0.00     0.010 C 
ENDBRANCH  20  23
ENDBRANCH  14  17
ENDBRANCH  12  13
ENDBRANCH  11  12
ENDBRANCH   1  11
BRANCH   6  25
HETATM   25  C   UNL     1      40.318 -13.655   0.981  1.00  0.00    -0.044 A 
HETATM   26  C   UNL     1      41.185 -12.575   0.735  1.00  0.00     0.008 A 
HETATM   27  C   UNL     1      41.974 -12.544  -0.414  1.00  0.00     0.001 A 
HETATM   28  C   UNL     1      41.912 -13.590  -1.330  1.00  0.00     0.000 A 
HETATM   29  C   UNL     1      41.065 -14.671  -1.097  1.00  0.00     0.001 A 
HETATM   30  C   UNL     1      40.275 -14.709   0.053  1.00  0.00     0.008 A 
ENDBRANCH   6  25
BRANCH   5  31
HETATM   31  C   UNL     1      41.420 -14.940   3.410  1.00  0.00     0.255 C 
HETATM   32  N   UNL     1      41.243 -16.291   3.270  1.00  0.00    -0.321 N 
HETATM   33  H   UNL     1      40.316 -16.690   3.366  1.00  0.00     0.169 HD
HETATM   34  O   UNL     1      42.500 -14.355   3.430  1.00  0.00    -0.268 OA
BRANCH  32  35
HETATM   35  C   UNL     1      42.241 -17.236   2.912  1.00  0.00     0.068 A 
HETATM   36  C   UNL     1      42.775 -18.041   3.938  1.00  0.00     0.095 A 
HETATM   37  C   UNL     1      43.725 -19.023   3.627  1.00  0.00     0.039 A 
HETATM   38  C   UNL     1      44.152 -19.201   2.311  1.00  0.00     0.003 A 
HETATM   39  C   UNL     1      43.635 -18.403   1.298  1.00  0.00     0.002 A 
HETATM   40  C   UNL     1      42.683 -17.428   1.597  1.00  0.00     0.032 A 
BRANCH  36  41
HETATM   41  O   UNL     1      42.291 -17.795   5.203  1.00  0.00    -0.354 OA
HETATM   42  C   UNL     1      42.933 -18.490   6.266  1.00  0.00     0.210 C 
ENDBRANCH  36  41
ENDBRANCH  32  35
ENDBRANCH   5  31
TORSDOF 9
ENDMDL
MODEL 9
REMARK VINA RESULT:      -8.2      4.519     10.062
REMARK  9 active torsions:
REMARK  status: ('A' for Active; 'I' for Inactive)
REMARK    1  A    between atoms: C_2  and  C_3 
REMARK    2  A    between atoms: C_6  and  N_7 
REMARK       I    between atoms: N_7  and  C_8 
REMARK    3  A    between atoms: C_8  and  C_9 
REMARK    4  A    between atoms: C_9  and  S_10 
REMARK    5  A    between atoms: S_10  and  C_11 
REMARK    6  A    between atoms: C_15  and  C_16 
REMARK       I    between atoms: C_16  and  N_17 
REMARK    7  A    between atoms: N_17  and  C_18 
REMARK    8  A    between atoms: C_19  and  O_20 
REMARK    9  A    between atoms: C_27  and  C_28 
ROOT
HETATM    1  C   UNL     1      41.617 -14.421   0.075  1.00  0.00     0.087 C 
HETATM    2  N   UNL     1      42.112 -15.719   0.065  1.00  0.00    -0.353 N 
HETATM    3  C   UNL     1      42.475 -16.426   1.203  1.00  0.00     0.019 C 
HETATM    4  C   UNL     1      42.714 -17.906   1.011  1.00  0.00     0.069 C 
HETATM    5  C   UNL     1      42.559 -15.786   2.392  1.00  0.00     0.046 C 
HETATM    6  C   UNL     1      42.463 -14.263   2.448  1.00  0.00     0.104 C 
HETATM    7  C   UNL     1      41.858 -13.654   1.171  1.00  0.00     0.055 C 
HETATM    8  C   UNL     1      41.660 -12.147   1.152  1.00  0.00     0.019 C 
HETATM    9  N   UNL     1      41.497 -10.896   1.137  1.00  0.00    -0.096 N 
HETATM   10  H   UNL     1      41.867 -16.302  -0.729  1.00  0.00     0.166 HD
ENDROOT
BRANCH   1  11
HETATM   11  S   UNL     1      40.600 -13.756  -1.199  1.00  0.00    -0.102 SA
BRANCH  11  12
HETATM   12  C   UNL     1      40.387 -15.046  -2.439  1.00  0.00     0.184 C 
BRANCH  12  13
HETATM   13  C   UNL     1      39.388 -14.815  -3.570  1.00  0.00     0.231 C 
HETATM   14  N   UNL     1      38.698 -13.622  -3.557  1.00  0.00    -0.327 N 
HETATM   15  H   UNL     1      39.052 -12.903  -2.934  1.00  0.00     0.169 HD
HETATM   16  O   UNL     1      39.194 -15.731  -4.369  1.00  0.00    -0.272 OA
BRANCH  14  17
HETATM   17  C   UNL     1      37.430 -13.369  -4.131  1.00  0.00     0.034 A 
HETATM   18  C   UNL     1      36.493 -14.363  -4.420  1.00  0.00     0.030 A 
HETATM   19  C   UNL     1      35.184 -14.024  -4.787  1.00  0.00     0.009 A 
HETATM   20  C   UNL     1      34.791 -12.684  -4.876  1.00  0.00    -0.058 A 
HETATM   21  C   UNL     1      35.747 -11.690  -4.649  1.00  0.00     0.009 A 
HETATM   22  C   UNL     1      37.057 -12.030  -4.294  1.00  0.00     0.030 A 
BRANCH  20  23
HETATM   23  C   UNL     1      33.348 -12.323  -5.120  1.00  0.00     0.034 C 
HETATM   24  C   UNL     1      32.493 -12.576  -3.882  1.00  0.00     0.010 C 
ENDBRANCH  20  23
ENDBRANCH  14  17
ENDBRANCH  12  13
ENDBRANCH  11  12
ENDBRANCH   1  11
BRANCH   6  25
HETATM   25  C   UNL     1      41.758 -13.738   3.697  1.00  0.00    -0.044 A 
HETATM   26  C   UNL     1      42.512 -13.141   4.725  1.00  0.00     0.008 A 
HETATM   27  C   UNL     1      41.893 -12.679   5.885  1.00  0.00     0.001 A 
HETATM   28  C   UNL     1      40.514 -12.800   6.034  1.00  0.00     0.000 A 
HETATM   29  C   UNL     1      39.752 -13.380   5.023  1.00  0.00     0.001 A 
HETATM   30  C   UNL     1      40.367 -13.843   3.858  1.00  0.00     0.008 A 
ENDBRANCH   6  25
BRANCH   5  31
HETATM   31  C   UNL     1      42.424 -16.622   3.625  1.00  0.00     0.255 C 
HETATM   32  N   UNL     1      43.551 -16.736   4.396  1.00  0.00    -0.321 N 
HETATM   33  H   UNL     1      44.436 -16.388   4.049  1.00  0.00     0.169 HD
HETATM   34  O   UNL     1      41.324 -17.104   3.883  1.00  0.00    -0.268 OA
BRANCH  32  35
HETATM   35  C   UNL     1      43.612 -17.242   5.722  1.00  0.00     0.068 A 
HETATM   36  C   UNL     1      43.987 -18.590   5.889  1.00  0.00     0.095 A 
HETATM   37  C   UNL     1      44.112 -19.122   7.180  1.00  0.00     0.039 A 
HETATM   38  C   UNL     1      43.858 -18.328   8.298  1.00  0.00     0.003 A 
HETATM   39  C   UNL     1      43.480 -17.001   8.138  1.00  0.00     0.002 A 
HETATM   40  C   UNL     1      43.360 -16.461   6.856  1.00  0.00     0.032 A 
BRANCH  36  41
HETATM   41  O   UNL     1      44.220 -19.294   4.728  1.00  0.00    -0.354 OA
HETATM   42  C   UNL     1      44.906 -20.532   4.873  1.00  0.00     0.210 C 
ENDBRANCH  36  41
ENDBRANCH  32  35
ENDBRANCH   5  31
TORSDOF 9
ENDMDL
MODEL 10
REMARK VINA RESULT:      -8.0      4.290      8.898
REMARK  9 active torsions:
REMARK  status: ('A' for Active; 'I' for Inactive)
REMARK    1  A    between atoms: C_2  and  C_3 
REMARK    2  A    between atoms: C_6  and  N_7 
REMARK       I    between atoms: N_7  and  C_8 
REMARK    3  A    between atoms: C_8  and  C_9 
REMARK    4  A    between atoms: C_9  and  S_10 
REMARK    5  A    between atoms: S_10  and  C_11 
REMARK    6  A    between atoms: C_15  and  C_16 
REMARK       I    between atoms: C_16  and  N_17 
REMARK    7  A    between atoms: N_17  and  C_18 
REMARK    8  A    between atoms: C_19  and  O_20 
REMARK    9  A    between atoms: C_27  and  C_28 
ROOT
HETATM    1  C   UNL     1      41.033 -12.519   4.335  1.00  0.00     0.087 C 
HETATM    2  N   UNL     1      39.945 -11.666   4.207  1.00  0.00    -0.353 N 
HETATM    3  C   UNL     1      39.183 -11.537   3.054  1.00  0.00     0.019 C 
HETATM    4  C   UNL     1      37.882 -10.783   3.206  1.00  0.00     0.069 C 
HETATM    5  C   UNL     1      39.608 -12.104   1.902  1.00  0.00     0.046 C 
HETATM    6  C   UNL     1      41.013 -12.698   1.817  1.00  0.00     0.104 C 
HETATM    7  C   UNL     1      41.639 -12.956   3.199  1.00  0.00     0.055 C 
HETATM    8  C   UNL     1      43.012 -13.607   3.223  1.00  0.00     0.019 C 
HETATM    9  N   UNL     1      44.152 -14.146   3.241  1.00  0.00    -0.096 N 
HETATM   10  H   UNL     1      39.461 -11.403   5.060  1.00  0.00     0.166 HD
ENDROOT
BRANCH   1  11
HETATM   11  S   UNL     1      41.599 -13.157   5.875  1.00  0.00    -0.102 SA
BRANCH  11  12
HETATM   12  C   UNL     1      40.598 -14.609   6.249  1.00  0.00     0.184 C 
BRANCH  12  13
HETATM   13  C   UNL     1      41.234 -15.990   6.112  1.00  0.00     0.231 C 
HETATM   14  N   UNL     1      42.563 -16.030   5.748  1.00  0.00    -0.327 N 
HETATM   15  H   UNL     1      43.073 -15.155   5.808  1.00  0.00     0.169 HD
HETATM   16  O   UNL     1      40.512 -16.978   6.247  1.00  0.00    -0.272 OA
BRANCH  14  17
HETATM   17  C   UNL     1      43.229 -17.087   5.085  1.00  0.00     0.034 A 
HETATM   18  C   UNL     1      44.126 -17.957   5.706  1.00  0.00     0.030 A 
HETATM   19  C   UNL     1      44.583 -19.104   5.044  1.00  0.00     0.009 A 
HETATM   20  C   UNL     1      44.153 -19.399   3.747  1.00  0.00    -0.058 A 
HETATM   21  C   UNL     1      43.305 -18.495   3.101  1.00  0.00     0.009 A 
HETATM   22  C   UNL     1      42.859 -17.343   3.759  1.00  0.00     0.030 A 
BRANCH  20  23
HETATM   23  C   UNL     1      44.522 -20.708   3.096  1.00  0.00     0.034 C 
HETATM   24  C   UNL     1      43.633 -21.002   1.893  1.00  0.00     0.010 C 
ENDBRANCH  20  23
ENDBRANCH  14  17
ENDBRANCH  12  13
ENDBRANCH  11  12
ENDBRANCH   1  11
BRANCH   6  25
HETATM   25  C   UNL     1      41.101 -13.939   0.930  1.00  0.00    -0.044 A 
HETATM   26  C   UNL     1      41.456 -13.804  -0.424  1.00  0.00     0.008 A 
HETATM   27  C   UNL     1      41.518 -14.920  -1.258  1.00  0.00     0.001 A 
HETATM   28  C   UNL     1      41.231 -16.184  -0.752  1.00  0.00     0.000 A 
HETATM   29  C   UNL     1      40.886 -16.336   0.589  1.00  0.00     0.001 A 
HETATM   30  C   UNL     1      40.825 -15.223   1.429  1.00  0.00     0.008 A 
ENDBRANCH   6  25
BRANCH   5  31
HETATM   31  C   UNL     1      38.570 -12.403   0.868  1.00  0.00     0.255 C 
HETATM   32  N   UNL     1      38.653 -11.676  -0.290  1.00  0.00    -0.321 N 
HETATM   33  H   UNL     1      39.295 -10.895  -0.349  1.00  0.00     0.169 HD
HETATM   34  O   UNL     1      37.757 -13.293   1.101  1.00  0.00    -0.268 OA
BRANCH  32  35
HETATM   35  C   UNL     1      37.967 -11.949  -1.503  1.00  0.00     0.068 A 
HETATM   36  C   UNL     1      36.933 -11.067  -1.880  1.00  0.00     0.095 A 
HETATM   37  C   UNL     1      36.261 -11.265  -3.094  1.00  0.00     0.039 A 
HETATM   38  C   UNL     1      36.600 -12.332  -3.925  1.00  0.00     0.003 A 
HETATM   39  C   UNL     1      37.612 -13.209  -3.552  1.00  0.00     0.002 A 
HETATM   40  C   UNL     1      38.292 -13.016  -2.349  1.00  0.00     0.032 A 
BRANCH  36  41
HETATM   41  O   UNL     1      36.671 -10.043  -0.999  1.00  0.00    -0.354 OA
HETATM   42  C   UNL     1      35.395 -10.070  -0.368  1.00  0.00     0.210 C 
ENDBRANCH  36  41
ENDBRANCH  32  35
ENDBRANCH   5  31
TORSDOF 9
ENDMDL
