MODEL 1
REMARK VINA RESULT:      -7.6      0.000      0.000
REMARK  3 active torsions:
REMARK  status: ('A' for Active; 'I' for Inactive)
REMARK    1  A    between atoms: C_2  and  N_3 
REMARK       I    between atoms: N_3  and  C_4 
REMARK    2  A    between atoms: C_4  and  C_5 
REMARK    3  A    between atoms: C_5  and  C_6 
ROOT
HETATM    1  C   UNL     1      40.652 -14.922   1.126  1.00  0.00     0.286 C 
HETATM    2  N   UNL     1      41.577 -14.222   0.135  1.00  0.00    -0.056 N 
HETATM    3  H   UNL     1      41.622 -13.233   0.461  1.00  0.00     0.278 HD
HETATM    4  H   UNL     1      42.536 -14.586   0.195  1.00  0.00     0.278 HD
HETATM    5  C   UNL     1      41.084 -14.209  -1.285  1.00  0.00     0.209 C 
HETATM    6  C   UNL     1      39.651 -13.625  -1.322  1.00  0.00     0.115 C 
HETATM    7  N   UNL     1      38.760 -14.241  -0.339  1.00  0.00    -0.353 N 
HETATM    8  C   UNL     1      39.165 -14.561   0.937  1.00  0.00     0.249 C 
HETATM    9  O   UNL     1      38.342 -14.651   1.842  1.00  0.00    -0.271 OA
HETATM   10  C   UNL     1      41.183 -15.611  -1.889  1.00  0.00     0.035 C 
HETATM   11  C   UNL     1      40.604 -15.639  -3.301  1.00  0.00     0.002 C 
HETATM   12  C   UNL     1      39.167 -15.123  -3.326  1.00  0.00     0.002 C 
HETATM   13  C   UNL     1      39.061 -13.718  -2.734  1.00  0.00     0.027 C 
HETATM   14  H   UNL     1      37.775 -13.981  -0.370  1.00  0.00     0.163 HD
ENDROOT
BRANCH   1  15
HETATM   15  C   UNL     1      41.116 -14.682   2.571  1.00  0.00     0.146 C 
BRANCH  15  16
HETATM   16  C   UNL     1      42.573 -14.300   2.608  1.00  0.00     0.224 C 
HETATM   17  N   UNL     1      43.569 -15.217   2.697  1.00  0.00    -0.327 N 
HETATM   18  H   UNL     1      44.474 -14.772   2.828  1.00  0.00     0.169 HD
HETATM   19  O   UNL     1      42.867 -13.099   2.510  1.00  0.00    -0.273 OA
BRANCH  17  20
HETATM   20  C   UNL     1      43.610 -16.624   2.627  1.00  0.00     0.034 A 
HETATM   21  C   UNL     1      43.536 -17.495   3.717  1.00  0.00     0.031 A 
HETATM   22  C   UNL     1      43.548 -18.884   3.522  1.00  0.00     0.026 A 
HETATM   23  C   UNL     1      43.629 -19.412   2.237  1.00  0.00     0.034 A 
HETATM   24  C   UNL     1      43.697 -18.561   1.142  1.00  0.00     0.026 A 
HETATM   25 CL   UNL     1      43.632 -21.114   2.010  1.00  0.00    -0.084 Cl
HETATM   26  C   UNL     1      43.682 -17.176   1.339  1.00  0.00     0.031 A 
ENDBRANCH  17  20
ENDBRANCH  15  16
ENDBRANCH   1  15
TORSDOF 3
ENDMDL
MODEL 2
REMARK VINA RESULT:      -7.5      3.394      5.091
REMARK  3 active torsions:
REMARK  status: ('A' for Active; 'I' for Inactive)
REMARK    1  A    between atoms: C_2  and  N_3 
REMARK       I    between atoms: N_3  and  C_4 
REMARK    2  A    between atoms: C_4  and  C_5 
REMARK    3  A    between atoms: C_5  and  C_6 
ROOT
HETATM    1  C   UNL     1      41.178 -16.072   3.067  1.00  0.00     0.286 C 
HETATM    2  N   UNL     1      41.546 -16.329   4.525  1.00  0.00    -0.056 N 
HETATM    3  H   UNL     1      40.869 -17.052   4.851  1.00  0.00     0.278 HD
HETATM    4  H   UNL     1      42.477 -16.755   4.607  1.00  0.00     0.278 HD
HETATM    5  C   UNL     1      41.406 -15.137   5.430  1.00  0.00     0.209 C 
HETATM    6  C   UNL     1      39.978 -14.555   5.289  1.00  0.00     0.115 C 
HETATM    7  N   UNL     1      39.580 -14.354   3.896  1.00  0.00    -0.353 N 
HETATM    8  C   UNL     1      39.884 -15.251   2.897  1.00  0.00     0.249 C 
HETATM    9  O   UNL     1      39.198 -15.299   1.882  1.00  0.00    -0.271 OA
HETATM   10  C   UNL     1      42.508 -14.118   5.132  1.00  0.00     0.035 C 
HETATM   11  C   UNL     1      42.331 -12.860   5.978  1.00  0.00     0.002 C 
HETATM   12  C   UNL     1      40.944 -12.251   5.789  1.00  0.00     0.002 C 
HETATM   13  C   UNL     1      39.837 -13.259   6.095  1.00  0.00     0.027 C 
HETATM   14  H   UNL     1      38.695 -13.881   3.725  1.00  0.00     0.163 HD
ENDROOT
BRANCH   1  15
HETATM   15  C   UNL     1      41.124 -17.388   2.275  1.00  0.00     0.146 C 
BRANCH  15  16
HETATM   16  C   UNL     1      42.189 -17.414   1.210  1.00  0.00     0.224 C 
HETATM   17  N   UNL     1      43.340 -18.122   1.342  1.00  0.00    -0.327 N 
HETATM   18  H   UNL     1      43.986 -17.926   0.582  1.00  0.00     0.169 HD
HETATM   19  O   UNL     1      41.980 -16.796   0.156  1.00  0.00    -0.273 OA
BRANCH  17  20
HETATM   20  C   UNL     1      43.806 -19.063   2.283  1.00  0.00     0.034 A 
HETATM   21  C   UNL     1      44.158 -18.785   3.605  1.00  0.00     0.031 A 
HETATM   22  C   UNL     1      44.574 -19.813   4.464  1.00  0.00     0.026 A 
HETATM   23  C   UNL     1      44.635 -21.126   4.008  1.00  0.00     0.034 A 
HETATM   24  C   UNL     1      44.281 -21.422   2.699  1.00  0.00     0.026 A 
HETATM   25 CL   UNL     1      45.135 -22.379   5.072  1.00  0.00    -0.084 Cl
HETATM   26  C   UNL     1      43.865 -20.395   1.845  1.00  0.00     0.031 A 
ENDBRANCH  17  20
ENDBRANCH  15  16
ENDBRANCH   1  15
TORSDOF 3
ENDMDL
MODEL 3
REMARK VINA RESULT:      -7.5      2.609      3.324
REMARK  3 active torsions:
REMARK  status: ('A' for Active; 'I' for Inactive)
REMARK    1  A    between atoms: C_2  and  N_3 
REMARK       I    between atoms: N_3  and  C_4 
REMARK    2  A    between atoms: C_4  and  C_5 
REMARK    3  A    between atoms: C_5  and  C_6 
ROOT
HETATM    1  C   UNL     1      40.890 -15.791   3.343  1.00  0.00     0.286 C 
HETATM    2  N   UNL     1      39.891 -14.774   3.885  1.00  0.00    -0.056 N 
HETATM    3  H   UNL     1      39.122 -15.344   4.297  1.00  0.00     0.278 HD
HETATM    4  H   UNL     1      40.290 -14.232   4.660  1.00  0.00     0.278 HD
HETATM    5  C   UNL     1      39.281 -13.876   2.846  1.00  0.00     0.209 C 
HETATM    6  C   UNL     1      38.669 -14.742   1.718  1.00  0.00     0.115 C 
HETATM    7  N   UNL     1      39.589 -15.765   1.222  1.00  0.00    -0.353 N 
HETATM    8  C   UNL     1      40.417 -16.488   2.051  1.00  0.00     0.249 C 
HETATM    9  O   UNL     1      40.829 -17.589   1.704  1.00  0.00    -0.271 OA
HETATM   10  C   UNL     1      40.321 -12.872   2.341  1.00  0.00     0.035 C 
HETATM   11  C   UNL     1      39.747 -12.009   1.221  1.00  0.00     0.002 C 
HETATM   12  C   UNL     1      39.202 -12.865   0.080  1.00  0.00     0.002 C 
HETATM   13  C   UNL     1      38.154 -13.863   0.573  1.00  0.00     0.027 C 
HETATM   14  H   UNL     1      39.295 -16.308   0.412  1.00  0.00     0.163 HD
ENDROOT
BRANCH   1  15
HETATM   15  C   UNL     1      41.278 -16.809   4.427  1.00  0.00     0.146 C 
BRANCH  15  16
HETATM   16  C   UNL     1      42.587 -16.432   5.071  1.00  0.00     0.224 C 
HETATM   17  N   UNL     1      43.681 -17.235   5.031  1.00  0.00    -0.327 N 
HETATM   18  H   UNL     1      44.430 -16.872   5.615  1.00  0.00     0.169 HD
HETATM   19  O   UNL     1      42.673 -15.324   5.620  1.00  0.00    -0.273 OA
BRANCH  17  20
HETATM   20  C   UNL     1      43.992 -18.428   4.348  1.00  0.00     0.034 A 
HETATM   21  C   UNL     1      44.417 -19.618   4.942  1.00  0.00     0.031 A 
HETATM   22  C   UNL     1      44.663 -20.757   4.162  1.00  0.00     0.026 A 
HETATM   23  C   UNL     1      44.479 -20.717   2.784  1.00  0.00     0.034 A 
HETATM   24  C   UNL     1      44.050 -19.545   2.176  1.00  0.00     0.026 A 
HETATM   25 CL   UNL     1      44.771 -22.122   1.839  1.00  0.00    -0.084 Cl
HETATM   26  C   UNL     1      43.804 -18.410   2.957  1.00  0.00     0.031 A 
ENDBRANCH  17  20
ENDBRANCH  15  16
ENDBRANCH   1  15
TORSDOF 3
ENDMDL
MODEL 4
REMARK VINA RESULT:      -7.4      4.176      5.141
REMARK  3 active torsions:
REMARK  status: ('A' for Active; 'I' for Inactive)
REMARK    1  A    between atoms: C_2  and  N_3 
REMARK       I    between atoms: N_3  and  C_4 
REMARK    2  A    between atoms: C_4  and  C_5 
REMARK    3  A    between atoms: C_5  and  C_6 
ROOT
HETATM    1  C   UNL     1      41.954 -15.944   5.272  1.00  0.00     0.286 C 
HETATM    2  N   UNL     1      41.490 -14.917   6.301  1.00  0.00    -0.056 N 
HETATM    3  H   UNL     1      40.716 -15.385   6.819  1.00  0.00     0.278 HD
HETATM    4  H   UNL     1      42.221 -14.724   6.995  1.00  0.00     0.278 HD
HETATM    5  C   UNL     1      40.939 -13.646   5.717  1.00  0.00     0.209 C 
HETATM    6  C   UNL     1      39.821 -13.993   4.703  1.00  0.00     0.115 C 
HETATM    7  N   UNL     1      40.223 -15.019   3.742  1.00  0.00    -0.353 N 
HETATM    8  C   UNL     1      40.974 -16.118   4.094  1.00  0.00     0.249 C 
HETATM    9  O   UNL     1      40.924 -17.142   3.421  1.00  0.00    -0.271 OA
HETATM   10  C   UNL     1      42.069 -12.812   5.111  1.00  0.00     0.035 C 
HETATM   11  C   UNL     1      41.520 -11.559   4.434  1.00  0.00     0.002 C 
HETATM   12  C   UNL     1      40.464 -11.907   3.388  1.00  0.00     0.002 C 
HETATM   13  C   UNL     1      39.325 -12.732   3.987  1.00  0.00     0.027 C 
HETATM   14  H   UNL     1      39.579 -15.228   2.981  1.00  0.00     0.163 HD
ENDROOT
BRANCH   1  15
HETATM   15  C   UNL     1      42.276 -17.287   5.947  1.00  0.00     0.146 C 
BRANCH  15  16
HETATM   16  C   UNL     1      43.717 -17.334   6.382  1.00  0.00     0.224 C 
HETATM   17  N   UNL     1      44.599 -18.247   5.900  1.00  0.00    -0.327 N 
HETATM   18  H   UNL     1      45.487 -18.202   6.392  1.00  0.00     0.169 HD
HETATM   19  O   UNL     1      44.118 -16.474   7.180  1.00  0.00    -0.273 OA
BRANCH  17  20
HETATM   20  C   UNL     1      44.544 -19.209   4.871  1.00  0.00     0.034 A 
HETATM   21  C   UNL     1      44.813 -20.571   5.016  1.00  0.00     0.031 A 
HETATM   22  C   UNL     1      44.689 -21.443   3.924  1.00  0.00     0.026 A 
HETATM   23  C   UNL     1      44.290 -20.960   2.682  1.00  0.00     0.034 A 
HETATM   24  C   UNL     1      44.012 -19.609   2.521  1.00  0.00     0.026 A 
HETATM   25 CL   UNL     1      44.131 -22.038   1.354  1.00  0.00    -0.084 Cl
HETATM   26  C   UNL     1      44.134 -18.742   3.612  1.00  0.00     0.031 A 
ENDBRANCH  17  20
ENDBRANCH  15  16
ENDBRANCH   1  15
TORSDOF 3
ENDMDL
MODEL 5
REMARK VINA RESULT:      -7.4      4.860      7.229
REMARK  3 active torsions:
REMARK  status: ('A' for Active; 'I' for Inactive)
REMARK    1  A    between atoms: C_2  and  N_3 
REMARK       I    between atoms: N_3  and  C_4 
REMARK    2  A    between atoms: C_4  and  C_5 
REMARK    3  A    between atoms: C_5  and  C_6 
ROOT
HETATM    1  C   UNL     1      42.600 -18.211   6.004  1.00  0.00     0.286 C 
HETATM    2  N   UNL     1      44.107 -18.383   6.165  1.00  0.00    -0.056 N 
HETATM    3  H   UNL     1      44.513 -17.454   5.922  1.00  0.00     0.278 HD
HETATM    4  H   UNL     1      44.362 -18.557   7.145  1.00  0.00     0.278 HD
HETATM    5  C   UNL     1      44.726 -19.401   5.250  1.00  0.00     0.209 C 
HETATM    6  C   UNL     1      44.336 -19.076   3.787  1.00  0.00     0.115 C 
HETATM    7  N   UNL     1      42.901 -18.848   3.618  1.00  0.00    -0.353 N 
HETATM    8  C   UNL     1      42.144 -18.152   4.533  1.00  0.00     0.249 C 
HETATM    9  O   UNL     1      41.102 -17.607   4.184  1.00  0.00    -0.271 OA
HETATM   10  C   UNL     1      44.325 -20.813   5.683  1.00  0.00     0.035 C 
HETATM   11  C   UNL     1      44.870 -21.858   4.713  1.00  0.00     0.002 C 
HETATM   12  C   UNL     1      44.430 -21.571   3.279  1.00  0.00     0.002 C 
HETATM   13  C   UNL     1      44.837 -20.167   2.833  1.00  0.00     0.027 C 
HETATM   14  H   UNL     1      42.553 -18.728   2.668  1.00  0.00     0.163 HD
ENDROOT
BRANCH   1  15
HETATM   15  C   UNL     1      42.099 -16.998   6.803  1.00  0.00     0.146 C 
BRANCH  15  16
HETATM   16  C   UNL     1      43.255 -16.147   7.262  1.00  0.00     0.224 C 
HETATM   17  N   UNL     1      43.699 -15.073   6.560  1.00  0.00    -0.327 N 
HETATM   18  H   UNL     1      44.555 -14.696   6.959  1.00  0.00     0.169 HD
HETATM   19  O   UNL     1      43.789 -16.419   8.347  1.00  0.00    -0.273 OA
BRANCH  17  20
HETATM   20  C   UNL     1      43.221 -14.379   5.430  1.00  0.00     0.034 A 
HETATM   21  C   UNL     1      42.455 -13.212   5.457  1.00  0.00     0.031 A 
HETATM   22  C   UNL     1      42.066 -12.586   4.264  1.00  0.00     0.026 A 
HETATM   23  C   UNL     1      42.445 -13.119   3.036  1.00  0.00     0.034 A 
HETATM   24  C   UNL     1      43.212 -14.275   2.990  1.00  0.00     0.026 A 
HETATM   25 CL   UNL     1      41.973 -12.338   1.581  1.00  0.00    -0.084 Cl
HETATM   26  C   UNL     1      43.600 -14.897   4.182  1.00  0.00     0.031 A 
ENDBRANCH  17  20
ENDBRANCH  15  16
ENDBRANCH   1  15
TORSDOF 3
ENDMDL
MODEL 6
REMARK VINA RESULT:      -7.3      3.456      5.060
REMARK  3 active torsions:
REMARK  status: ('A' for Active; 'I' for Inactive)
REMARK    1  A    between atoms: C_2  and  N_3 
REMARK       I    between atoms: N_3  and  C_4 
REMARK    2  A    between atoms: C_4  and  C_5 
REMARK    3  A    between atoms: C_5  and  C_6 
ROOT
HETATM    1  C   UNL     1      40.777 -16.529   2.896  1.00  0.00     0.286 C 
HETATM    2  N   UNL     1      41.322 -15.214   2.348  1.00  0.00    -0.056 N 
HETATM    3  H   UNL     1      42.318 -15.413   2.112  1.00  0.00     0.278 HD
HETATM    4  H   UNL     1      40.867 -14.958   1.464  1.00  0.00     0.278 HD
HETATM    5  C   UNL     1      41.308 -14.071   3.323  1.00  0.00     0.209 C 
HETATM    6  C   UNL     1      42.033 -14.499   4.622  1.00  0.00     0.115 C 
HETATM    7  N   UNL     1      41.567 -15.787   5.135  1.00  0.00    -0.353 N 
HETATM    8  C   UNL     1      41.278 -16.855   4.317  1.00  0.00     0.249 C 
HETATM    9  O   UNL     1      41.323 -17.999   4.756  1.00  0.00    -0.271 OA
HETATM   10  C   UNL     1      39.872 -13.598   3.559  1.00  0.00     0.035 C 
HETATM   11  C   UNL     1      39.826 -12.496   4.614  1.00  0.00     0.002 C 
HETATM   12  C   UNL     1      40.485 -12.944   5.917  1.00  0.00     0.002 C 
HETATM   13  C   UNL     1      41.924 -13.408   5.693  1.00  0.00     0.027 C 
HETATM   14  H   UNL     1      41.924 -16.089   6.041  1.00  0.00     0.163 HD
ENDROOT
BRANCH   1  15
HETATM   15  C   UNL     1      41.048 -17.684   1.919  1.00  0.00     0.146 C 
BRANCH  15  16
HETATM   16  C   UNL     1      42.305 -17.431   1.128  1.00  0.00     0.224 C 
HETATM   17  N   UNL     1      43.467 -18.091   1.368  1.00  0.00    -0.327 N 
HETATM   18  H   UNL     1      44.232 -17.707   0.820  1.00  0.00     0.169 HD
HETATM   19  O   UNL     1      42.258 -16.615   0.196  1.00  0.00    -0.273 OA
BRANCH  17  20
HETATM   20  C   UNL     1      43.818 -19.185   2.184  1.00  0.00     0.034 A 
HETATM   21  C   UNL     1      43.785 -20.528   1.802  1.00  0.00     0.031 A 
HETATM   22  C   UNL     1      44.195 -21.533   2.692  1.00  0.00     0.026 A 
HETATM   23  C   UNL     1      44.646 -21.201   3.965  1.00  0.00     0.034 A 
HETATM   24  C   UNL     1      44.693 -19.871   4.359  1.00  0.00     0.026 A 
HETATM   25 CL   UNL     1      45.156 -22.438   5.042  1.00  0.00    -0.084 Cl
HETATM   26  C   UNL     1      44.285 -18.870   3.470  1.00  0.00     0.031 A 
ENDBRANCH  17  20
ENDBRANCH  15  16
ENDBRANCH   1  15
TORSDOF 3
ENDMDL
MODEL 7
REMARK VINA RESULT:      -7.1      3.103      7.102
REMARK  3 active torsions:
REMARK  status: ('A' for Active; 'I' for Inactive)
REMARK    1  A    between atoms: C_2  and  N_3 
REMARK       I    between atoms: N_3  and  C_4 
REMARK    2  A    between atoms: C_4  and  C_5 
REMARK    3  A    between atoms: C_5  and  C_6 
ROOT
HETATM    1  C   UNL     1      43.345 -17.128   2.289  1.00  0.00     0.286 C 
HETATM    2  N   UNL     1      42.780 -18.358   2.993  1.00  0.00    -0.056 N 
HETATM    3  H   UNL     1      41.751 -18.312   2.831  1.00  0.00     0.278 HD
HETATM    4  H   UNL     1      43.100 -19.225   2.547  1.00  0.00     0.278 HD
HETATM    5  C   UNL     1      43.004 -18.391   4.479  1.00  0.00     0.209 C 
HETATM    6  C   UNL     1      42.477 -17.076   5.104  1.00  0.00     0.115 C 
HETATM    7  N   UNL     1      42.958 -15.883   4.409  1.00  0.00    -0.353 N 
HETATM    8  C   UNL     1      43.063 -15.809   3.038  1.00  0.00     0.249 C 
HETATM    9  O   UNL     1      43.035 -14.721   2.475  1.00  0.00    -0.271 OA
HETATM   10  C   UNL     1      44.479 -18.658   4.784  1.00  0.00     0.035 C 
HETATM   11  C   UNL     1      44.744 -18.607   6.286  1.00  0.00     0.002 C 
HETATM   12  C   UNL     1      44.282 -17.283   6.890  1.00  0.00     0.002 C 
HETATM   13  C   UNL     1      42.806 -17.013   6.600  1.00  0.00     0.027 C 
HETATM   14  H   UNL     1      42.737 -14.978   4.821  1.00  0.00     0.163 HD
ENDROOT
BRANCH   1  15
HETATM   15  C   UNL     1      42.868 -17.064   0.830  1.00  0.00     0.146 C 
BRANCH  15  16
HETATM   16  C   UNL     1      41.364 -16.999   0.762  1.00  0.00     0.224 C 
HETATM   17  N   UNL     1      40.702 -16.031   0.078  1.00  0.00    -0.327 N 
HETATM   18  H   UNL     1      39.701 -16.079   0.242  1.00  0.00     0.169 HD
HETATM   19  O   UNL     1      40.712 -17.893   1.322  1.00  0.00    -0.273 OA
BRANCH  17  20
HETATM   20  C   UNL     1      41.106 -15.011  -0.807  1.00  0.00     0.034 A 
HETATM   21  C   UNL     1      41.617 -13.766  -0.434  1.00  0.00     0.031 A 
HETATM   22  C   UNL     1      42.023 -12.841  -1.407  1.00  0.00     0.026 A 
HETATM   23  C   UNL     1      41.927 -13.156  -2.758  1.00  0.00     0.034 A 
HETATM   24  C   UNL     1      41.429 -14.392  -3.148  1.00  0.00     0.026 A 
HETATM   25 CL   UNL     1      42.438 -12.020  -3.941  1.00  0.00    -0.084 Cl
HETATM   26  C   UNL     1      41.026 -15.314  -2.176  1.00  0.00     0.031 A 
ENDBRANCH  17  20
ENDBRANCH  15  16
ENDBRANCH   1  15
TORSDOF 3
ENDMDL
MODEL 8
REMARK VINA RESULT:      -7.1      2.852      4.156
REMARK  3 active torsions:
REMARK  status: ('A' for Active; 'I' for Inactive)
REMARK    1  A    between atoms: C_2  and  N_3 
REMARK       I    between atoms: N_3  and  C_4 
REMARK    2  A    between atoms: C_4  and  C_5 
REMARK    3  A    between atoms: C_5  and  C_6 
ROOT
HETATM    1  C   UNL     1      41.501 -16.371   4.720  1.00  0.00     0.286 C 
HETATM    2  N   UNL     1      42.803 -16.391   3.925  1.00  0.00    -0.056 N 
HETATM    3  H   UNL     1      43.431 -15.721   4.419  1.00  0.00     0.278 HD
HETATM    4  H   UNL     1      43.264 -17.307   3.981  1.00  0.00     0.278 HD
HETATM    5  C   UNL     1      42.678 -15.927   2.501  1.00  0.00     0.209 C 
HETATM    6  C   UNL     1      42.008 -14.531   2.476  1.00  0.00     0.115 C 
HETATM    7  N   UNL     1      40.787 -14.472   3.280  1.00  0.00    -0.353 N 
HETATM    8  C   UNL     1      40.670 -15.091   4.504  1.00  0.00     0.249 C 
HETATM    9  O   UNL     1      39.857 -14.683   5.326  1.00  0.00    -0.271 OA
HETATM   10  C   UNL     1      41.932 -16.972   1.670  1.00  0.00     0.035 C 
HETATM   11  C   UNL     1      41.716 -16.481   0.241  1.00  0.00     0.002 C 
HETATM   12  C   UNL     1      40.996 -15.135   0.217  1.00  0.00     0.002 C 
HETATM   13  C   UNL     1      41.741 -14.081   1.035  1.00  0.00     0.027 C 
HETATM   14  H   UNL     1      40.235 -13.617   3.232  1.00  0.00     0.163 HD
ENDROOT
BRANCH   1  15
HETATM   15  C   UNL     1      41.766 -16.631   6.211  1.00  0.00     0.146 C 
BRANCH  15  16
HETATM   16  C   UNL     1      43.182 -16.264   6.574  1.00  0.00     0.224 C 
HETATM   17  N   UNL     1      44.178 -17.182   6.659  1.00  0.00    -0.327 N 
HETATM   18  H   UNL     1      45.031 -16.771   7.029  1.00  0.00     0.169 HD
HETATM   19  O   UNL     1      43.449 -15.067   6.759  1.00  0.00    -0.273 OA
BRANCH  17  20
HETATM   20  C   UNL     1      44.277 -18.549   6.332  1.00  0.00     0.034 A 
HETATM   21  C   UNL     1      43.786 -19.607   7.100  1.00  0.00     0.031 A 
HETATM   22  C   UNL     1      43.910 -20.931   6.653  1.00  0.00     0.026 A 
HETATM   23  C   UNL     1      44.519 -21.206   5.433  1.00  0.00     0.034 A 
HETATM   24  C   UNL     1      45.007 -20.166   4.653  1.00  0.00     0.026 A 
HETATM   25 CL   UNL     1      44.655 -22.829   4.890  1.00  0.00    -0.084 Cl
HETATM   26  C   UNL     1      44.881 -18.846   5.100  1.00  0.00     0.031 A 
ENDBRANCH  17  20
ENDBRANCH  15  16
ENDBRANCH   1  15
TORSDOF 3
ENDMDL
MODEL 9
REMARK VINA RESULT:      -7.0      3.597      7.224
REMARK  3 active torsions:
REMARK  status: ('A' for Active; 'I' for Inactive)
REMARK    1  A    between atoms: C_2  and  N_3 
REMARK       I    between atoms: N_3  and  C_4 
REMARK    2  A    between atoms: C_4  and  C_5 
REMARK    3  A    between atoms: C_5  and  C_6 
ROOT
HETATM    1  C   UNL     1      43.044 -16.144   4.745  1.00  0.00     0.286 C 
HETATM    2  N   UNL     1      42.130 -17.287   4.316  1.00  0.00    -0.056 N 
HETATM    3  H   UNL     1      41.373 -17.312   5.033  1.00  0.00     0.278 HD
HETATM    4  H   UNL     1      41.667 -17.082   3.422  1.00  0.00     0.278 HD
HETATM    5  C   UNL     1      42.780 -18.642   4.298  1.00  0.00     0.209 C 
HETATM    6  C   UNL     1      43.434 -18.912   5.676  1.00  0.00     0.115 C 
HETATM    7  N   UNL     1      44.269 -17.804   6.137  1.00  0.00    -0.353 N 
HETATM    8  C   UNL     1      43.916 -16.484   5.971  1.00  0.00     0.249 C 
HETATM    9  O   UNL     1      44.372 -15.624   6.718  1.00  0.00    -0.271 OA
HETATM   10  C   UNL     1      43.766 -18.737   3.132  1.00  0.00     0.035 C 
HETATM   11  C   UNL     1      44.504 -20.073   3.149  1.00  0.00     0.002 C 
HETATM   12  C   UNL     1      45.201 -20.309   4.487  1.00  0.00     0.002 C 
HETATM   13  C   UNL     1      44.222 -20.226   5.657  1.00  0.00     0.027 C 
HETATM   14  H   UNL     1      44.813 -17.947   6.986  1.00  0.00     0.163 HD
ENDROOT
BRANCH   1  15
HETATM   15  C   UNL     1      42.241 -14.852   4.960  1.00  0.00     0.146 C 
BRANCH  15  16
HETATM   16  C   UNL     1      40.791 -15.162   5.227  1.00  0.00     0.224 C 
HETATM   17  N   UNL     1      39.810 -14.919   4.320  1.00  0.00    -0.327 N 
HETATM   18  H   UNL     1      38.889 -15.080   4.717  1.00  0.00     0.169 HD
HETATM   19  O   UNL     1      40.495 -15.700   6.304  1.00  0.00    -0.273 OA
BRANCH  17  20
HETATM   20  C   UNL     1      39.808 -14.516   2.969  1.00  0.00     0.034 A 
HETATM   21  C   UNL     1      40.154 -15.320   1.881  1.00  0.00     0.031 A 
HETATM   22  C   UNL     1      40.076 -14.820   0.572  1.00  0.00     0.026 A 
HETATM   23  C   UNL     1      39.646 -13.517   0.343  1.00  0.00     0.034 A 
HETATM   24  C   UNL     1      39.291 -12.706   1.412  1.00  0.00     0.026 A 
HETATM   25 CL   UNL     1      39.544 -12.919  -1.264  1.00  0.00    -0.084 Cl
HETATM   26  C   UNL     1      39.367 -13.207   2.716  1.00  0.00     0.031 A 
ENDBRANCH  17  20
ENDBRANCH  15  16
ENDBRANCH   1  15
TORSDOF 3
ENDMDL
MODEL 10
REMARK VINA RESULT:      -6.9      1.773      2.781
REMARK  3 active torsions:
REMARK  status: ('A' for Active; 'I' for Inactive)
REMARK    1  A    between atoms: C_2  and  N_3 
REMARK       I    between atoms: N_3  and  C_4 
REMARK    2  A    between atoms: C_4  and  C_5 
REMARK    3  A    between atoms: C_5  and  C_6 
ROOT
HETATM    1  C   UNL     1      41.374 -14.293   0.449  1.00  0.00     0.286 C 
HETATM    2  N   UNL     1      41.514 -15.206  -0.765  1.00  0.00    -0.056 N 
HETATM    3  H   UNL     1      42.509 -15.518  -0.754  1.00  0.00     0.278 HD
HETATM    4  H   UNL     1      40.948 -16.056  -0.662  1.00  0.00     0.278 HD
HETATM    5  C   UNL     1      41.263 -14.538  -2.087  1.00  0.00     0.209 C 
HETATM    6  C   UNL     1      42.162 -13.282  -2.203  1.00  0.00     0.115 C 
HETATM    7  N   UNL     1      42.090 -12.420  -1.025  1.00  0.00    -0.353 N 
HETATM    8  C   UNL     1      42.039 -12.914   0.259  1.00  0.00     0.249 C 
HETATM    9  O   UNL     1      42.415 -12.225   1.201  1.00  0.00    -0.271 OA
HETATM   10  C   UNL     1      39.773 -14.232  -2.249  1.00  0.00     0.035 C 
HETATM   11  C   UNL     1      39.509 -13.474  -3.547  1.00  0.00     0.002 C 
HETATM   12  C   UNL     1      40.349 -12.201  -3.630  1.00  0.00     0.002 C 
HETATM   13  C   UNL     1      41.841 -12.498  -3.481  1.00  0.00     0.027 C 
HETATM   14  H   UNL     1      42.575 -11.525  -1.067  1.00  0.00     0.163 HD
ENDROOT
BRANCH   1  15
HETATM   15  C   UNL     1      41.874 -14.993   1.722  1.00  0.00     0.146 C 
BRANCH  15  16
HETATM   16  C   UNL     1      40.726 -15.614   2.476  1.00  0.00     0.224 C 
HETATM   17  N   UNL     1      40.809 -16.836   3.061  1.00  0.00    -0.327 N 
HETATM   18  H   UNL     1      39.907 -17.139   3.418  1.00  0.00     0.169 HD
HETATM   19  O   UNL     1      39.682 -14.957   2.599  1.00  0.00    -0.273 OA
BRANCH  17  20
HETATM   20  C   UNL     1      41.865 -17.742   3.285  1.00  0.00     0.034 A 
HETATM   21  C   UNL     1      42.563 -18.438   2.296  1.00  0.00     0.031 A 
HETATM   22  C   UNL     1      43.626 -19.289   2.637  1.00  0.00     0.026 A 
HETATM   23  C   UNL     1      44.001 -19.443   3.967  1.00  0.00     0.034 A 
HETATM   24  C   UNL     1      43.324 -18.753   4.963  1.00  0.00     0.026 A 
HETATM   25 CL   UNL     1      45.311 -20.478   4.373  1.00  0.00    -0.084 Cl
HETATM   26  C   UNL     1      42.265 -17.904   4.621  1.00  0.00     0.031 A 
ENDBRANCH  17  20
ENDBRANCH  15  16
ENDBRANCH   1  15
TORSDOF 3
ENDMDL
