MODEL 1
REMARK VINA RESULT:      -7.4      0.000      0.000
REMARK  6 active torsions:
REMARK  status: ('A' for Active; 'I' for Inactive)
REMARK    1  A    between atoms: C_3  and  N_4 
REMARK       I    between atoms: N_4  and  C_5 
REMARK       I    between atoms: C_5  and  N_6 
REMARK    2  A    between atoms: N_6  and  C_7 
REMARK    3  A    between atoms: C_7  and  C_8 
REMARK    4  A    between atoms: C_9  and  O_10 
REMARK    5  A    between atoms: O_10  and  C_11 
REMARK    6  A    between atoms: C_11  and  C_12 
ROOT
HETATM    1  N   UNL     1      41.067 -16.461   3.239  1.00  0.00    -0.307 N 
HETATM    2  C   UNL     1      42.389 -16.718   2.934  1.00  0.00     0.321 C 
HETATM    3  N   UNL     1      42.511 -17.984   2.407  1.00  0.00    -0.339 N 
HETATM    4  O   UNL     1      43.342 -15.987   3.160  1.00  0.00    -0.247 OA
HETATM    5  H   UNL     1      40.592 -17.298   3.546  1.00  0.00     0.170 HD
HETATM    6  H   UNL     1      41.749 -18.288   1.817  1.00  0.00     0.164 HD
ENDROOT
BRANCH   3   7
HETATM    7  C   UNL     1      43.803 -18.523   2.049  1.00  0.00     0.165 C 
BRANCH   7   8
HETATM    8  C   UNL     1      44.105 -19.826   2.749  1.00  0.00    -0.007 A 
HETATM    9  C   UNL     1      44.510 -19.860   4.098  1.00  0.00     0.076 A 
HETATM   10  C   UNL     1      44.842 -21.084   4.686  1.00  0.00     0.037 A 
HETATM   11  C   UNL     1      44.760 -22.270   3.951  1.00  0.00     0.003 A 
HETATM   12  C   UNL     1      44.337 -22.243   2.626  1.00  0.00     0.001 A 
HETATM   13  C   UNL     1      44.010 -21.029   2.028  1.00  0.00     0.011 A 
BRANCH   9  14
HETATM   14  O   UNL     1      44.519 -18.652   4.748  1.00  0.00    -0.350 OA
BRANCH  14  15
HETATM   15  C   UNL     1      43.621 -18.486   5.847  1.00  0.00     0.179 C 
BRANCH  15  16
HETATM   16  C   UNL     1      44.330 -17.656   6.928  1.00  0.00     0.002 C 
HETATM   17  C   UNL     1      44.372 -16.176   6.538  1.00  0.00     0.011 C 
HETATM   18  C   UNL     1      43.637 -17.828   8.277  1.00  0.00     0.011 C 
ENDBRANCH  15  16
ENDBRANCH  14  15
ENDBRANCH   9  14
ENDBRANCH   7   8
ENDBRANCH   3   7
BRANCH   1  19
HETATM   19  C   UNL     1      40.595 -15.243   3.780  1.00  0.00     0.059 A 
HETATM   20  C   UNL     1      40.391 -14.994   5.145  1.00  0.00    -0.032 A 
HETATM   21  C   UNL     1      40.713 -15.974   6.237  1.00  0.00     0.050 C 
HETATM   22  C   UNL     1      39.880 -13.741   5.521  1.00  0.00     0.028 A 
HETATM   23  C   UNL     1      39.651 -12.777   4.552  1.00  0.00     0.117 A 
HETATM   24  N   UNL     1      39.898 -12.963   3.242  1.00  0.00    -0.271 NA
HETATM   25  C   UNL     1      40.364 -14.186   2.894  1.00  0.00     0.146 A 
ENDBRANCH   1  19
TORSDOF 6
ENDMDL
MODEL 2
REMARK VINA RESULT:      -7.0      3.284      4.158
REMARK  6 active torsions:
REMARK  status: ('A' for Active; 'I' for Inactive)
REMARK    1  A    between atoms: C_3  and  N_4 
REMARK       I    between atoms: N_4  and  C_5 
REMARK       I    between atoms: C_5  and  N_6 
REMARK    2  A    between atoms: N_6  and  C_7 
REMARK    3  A    between atoms: C_7  and  C_8 
REMARK    4  A    between atoms: C_9  and  O_10 
REMARK    5  A    between atoms: O_10  and  C_11 
REMARK    6  A    between atoms: C_11  and  C_12 
ROOT
HETATM    1  N   UNL     1      42.031 -15.748  -0.434  1.00  0.00    -0.307 N 
HETATM    2  C   UNL     1      41.574 -16.237   0.774  1.00  0.00     0.321 C 
HETATM    3  N   UNL     1      42.620 -16.775   1.488  1.00  0.00    -0.339 N 
HETATM    4  O   UNL     1      40.411 -16.277   1.148  1.00  0.00    -0.247 OA
HETATM    5  H   UNL     1      42.790 -16.309  -0.793  1.00  0.00     0.170 HD
HETATM    6  H   UNL     1      43.505 -16.295   1.397  1.00  0.00     0.164 HD
ENDROOT
BRANCH   3   7
HETATM    7  C   UNL     1      42.405 -17.403   2.771  1.00  0.00     0.165 C 
BRANCH   7   8
HETATM    8  C   UNL     1      43.158 -18.702   2.919  1.00  0.00    -0.007 A 
HETATM    9  C   UNL     1      43.957 -18.967   4.048  1.00  0.00     0.076 A 
HETATM   10  C   UNL     1      44.688 -20.157   4.111  1.00  0.00     0.037 A 
HETATM   11  C   UNL     1      44.618 -21.088   3.071  1.00  0.00     0.003 A 
HETATM   12  C   UNL     1      43.811 -20.842   1.966  1.00  0.00     0.001 A 
HETATM   13  C   UNL     1      43.083 -19.657   1.889  1.00  0.00     0.011 A 
BRANCH   9  14
HETATM   14  O   UNL     1      43.929 -18.013   5.034  1.00  0.00    -0.350 OA
BRANCH  14  15
HETATM   15  C   UNL     1      44.871 -18.137   6.101  1.00  0.00     0.179 C 
BRANCH  15  16
HETATM   16  C   UNL     1      44.092 -18.259   7.419  1.00  0.00     0.002 C 
HETATM   17  C   UNL     1      42.805 -17.432   7.371  1.00  0.00     0.011 C 
HETATM   18  C   UNL     1      43.770 -19.722   7.718  1.00  0.00     0.011 C 
ENDBRANCH  15  16
ENDBRANCH  14  15
ENDBRANCH   9  14
ENDBRANCH   7   8
ENDBRANCH   3   7
BRANCH   1  19
HETATM   19  C   UNL     1      41.215 -15.114  -1.399  1.00  0.00     0.059 A 
HETATM   20  C   UNL     1      40.744 -13.795  -1.314  1.00  0.00    -0.032 A 
HETATM   21  C   UNL     1      41.101 -12.843  -0.209  1.00  0.00     0.050 C 
HETATM   22  C   UNL     1      39.909 -13.323  -2.340  1.00  0.00     0.028 A 
HETATM   23  C   UNL     1      39.624 -14.141  -3.422  1.00  0.00     0.117 A 
HETATM   24  N   UNL     1      40.114 -15.387  -3.564  1.00  0.00    -0.271 NA
HETATM   25  C   UNL     1      40.895 -15.836  -2.553  1.00  0.00     0.146 A 
ENDBRANCH   1  19
TORSDOF 6
ENDMDL
MODEL 3
REMARK VINA RESULT:      -6.8      2.497      4.857
REMARK  6 active torsions:
REMARK  status: ('A' for Active; 'I' for Inactive)
REMARK    1  A    between atoms: C_3  and  N_4 
REMARK       I    between atoms: N_4  and  C_5 
REMARK       I    between atoms: C_5  and  N_6 
REMARK    2  A    between atoms: N_6  and  C_7 
REMARK    3  A    between atoms: C_7  and  C_8 
REMARK    4  A    between atoms: C_9  and  O_10 
REMARK    5  A    between atoms: O_10  and  C_11 
REMARK    6  A    between atoms: C_11  and  C_12 
ROOT
HETATM    1  N   UNL     1      42.178 -15.584   1.534  1.00  0.00    -0.307 N 
HETATM    2  C   UNL     1      41.413 -16.282   2.447  1.00  0.00     0.321 C 
HETATM    3  N   UNL     1      42.202 -16.711   3.490  1.00  0.00    -0.339 N 
HETATM    4  O   UNL     1      40.229 -16.565   2.337  1.00  0.00    -0.247 OA
HETATM    5  H   UNL     1      43.113 -15.960   1.477  1.00  0.00     0.170 HD
HETATM    6  H   UNL     1      42.938 -16.078   3.771  1.00  0.00     0.164 HD
ENDROOT
BRANCH   3   7
HETATM    7  C   UNL     1      41.655 -17.512   4.561  1.00  0.00     0.165 C 
BRANCH   7   8
HETATM    8  C   UNL     1      42.631 -17.716   5.694  1.00  0.00    -0.007 A 
HETATM    9  C   UNL     1      43.836 -18.422   5.511  1.00  0.00     0.076 A 
HETATM   10  C   UNL     1      44.679 -18.642   6.604  1.00  0.00     0.037 A 
HETATM   11  C   UNL     1      44.341 -18.153   7.870  1.00  0.00     0.003 A 
HETATM   12  C   UNL     1      43.164 -17.435   8.050  1.00  0.00     0.001 A 
HETATM   13  C   UNL     1      42.314 -17.215   6.968  1.00  0.00     0.011 A 
BRANCH   9  14
HETATM   14  O   UNL     1      44.100 -18.825   4.226  1.00  0.00    -0.350 OA
BRANCH  14  15
HETATM   15  C   UNL     1      44.545 -20.169   4.033  1.00  0.00     0.179 C 
BRANCH  15  16
HETATM   16  C   UNL     1      44.483 -20.486   2.531  1.00  0.00     0.002 C 
HETATM   17  C   UNL     1      44.272 -21.985   2.299  1.00  0.00     0.011 C 
HETATM   18  C   UNL     1      43.370 -19.685   1.860  1.00  0.00     0.011 C 
ENDBRANCH  15  16
ENDBRANCH  14  15
ENDBRANCH   9  14
ENDBRANCH   7   8
ENDBRANCH   3   7
BRANCH   1  19
HETATM   19  C   UNL     1      41.671 -14.992   0.355  1.00  0.00     0.059 A 
HETATM   20  C   UNL     1      41.525 -13.613   0.145  1.00  0.00    -0.032 A 
HETATM   21  C   UNL     1      41.955 -12.561   1.127  1.00  0.00     0.050 C 
HETATM   22  C   UNL     1      40.969 -13.183  -1.072  1.00  0.00     0.028 A 
HETATM   23  C   UNL     1      40.639 -14.118  -2.041  1.00  0.00     0.117 A 
HETATM   24  N   UNL     1      40.828 -15.442  -1.895  1.00  0.00    -0.271 NA
HETATM   25  C   UNL     1      41.339 -15.841  -0.706  1.00  0.00     0.146 A 
ENDBRANCH   1  19
TORSDOF 6
ENDMDL
MODEL 4
REMARK VINA RESULT:      -6.8      3.010      3.923
REMARK  6 active torsions:
REMARK  status: ('A' for Active; 'I' for Inactive)
REMARK    1  A    between atoms: C_3  and  N_4 
REMARK       I    between atoms: N_4  and  C_5 
REMARK       I    between atoms: C_5  and  N_6 
REMARK    2  A    between atoms: N_6  and  C_7 
REMARK    3  A    between atoms: C_7  and  C_8 
REMARK    4  A    between atoms: C_9  and  O_10 
REMARK    5  A    between atoms: O_10  and  C_11 
REMARK    6  A    between atoms: C_11  and  C_12 
ROOT
HETATM    1  N   UNL     1      42.090 -15.231   0.029  1.00  0.00    -0.307 N 
HETATM    2  C   UNL     1      41.605 -15.841   1.168  1.00  0.00     0.321 C 
HETATM    3  N   UNL     1      42.564 -16.673   1.699  1.00  0.00    -0.339 N 
HETATM    4  O   UNL     1      40.473 -15.744   1.618  1.00  0.00    -0.247 OA
HETATM    5  H   UNL     1      42.715 -15.842  -0.477  1.00  0.00     0.170 HD
HETATM    6  H   UNL     1      43.517 -16.347   1.623  1.00  0.00     0.164 HD
ENDROOT
BRANCH   3   7
HETATM    7  C   UNL     1      42.293 -17.475   2.871  1.00  0.00     0.165 C 
BRANCH   7   8
HETATM    8  C   UNL     1      43.086 -18.759   2.896  1.00  0.00    -0.007 A 
HETATM    9  C   UNL     1      44.035 -19.020   3.903  1.00  0.00     0.076 A 
HETATM   10  C   UNL     1      44.791 -20.194   3.849  1.00  0.00     0.037 A 
HETATM   11  C   UNL     1      44.600 -21.114   2.814  1.00  0.00     0.003 A 
HETATM   12  C   UNL     1      43.647 -20.872   1.831  1.00  0.00     0.001 A 
HETATM   13  C   UNL     1      42.892 -19.702   1.871  1.00  0.00     0.011 A 
BRANCH   9  14
HETATM   14  O   UNL     1      44.120 -18.079   4.898  1.00  0.00    -0.350 OA
BRANCH  14  15
HETATM   15  C   UNL     1      44.974 -18.366   6.008  1.00  0.00     0.179 C 
BRANCH  15  16
HETATM   16  C   UNL     1      44.101 -18.505   7.264  1.00  0.00     0.002 C 
HETATM   17  C   UNL     1      42.850 -17.628   7.158  1.00  0.00     0.011 C 
HETATM   18  C   UNL     1      43.708 -19.964   7.485  1.00  0.00     0.011 C 
ENDBRANCH  15  16
ENDBRANCH  14  15
ENDBRANCH   9  14
ENDBRANCH   7   8
ENDBRANCH   3   7
BRANCH   1  19
HETATM   19  C   UNL     1      41.364 -14.301  -0.750  1.00  0.00     0.059 A 
HETATM   20  C   UNL     1      40.787 -14.574  -1.999  1.00  0.00    -0.032 A 
HETATM   21  C   UNL     1      40.803 -15.924  -2.657  1.00  0.00     0.050 C 
HETATM   22  C   UNL     1      40.127 -13.529  -2.666  1.00  0.00     0.028 A 
HETATM   23  C   UNL     1      40.014 -12.290  -2.055  1.00  0.00     0.117 A 
HETATM   24  N   UNL     1      40.500 -12.016  -0.830  1.00  0.00    -0.271 NA
HETATM   25  C   UNL     1      41.157 -13.026  -0.212  1.00  0.00     0.146 A 
ENDBRANCH   1  19
TORSDOF 6
ENDMDL
MODEL 5
REMARK VINA RESULT:      -6.7      1.906      2.499
REMARK  6 active torsions:
REMARK  status: ('A' for Active; 'I' for Inactive)
REMARK    1  A    between atoms: C_3  and  N_4 
REMARK       I    between atoms: N_4  and  C_5 
REMARK       I    between atoms: C_5  and  N_6 
REMARK    2  A    between atoms: N_6  and  C_7 
REMARK    3  A    between atoms: C_7  and  C_8 
REMARK    4  A    between atoms: C_9  and  O_10 
REMARK    5  A    between atoms: O_10  and  C_11 
REMARK    6  A    between atoms: C_11  and  C_12 
ROOT
HETATM    1  N   UNL     1      41.696 -17.563   1.210  1.00  0.00    -0.307 N 
HETATM    2  C   UNL     1      43.037 -17.841   1.388  1.00  0.00     0.321 C 
HETATM    3  N   UNL     1      43.210 -19.185   1.631  1.00  0.00    -0.339 N 
HETATM    4  O   UNL     1      43.950 -17.028   1.415  1.00  0.00    -0.247 OA
HETATM    5  H   UNL     1      41.119 -18.158   1.787  1.00  0.00     0.170 HD
HETATM    6  H   UNL     1      42.590 -19.804   1.127  1.00  0.00     0.164 HD
ENDROOT
BRANCH   3   7
HETATM    7  C   UNL     1      44.518 -19.733   1.905  1.00  0.00     0.165 C 
BRANCH   7   8
HETATM    8  C   UNL     1      44.531 -20.639   3.112  1.00  0.00    -0.007 A 
HETATM    9  C   UNL     1      44.522 -20.121   4.422  1.00  0.00     0.076 A 
HETATM   10  C   UNL     1      44.600 -20.997   5.509  1.00  0.00     0.037 A 
HETATM   11  C   UNL     1      44.670 -22.378   5.304  1.00  0.00     0.003 A 
HETATM   12  C   UNL     1      44.654 -22.894   4.012  1.00  0.00     0.001 A 
HETATM   13  C   UNL     1      44.583 -22.031   2.922  1.00  0.00     0.011 A 
BRANCH   9  14
HETATM   14  O   UNL     1      44.408 -18.758   4.522  1.00  0.00    -0.350 OA
BRANCH  14  15
HETATM   15  C   UNL     1      43.229 -18.237   5.140  1.00  0.00     0.179 C 
BRANCH  15  16
HETATM   16  C   UNL     1      43.657 -17.271   6.255  1.00  0.00     0.002 C 
HETATM   17  C   UNL     1      45.094 -17.555   6.701  1.00  0.00     0.011 C 
HETATM   18  C   UNL     1      43.524 -15.822   5.790  1.00  0.00     0.011 C 
ENDBRANCH  15  16
ENDBRANCH  14  15
ENDBRANCH   9  14
ENDBRANCH   7   8
ENDBRANCH   3   7
BRANCH   1  19
HETATM   19  C   UNL     1      41.178 -16.279   0.924  1.00  0.00     0.059 A 
HETATM   20  C   UNL     1      40.696 -15.375   1.882  1.00  0.00    -0.032 A 
HETATM   21  C   UNL     1      40.726 -15.621   3.363  1.00  0.00     0.050 C 
HETATM   22  C   UNL     1      40.177 -14.149   1.433  1.00  0.00     0.028 A 
HETATM   23  C   UNL     1      40.209 -13.847   0.081  1.00  0.00     0.117 A 
HETATM   24  N   UNL     1      40.725 -14.666  -0.854  1.00  0.00    -0.271 NA
HETATM   25  C   UNL     1      41.196 -15.854  -0.408  1.00  0.00     0.146 A 
ENDBRANCH   1  19
TORSDOF 6
ENDMDL
MODEL 6
REMARK VINA RESULT:      -6.7      2.036      2.772
REMARK  6 active torsions:
REMARK  status: ('A' for Active; 'I' for Inactive)
REMARK    1  A    between atoms: C_3  and  N_4 
REMARK       I    between atoms: N_4  and  C_5 
REMARK       I    between atoms: C_5  and  N_6 
REMARK    2  A    between atoms: N_6  and  C_7 
REMARK    3  A    between atoms: C_7  and  C_8 
REMARK    4  A    between atoms: C_9  and  O_10 
REMARK    5  A    between atoms: O_10  and  C_11 
REMARK    6  A    between atoms: C_11  and  C_12 
ROOT
HETATM    1  N   UNL     1      40.328 -15.855   1.065  1.00  0.00    -0.307 N 
HETATM    2  C   UNL     1      41.705 -15.944   1.052  1.00  0.00     0.321 C 
HETATM    3  N   UNL     1      42.091 -17.266   1.055  1.00  0.00    -0.339 N 
HETATM    4  O   UNL     1      42.494 -15.012   1.112  1.00  0.00    -0.247 OA
HETATM    5  H   UNL     1      39.917 -16.610   1.597  1.00  0.00     0.170 HD
HETATM    6  H   UNL     1      41.502 -17.894   0.526  1.00  0.00     0.164 HD
ENDROOT
BRANCH   3   7
HETATM    7  C   UNL     1      43.486 -17.638   1.095  1.00  0.00     0.165 C 
BRANCH   7   8
HETATM    8  C   UNL     1      43.810 -18.567   2.239  1.00  0.00    -0.007 A 
HETATM    9  C   UNL     1      43.890 -18.102   3.566  1.00  0.00     0.076 A 
HETATM   10  C   UNL     1      44.256 -18.986   4.585  1.00  0.00     0.037 A 
HETATM   11  C   UNL     1      44.527 -20.327   4.297  1.00  0.00     0.003 A 
HETATM   12  C   UNL     1      44.426 -20.796   2.992  1.00  0.00     0.001 A 
HETATM   13  C   UNL     1      44.068 -19.922   1.968  1.00  0.00     0.011 A 
BRANCH   9  14
HETATM   14  O   UNL     1      43.565 -16.782   3.755  1.00  0.00    -0.350 OA
BRANCH  14  15
HETATM   15  C   UNL     1      42.568 -16.481   4.734  1.00  0.00     0.179 C 
BRANCH  15  16
HETATM   16  C   UNL     1      43.029 -15.247   5.525  1.00  0.00     0.002 C 
HETATM   17  C   UNL     1      44.148 -15.614   6.504  1.00  0.00     0.011 C 
HETATM   18  C   UNL     1      43.496 -14.145   4.577  1.00  0.00     0.011 C 
ENDBRANCH  15  16
ENDBRANCH  14  15
ENDBRANCH   9  14
ENDBRANCH   7   8
ENDBRANCH   3   7
BRANCH   1  19
HETATM   19  C   UNL     1      39.606 -14.640   1.048  1.00  0.00     0.059 A 
HETATM   20  C   UNL     1      39.296 -13.872   2.180  1.00  0.00    -0.032 A 
HETATM   21  C   UNL     1      39.751 -14.203   3.573  1.00  0.00     0.050 C 
HETATM   22  C   UNL     1      38.536 -12.704   2.000  1.00  0.00     0.028 A 
HETATM   23  C   UNL     1      38.169 -12.317   0.721  1.00  0.00     0.117 A 
HETATM   24  N   UNL     1      38.507 -12.997  -0.390  1.00  0.00    -0.271 NA
HETATM   25  C   UNL     1      39.216 -14.135  -0.197  1.00  0.00     0.146 A 
ENDBRANCH   1  19
TORSDOF 6
ENDMDL
MODEL 7
REMARK VINA RESULT:      -6.6      2.095      7.594
REMARK  6 active torsions:
REMARK  status: ('A' for Active; 'I' for Inactive)
REMARK    1  A    between atoms: C_3  and  N_4 
REMARK       I    between atoms: N_4  and  C_5 
REMARK       I    between atoms: C_5  and  N_6 
REMARK    2  A    between atoms: N_6  and  C_7 
REMARK    3  A    between atoms: C_7  and  C_8 
REMARK    4  A    between atoms: C_9  and  O_10 
REMARK    5  A    between atoms: O_10  and  C_11 
REMARK    6  A    between atoms: C_11  and  C_12 
ROOT
HETATM    1  N   UNL     1      43.223 -17.261   4.583  1.00  0.00    -0.307 N 
HETATM    2  C   UNL     1      41.919 -17.079   4.998  1.00  0.00     0.321 C 
HETATM    3  N   UNL     1      41.689 -15.746   5.252  1.00  0.00    -0.339 N 
HETATM    4  O   UNL     1      41.092 -17.956   5.199  1.00  0.00    -0.247 OA
HETATM    5  H   UNL     1      43.847 -16.610   5.039  1.00  0.00     0.170 HD
HETATM    6  H   UNL     1      42.158 -15.096   4.637  1.00  0.00     0.164 HD
ENDROOT
BRANCH   3   7
HETATM    7  C   UNL     1      40.412 -15.290   5.751  1.00  0.00     0.165 C 
BRANCH   7   8
HETATM    8  C   UNL     1      40.005 -13.954   5.178  1.00  0.00    -0.007 A 
HETATM    9  C   UNL     1      39.731 -13.794   3.805  1.00  0.00     0.076 A 
HETATM   10  C   UNL     1      39.420 -12.525   3.308  1.00  0.00     0.037 A 
HETATM   11  C   UNL     1      39.365 -11.422   4.165  1.00  0.00     0.003 A 
HETATM   12  C   UNL     1      39.612 -11.580   5.524  1.00  0.00     0.001 A 
HETATM   13  C   UNL     1      39.928 -12.839   6.029  1.00  0.00     0.011 A 
BRANCH   9  14
HETATM   14  O   UNL     1      39.768 -14.942   3.054  1.00  0.00    -0.350 OA
BRANCH  14  15
HETATM   15  C   UNL     1      40.045 -14.808   1.658  1.00  0.00     0.179 C 
BRANCH  15  16
HETATM   16  C   UNL     1      41.044 -15.904   1.258  1.00  0.00     0.002 C 
HETATM   17  C   UNL     1      40.513 -17.290   1.635  1.00  0.00     0.011 C 
HETATM   18  C   UNL     1      41.340 -15.840  -0.238  1.00  0.00     0.011 C 
ENDBRANCH  15  16
ENDBRANCH  14  15
ENDBRANCH   9  14
ENDBRANCH   7   8
ENDBRANCH   3   7
BRANCH   1  19
HETATM   19  C   UNL     1      43.780 -18.510   4.224  1.00  0.00     0.059 A 
HETATM   20  C   UNL     1      44.117 -18.895   2.918  1.00  0.00    -0.032 A 
HETATM   21  C   UNL     1      43.995 -18.001   1.717  1.00  0.00     0.050 C 
HETATM   22  C   UNL     1      44.628 -20.189   2.720  1.00  0.00     0.028 A 
HETATM   23  C   UNL     1      44.838 -21.016   3.813  1.00  0.00     0.117 A 
HETATM   24  N   UNL     1      44.585 -20.651   5.083  1.00  0.00    -0.271 NA
HETATM   25  C   UNL     1      44.068 -19.412   5.253  1.00  0.00     0.146 A 
ENDBRANCH   1  19
TORSDOF 6
ENDMDL
MODEL 8
REMARK VINA RESULT:      -6.5      2.270      4.072
REMARK  6 active torsions:
REMARK  status: ('A' for Active; 'I' for Inactive)
REMARK    1  A    between atoms: C_3  and  N_4 
REMARK       I    between atoms: N_4  and  C_5 
REMARK       I    between atoms: C_5  and  N_6 
REMARK    2  A    between atoms: N_6  and  C_7 
REMARK    3  A    between atoms: C_7  and  C_8 
REMARK    4  A    between atoms: C_9  and  O_10 
REMARK    5  A    between atoms: O_10  and  C_11 
REMARK    6  A    between atoms: C_11  and  C_12 
ROOT
HETATM    1  N   UNL     1      42.914 -14.255   5.232  1.00  0.00    -0.307 N 
HETATM    2  C   UNL     1      42.290 -15.473   5.409  1.00  0.00     0.321 C 
HETATM    3  N   UNL     1      43.232 -16.469   5.538  1.00  0.00    -0.339 N 
HETATM    4  O   UNL     1      41.086 -15.684   5.380  1.00  0.00    -0.247 OA
HETATM    5  H   UNL     1      43.771 -14.356   4.706  1.00  0.00     0.170 HD
HETATM    6  H   UNL     1      44.074 -16.214   6.035  1.00  0.00     0.164 HD
ENDROOT
BRANCH   3   7
HETATM    7  C   UNL     1      42.842 -17.853   5.684  1.00  0.00     0.165 C 
BRANCH   7   8
HETATM    8  C   UNL     1      43.493 -18.753   4.663  1.00  0.00    -0.007 A 
HETATM    9  C   UNL     1      43.060 -18.782   3.323  1.00  0.00     0.076 A 
HETATM   10  C   UNL     1      43.650 -19.679   2.428  1.00  0.00     0.037 A 
HETATM   11  C   UNL     1      44.673 -20.533   2.850  1.00  0.00     0.003 A 
HETATM   12  C   UNL     1      45.119 -20.491   4.166  1.00  0.00     0.001 A 
HETATM   13  C   UNL     1      44.535 -19.606   5.068  1.00  0.00     0.011 A 
BRANCH   9  14
HETATM   14  O   UNL     1      42.082 -17.877   2.994  1.00  0.00    -0.350 OA
BRANCH  14  15
HETATM   15  C   UNL     1      42.371 -16.941   1.954  1.00  0.00     0.179 C 
BRANCH  15  16
HETATM   16  C   UNL     1      41.092 -16.729   1.129  1.00  0.00     0.002 C 
HETATM   17  C   UNL     1      39.982 -16.119   1.991  1.00  0.00     0.011 C 
HETATM   18  C   UNL     1      41.375 -15.837  -0.078  1.00  0.00     0.011 C 
ENDBRANCH  15  16
ENDBRANCH  14  15
ENDBRANCH   9  14
ENDBRANCH   7   8
ENDBRANCH   3   7
BRANCH   1  19
HETATM   19  C   UNL     1      42.235 -13.024   5.085  1.00  0.00     0.059 A 
HETATM   20  C   UNL     1      41.864 -12.450   3.861  1.00  0.00    -0.032 A 
HETATM   21  C   UNL     1      42.078 -13.103   2.525  1.00  0.00     0.050 C 
HETATM   22  C   UNL     1      41.226 -11.199   3.882  1.00  0.00     0.028 A 
HETATM   23  C   UNL     1      40.932 -10.601   5.097  1.00  0.00     0.117 A 
HETATM   24  N   UNL     1      41.217 -11.157   6.290  1.00  0.00    -0.271 NA
HETATM   25  C   UNL     1      41.856 -12.350   6.251  1.00  0.00     0.146 A 
ENDBRANCH   1  19
TORSDOF 6
ENDMDL
MODEL 9
REMARK VINA RESULT:      -6.5      1.881      4.152
REMARK  6 active torsions:
REMARK  status: ('A' for Active; 'I' for Inactive)
REMARK    1  A    between atoms: C_3  and  N_4 
REMARK       I    between atoms: N_4  and  C_5 
REMARK       I    between atoms: C_5  and  N_6 
REMARK    2  A    between atoms: N_6  and  C_7 
REMARK    3  A    between atoms: C_7  and  C_8 
REMARK    4  A    between atoms: C_9  and  O_10 
REMARK    5  A    between atoms: O_10  and  C_11 
REMARK    6  A    between atoms: C_11  and  C_12 
ROOT
HETATM    1  N   UNL     1      39.549 -15.344   2.871  1.00  0.00    -0.307 N 
HETATM    2  C   UNL     1      40.760 -15.861   2.456  1.00  0.00     0.321 C 
HETATM    3  N   UNL     1      41.070 -16.981   3.194  1.00  0.00    -0.339 N 
HETATM    4  O   UNL     1      41.509 -15.376   1.619  1.00  0.00    -0.247 OA
HETATM    5  H   UNL     1      39.415 -15.477   3.863  1.00  0.00     0.170 HD
HETATM    6  H   UNL     1      40.289 -17.568   3.447  1.00  0.00     0.164 HD
ENDROOT
BRANCH   3   7
HETATM    7  C   UNL     1      42.315 -17.687   2.993  1.00  0.00     0.165 C 
BRANCH   7   8
HETATM    8  C   UNL     1      43.190 -17.687   4.223  1.00  0.00    -0.007 A 
HETATM    9  C   UNL     1      43.883 -18.842   4.634  1.00  0.00     0.076 A 
HETATM   10  C   UNL     1      44.630 -18.814   5.815  1.00  0.00     0.037 A 
HETATM   11  C   UNL     1      44.705 -17.646   6.579  1.00  0.00     0.003 A 
HETATM   12  C   UNL     1      44.042 -16.496   6.164  1.00  0.00     0.001 A 
HETATM   13  C   UNL     1      43.290 -16.515   4.992  1.00  0.00     0.011 A 
BRANCH   9  14
HETATM   14  O   UNL     1      43.783 -19.925   3.797  1.00  0.00    -0.350 OA
BRANCH  14  15
HETATM   15  C   UNL     1      44.932 -20.266   3.018  1.00  0.00     0.179 C 
BRANCH  15  16
HETATM   16  C   UNL     1      44.755 -21.703   2.503  1.00  0.00     0.002 C 
HETATM   17  C   UNL     1      44.624 -22.687   3.669  1.00  0.00     0.011 C 
HETATM   18  C   UNL     1      43.535 -21.799   1.590  1.00  0.00     0.011 C 
ENDBRANCH  15  16
ENDBRANCH  14  15
ENDBRANCH   9  14
ENDBRANCH   7   8
ENDBRANCH   3   7
BRANCH   1  19
HETATM   19  C   UNL     1      38.931 -14.205   2.306  1.00  0.00     0.059 A 
HETATM   20  C   UNL     1      39.171 -12.881   2.702  1.00  0.00    -0.032 A 
HETATM   21  C   UNL     1      40.177 -12.481   3.744  1.00  0.00     0.050 C 
HETATM   22  C   UNL     1      38.447 -11.858   2.066  1.00  0.00     0.028 A 
HETATM   23  C   UNL     1      37.572 -12.176   1.039  1.00  0.00     0.117 A 
HETATM   24  N   UNL     1      37.370 -13.430   0.594  1.00  0.00    -0.271 NA
HETATM   25  C   UNL     1      38.055 -14.406   1.235  1.00  0.00     0.146 A 
ENDBRANCH   1  19
TORSDOF 6
ENDMDL
MODEL 10
REMARK VINA RESULT:      -6.4      2.396      6.816
REMARK  6 active torsions:
REMARK  status: ('A' for Active; 'I' for Inactive)
REMARK    1  A    between atoms: C_3  and  N_4 
REMARK       I    between atoms: N_4  and  C_5 
REMARK       I    between atoms: C_5  and  N_6 
REMARK    2  A    between atoms: N_6  and  C_7 
REMARK    3  A    between atoms: C_7  and  C_8 
REMARK    4  A    between atoms: C_9  and  O_10 
REMARK    5  A    between atoms: O_10  and  C_11 
REMARK    6  A    between atoms: C_11  and  C_12 
ROOT
HETATM    1  N   UNL     1      42.396 -18.218   2.332  1.00  0.00    -0.307 N 
HETATM    2  C   UNL     1      42.621 -16.909   1.956  1.00  0.00     0.321 C 
HETATM    3  N   UNL     1      41.568 -16.452   1.196  1.00  0.00    -0.339 N 
HETATM    4  O   UNL     1      43.627 -16.252   2.178  1.00  0.00    -0.247 OA
HETATM    5  H   UNL     1      41.896 -18.725   1.615  1.00  0.00     0.170 HD
HETATM    6  H   UNL     1      40.655 -16.789   1.465  1.00  0.00     0.164 HD
ENDROOT
BRANCH   3   7
HETATM    7  C   UNL     1      41.577 -15.122   0.630  1.00  0.00     0.165 C 
BRANCH   7   8
HETATM    8  C   UNL     1      40.190 -14.600   0.345  1.00  0.00    -0.007 A 
HETATM    9  C   UNL     1      39.178 -14.625   1.324  1.00  0.00     0.076 A 
HETATM   10  C   UNL     1      37.890 -14.190   0.995  1.00  0.00     0.037 A 
HETATM   11  C   UNL     1      37.608 -13.720  -0.290  1.00  0.00     0.003 A 
HETATM   12  C   UNL     1      38.610 -13.671  -1.253  1.00  0.00     0.001 A 
HETATM   13  C   UNL     1      39.895 -14.107  -0.938  1.00  0.00     0.011 A 
BRANCH   9  14
HETATM   14  O   UNL     1      39.562 -15.063   2.566  1.00  0.00    -0.350 OA
BRANCH  14  15
HETATM   15  C   UNL     1      39.933 -14.075   3.530  1.00  0.00     0.179 C 
BRANCH  15  16
HETATM   16  C   UNL     1      41.022 -14.671   4.435  1.00  0.00     0.002 C 
HETATM   17  C   UNL     1      42.275 -13.789   4.433  1.00  0.00     0.011 C 
HETATM   18  C   UNL     1      40.500 -14.844   5.859  1.00  0.00     0.011 C 
ENDBRANCH  15  16
ENDBRANCH  14  15
ENDBRANCH   9  14
ENDBRANCH   7   8
ENDBRANCH   3   7
BRANCH   1  19
HETATM   19  C   UNL     1      43.275 -18.981   3.135  1.00  0.00     0.059 A 
HETATM   20  C   UNL     1      43.369 -18.895   4.532  1.00  0.00    -0.032 A 
HETATM   21  C   UNL     1      42.493 -18.021   5.383  1.00  0.00     0.050 C 
HETATM   22  C   UNL     1      44.322 -19.696   5.182  1.00  0.00     0.028 A 
HETATM   23  C   UNL     1      45.092 -20.580   4.442  1.00  0.00     0.117 A 
HETATM   24  N   UNL     1      44.979 -20.732   3.110  1.00  0.00    -0.271 NA
HETATM   25  C   UNL     1      44.075 -19.934   2.496  1.00  0.00     0.146 A 
ENDBRANCH   1  19
TORSDOF 6
ENDMDL
