MODEL 1
REMARK VINA RESULT:      -8.4      0.000      0.000
REMARK  14 active torsions:
REMARK  status: ('A' for Active; 'I' for Inactive)
REMARK    1  A    between atoms: C_2  and  N_3 
REMARK    2  A    between atoms: N_3  and  C_5 
REMARK    3  A    between atoms: N_3  and  C_39 
REMARK    4  A    between atoms: C_5  and  C_6 
REMARK    5  A    between atoms: C_6  and  C_7 
REMARK    6  A    between atoms: C_7  and  N_8 
REMARK    7  A    between atoms: C_11  and  O_12 
REMARK    8  A    between atoms: C_13  and  C_14 
REMARK    9  A    between atoms: C_14  and  C_15 
REMARK   10  A    between atoms: C_18  and  O_19 
REMARK   11  A    between atoms: O_19  and  C_20 
REMARK   12  A    between atoms: C_20  and  C_21 
REMARK   13  A    between atoms: C_31  and  C_32 
REMARK   14  A    between atoms: C_35  and  O_36 
ROOT
HETATM    1  N   UNL     1      38.623 -12.827   2.112  1.00  0.00    -0.333 N 
HETATM    2  C   UNL     1      39.061 -11.545   2.382  1.00  0.00     0.278 C 
HETATM    3  O   UNL     1      38.857 -10.524   1.752  1.00  0.00    -0.265 OA
HETATM    4  C   UNL     1      39.770 -11.584   3.680  1.00  0.00     0.146 C 
HETATM    5  C   UNL     1      39.766 -12.858   4.091  1.00  0.00     0.059 C 
HETATM    6  C   UNL     1      39.246 -13.780   3.023  1.00  0.00     0.161 C 
ENDROOT
BRANCH   5   7
HETATM    7  C   UNL     1      40.110 -13.457   5.400  1.00  0.00     0.193 C 
HETATM    8  O   UNL     1      39.748 -12.888   6.429  1.00  0.00    -0.287 OA
BRANCH   7   9
HETATM    9  C   UNL     1      41.001 -14.636   5.530  1.00  0.00     0.015 A 
HETATM   10  C   UNL     1      42.394 -14.544   5.436  1.00  0.00     0.018 A 
HETATM   11  C   UNL     1      43.200 -15.668   5.662  1.00  0.00     0.038 A 
HETATM   12  C   UNL     1      42.624 -16.882   6.034  1.00  0.00     0.069 A 
HETATM   13  C   UNL     1      41.235 -16.970   6.150  1.00  0.00     0.038 A 
HETATM   14  C   UNL     1      40.426 -15.856   5.902  1.00  0.00     0.018 A 
BRANCH  12  15
HETATM   15  O   UNL     1      43.298 -18.033   6.336  1.00  0.00    -0.347 OA
BRANCH  15  16
HETATM   16  C   UNL     1      44.594 -18.204   5.763  1.00  0.00     0.214 C 
BRANCH  16  17
HETATM   17  C   UNL     1      44.514 -19.192   4.625  1.00  0.00    -0.034 A 
HETATM   18  C   UNL     1      44.910 -20.524   4.797  1.00  0.00     0.010 A 
HETATM   19  C   UNL     1      44.771 -21.447   3.757  1.00  0.00     0.007 A 
HETATM   20  C   UNL     1      44.236 -21.054   2.525  1.00  0.00    -0.062 A 
HETATM   21  C   UNL     1      44.051 -22.043   1.414  1.00  0.00     0.048 C 
HETATM   22  C   UNL     1      43.839 -19.724   2.350  1.00  0.00     0.007 A 
HETATM   23  C   UNL     1      43.979 -18.801   3.389  1.00  0.00     0.010 A 
ENDBRANCH  16  17
ENDBRANCH  15  16
ENDBRANCH  12  15
ENDBRANCH   7   9
ENDBRANCH   5   7
BRANCH   4  24
HETATM   24  O   UNL     1      40.206 -10.463   4.314  1.00  0.00    -0.355 OA
HETATM   25  H   UNL     1      41.185 -10.523   4.336  1.00  0.00     0.218 HD
ENDBRANCH   4  24
BRANCH   6  26
HETATM   26  C   UNL     1      40.299 -14.648   2.351  1.00  0.00    -0.030 A 
HETATM   27  C   UNL     1      40.032 -16.011   2.130  1.00  0.00     0.012 A 
HETATM   28  C   UNL     1      40.971 -16.838   1.508  1.00  0.00     0.037 A 
HETATM   29  C   UNL     1      42.188 -16.305   1.105  1.00  0.00     0.065 A 
HETATM   30  C   UNL     1      42.482 -14.966   1.322  1.00  0.00     0.037 A 
HETATM   31  C   UNL     1      41.547 -14.140   1.950  1.00  0.00     0.012 A 
BRANCH  29  32
HETATM   32  O   UNL     1      43.134 -17.070   0.494  1.00  0.00    -0.361 OA
HETATM   33  H   UNL     1      43.941 -16.542   0.373  1.00  0.00     0.217 HD
ENDBRANCH  29  32
ENDBRANCH   6  26
BRANCH   1  34
HETATM   34  C   UNL     1      37.970 -13.181   0.860  1.00  0.00     0.129 C 
BRANCH  34  35
HETATM   35  C   UNL     1      38.874 -13.106  -0.372  1.00  0.00     0.048 C 
BRANCH  35  36
HETATM   36  C   UNL     1      38.230 -13.752  -1.596  1.00  0.00     0.236 C 
BRANCH  36  37
HETATM   37  N   UNL     1      39.038 -14.930  -2.128  1.00  0.00    -0.072 N 
HETATM   38  H   UNL     1      38.725 -15.752  -1.593  1.00  0.00     0.279 HD
BRANCH  37  39
HETATM   39  C   UNL     1      40.529 -14.788  -1.840  1.00  0.00     0.230 C 
HETATM   40  C   UNL     1      41.306 -14.477  -3.105  1.00  0.00     0.034 C 
ENDBRANCH  37  39
BRANCH  37  41
HETATM   41  C   UNL     1      38.793 -15.306  -3.582  1.00  0.00     0.230 C 
HETATM   42  C   UNL     1      37.381 -14.992  -4.041  1.00  0.00     0.034 C 
ENDBRANCH  37  41
ENDBRANCH  36  37
ENDBRANCH  35  36
ENDBRANCH  34  35
ENDBRANCH   1  34
TORSDOF 14
ENDMDL
MODEL 2
REMARK VINA RESULT:      -8.3      3.210      7.015
REMARK  14 active torsions:
REMARK  status: ('A' for Active; 'I' for Inactive)
REMARK    1  A    between atoms: C_2  and  N_3 
REMARK    2  A    between atoms: N_3  and  C_5 
REMARK    3  A    between atoms: N_3  and  C_39 
REMARK    4  A    between atoms: C_5  and  C_6 
REMARK    5  A    between atoms: C_6  and  C_7 
REMARK    6  A    between atoms: C_7  and  N_8 
REMARK    7  A    between atoms: C_11  and  O_12 
REMARK    8  A    between atoms: C_13  and  C_14 
REMARK    9  A    between atoms: C_14  and  C_15 
REMARK   10  A    between atoms: C_18  and  O_19 
REMARK   11  A    between atoms: O_19  and  C_20 
REMARK   12  A    between atoms: C_20  and  C_21 
REMARK   13  A    between atoms: C_31  and  C_32 
REMARK   14  A    between atoms: C_35  and  O_36 
ROOT
HETATM    1  N   UNL     1      41.035 -11.559   6.204  1.00  0.00    -0.333 N 
HETATM    2  C   UNL     1      39.692 -11.234   6.162  1.00  0.00     0.278 C 
HETATM    3  O   UNL     1      39.026 -10.650   6.996  1.00  0.00    -0.265 OA
HETATM    4  C   UNL     1      39.182 -11.634   4.832  1.00  0.00     0.146 C 
HETATM    5  C   UNL     1      40.199 -12.207   4.178  1.00  0.00     0.059 C 
HETATM    6  C   UNL     1      41.387 -12.415   5.076  1.00  0.00     0.161 C 
ENDROOT
BRANCH   5   7
HETATM    7  C   UNL     1      40.349 -12.580   2.753  1.00  0.00     0.193 C 
HETATM    8  O   UNL     1      39.981 -11.787   1.888  1.00  0.00    -0.287 OA
BRANCH   7   9
HETATM    9  C   UNL     1      40.787 -13.931   2.323  1.00  0.00     0.015 A 
HETATM   10  C   UNL     1      42.071 -14.188   1.831  1.00  0.00     0.018 A 
HETATM   11  C   UNL     1      42.471 -15.496   1.529  1.00  0.00     0.038 A 
HETATM   12  C   UNL     1      41.609 -16.566   1.764  1.00  0.00     0.069 A 
HETATM   13  C   UNL     1      40.335 -16.314   2.277  1.00  0.00     0.038 A 
HETATM   14  C   UNL     1      39.924 -15.007   2.558  1.00  0.00     0.018 A 
BRANCH  12  15
HETATM   15  O   UNL     1      41.895 -17.889   1.566  1.00  0.00    -0.347 OA
BRANCH  15  16
HETATM   16  C   UNL     1      43.258 -18.235   1.325  1.00  0.00     0.214 C 
BRANCH  16  17
HETATM   17  C   UNL     1      43.690 -19.294   2.311  1.00  0.00    -0.034 A 
HETATM   18  C   UNL     1      43.845 -20.628   1.914  1.00  0.00     0.010 A 
HETATM   19  C   UNL     1      44.308 -21.588   2.818  1.00  0.00     0.007 A 
HETATM   20  C   UNL     1      44.622 -21.232   4.134  1.00  0.00    -0.062 A 
HETATM   21  C   UNL     1      45.152 -22.247   5.103  1.00  0.00     0.048 C 
HETATM   22  C   UNL     1      44.469 -19.899   4.532  1.00  0.00     0.007 A 
HETATM   23  C   UNL     1      44.005 -18.940   3.630  1.00  0.00     0.010 A 
ENDBRANCH  16  17
ENDBRANCH  15  16
ENDBRANCH  12  15
ENDBRANCH   7   9
ENDBRANCH   5   7
BRANCH   4  24
HETATM   24  O   UNL     1      37.928 -11.327   4.403  1.00  0.00    -0.355 OA
HETATM   25  H   UNL     1      37.867 -11.651   3.479  1.00  0.00     0.218 HD
ENDBRANCH   4  24
BRANCH   6  26
HETATM   26  C   UNL     1      41.645 -13.858   5.481  1.00  0.00    -0.030 A 
HETATM   27  C   UNL     1      42.952 -14.373   5.405  1.00  0.00     0.012 A 
HETATM   28  C   UNL     1      43.230 -15.691   5.776  1.00  0.00     0.037 A 
HETATM   29  C   UNL     1      42.198 -16.506   6.222  1.00  0.00     0.065 A 
HETATM   30  C   UNL     1      40.897 -16.027   6.294  1.00  0.00     0.037 A 
HETATM   31  C   UNL     1      40.617 -14.712   5.917  1.00  0.00     0.012 A 
BRANCH  29  32
HETATM   32  O   UNL     1      42.419 -17.797   6.595  1.00  0.00    -0.361 OA
HETATM   33  H   UNL     1      43.240 -17.843   7.112  1.00  0.00     0.217 HD
ENDBRANCH  29  32
ENDBRANCH   6  26
BRANCH   1  34
HETATM   34  C   UNL     1      41.840 -11.397   7.406  1.00  0.00     0.129 C 
BRANCH  34  35
HETATM   35  C   UNL     1      41.759 -10.009   8.043  1.00  0.00     0.048 C 
BRANCH  35  36
HETATM   36  C   UNL     1      42.405  -9.974   9.425  1.00  0.00     0.236 C 
BRANCH  36  37
HETATM   37  N   UNL     1      41.951 -11.130  10.311  1.00  0.00    -0.072 N 
HETATM   38  H   UNL     1      41.953 -11.964   9.710  1.00  0.00     0.279 HD
BRANCH  37  39
HETATM   39  C   UNL     1      40.512 -10.963  10.788  1.00  0.00     0.230 C 
HETATM   40  C   UNL     1      40.349 -11.436  12.221  1.00  0.00     0.034 C 
ENDBRANCH  37  39
BRANCH  37  41
HETATM   41  C   UNL     1      42.874 -11.488  11.467  1.00  0.00     0.230 C 
HETATM   42  C   UNL     1      44.212 -10.776  11.393  1.00  0.00     0.034 C 
ENDBRANCH  37  41
ENDBRANCH  36  37
ENDBRANCH  35  36
ENDBRANCH  34  35
ENDBRANCH   1  34
TORSDOF 14
ENDMDL
MODEL 3
REMARK VINA RESULT:      -8.0      1.877      2.891
REMARK  14 active torsions:
REMARK  status: ('A' for Active; 'I' for Inactive)
REMARK    1  A    between atoms: C_2  and  N_3 
REMARK    2  A    between atoms: N_3  and  C_5 
REMARK    3  A    between atoms: N_3  and  C_39 
REMARK    4  A    between atoms: C_5  and  C_6 
REMARK    5  A    between atoms: C_6  and  C_7 
REMARK    6  A    between atoms: C_7  and  N_8 
REMARK    7  A    between atoms: C_11  and  O_12 
REMARK    8  A    between atoms: C_13  and  C_14 
REMARK    9  A    between atoms: C_14  and  C_15 
REMARK   10  A    between atoms: C_18  and  O_19 
REMARK   11  A    between atoms: O_19  and  C_20 
REMARK   12  A    between atoms: C_20  and  C_21 
REMARK   13  A    between atoms: C_31  and  C_32 
REMARK   14  A    between atoms: C_35  and  O_36 
ROOT
HETATM    1  N   UNL     1      41.423 -13.960   0.461  1.00  0.00    -0.333 N 
HETATM    2  C   UNL     1      42.037 -12.832   0.971  1.00  0.00     0.278 C 
HETATM    3  O   UNL     1      42.628 -11.953   0.373  1.00  0.00    -0.265 OA
HETATM    4  C   UNL     1      41.764 -12.800   2.425  1.00  0.00     0.146 C 
HETATM    5  C   UNL     1      41.062 -13.900   2.718  1.00  0.00     0.059 C 
HETATM    6  C   UNL     1      40.990 -14.837   1.543  1.00  0.00     0.161 C 
ENDROOT
BRANCH   5   7
HETATM    7  C   UNL     1      40.319 -14.283   3.940  1.00  0.00     0.193 C 
HETATM    8  O   UNL     1      39.194 -13.819   4.121  1.00  0.00    -0.287 OA
BRANCH   7   9
HETATM    9  C   UNL     1      40.931 -15.083   5.029  1.00  0.00     0.015 A 
HETATM   10  C   UNL     1      40.349 -16.256   5.522  1.00  0.00     0.018 A 
HETATM   11  C   UNL     1      41.012 -17.030   6.483  1.00  0.00     0.038 A 
HETATM   12  C   UNL     1      42.284 -16.667   6.925  1.00  0.00     0.069 A 
HETATM   13  C   UNL     1      42.875 -15.508   6.416  1.00  0.00     0.038 A 
HETATM   14  C   UNL     1      42.207 -14.720   5.473  1.00  0.00     0.018 A 
BRANCH  12  15
HETATM   15  O   UNL     1      43.057 -17.362   7.813  1.00  0.00    -0.347 OA
BRANCH  15  16
HETATM   16  C   UNL     1      44.398 -17.657   7.424  1.00  0.00     0.214 C 
BRANCH  16  17
HETATM   17  C   UNL     1      44.423 -18.954   6.652  1.00  0.00    -0.034 A 
HETATM   18  C   UNL     1      45.072 -19.044   5.414  1.00  0.00     0.010 A 
HETATM   19  C   UNL     1      45.146 -20.265   4.738  1.00  0.00     0.007 A 
HETATM   20  C   UNL     1      44.572 -21.417   5.287  1.00  0.00    -0.062 A 
HETATM   21  C   UNL     1      44.676 -22.739   4.586  1.00  0.00     0.048 C 
HETATM   22  C   UNL     1      43.925 -21.330   6.524  1.00  0.00     0.007 A 
HETATM   23  C   UNL     1      43.849 -20.110   7.199  1.00  0.00     0.010 A 
ENDBRANCH  16  17
ENDBRANCH  15  16
ENDBRANCH  12  15
ENDBRANCH   7   9
ENDBRANCH   5   7
BRANCH   4  24
HETATM   24  O   UNL     1      42.104 -11.745   3.214  1.00  0.00    -0.355 OA
HETATM   25  H   UNL     1      42.524 -11.084   2.623  1.00  0.00     0.218 HD
ENDBRANCH   4  24
BRANCH   6  26
HETATM   26  C   UNL     1      41.838 -16.094   1.668  1.00  0.00    -0.030 A 
HETATM   27  C   UNL     1      41.261 -17.346   1.389  1.00  0.00     0.012 A 
HETATM   28  C   UNL     1      42.010 -18.522   1.484  1.00  0.00     0.037 A 
HETATM   29  C   UNL     1      43.344 -18.452   1.863  1.00  0.00     0.065 A 
HETATM   30  C   UNL     1      43.935 -17.231   2.156  1.00  0.00     0.037 A 
HETATM   31  C   UNL     1      43.185 -16.055   2.068  1.00  0.00     0.012 A 
BRANCH  29  32
HETATM   32  O   UNL     1      44.115 -19.570   1.969  1.00  0.00    -0.361 OA
HETATM   33  H   UNL     1      44.190 -19.988   1.095  1.00  0.00     0.217 HD
ENDBRANCH  29  32
ENDBRANCH   6  26
BRANCH   1  34
HETATM   34  C   UNL     1      41.567 -14.367  -0.929  1.00  0.00     0.129 C 
BRANCH  34  35
HETATM   35  C   UNL     1      40.526 -13.768  -1.877  1.00  0.00     0.048 C 
BRANCH  35  36
HETATM   36  C   UNL     1      39.123 -13.794  -1.277  1.00  0.00     0.236 C 
BRANCH  36  37
HETATM   37  N   UNL     1      38.738 -12.465  -0.634  1.00  0.00    -0.072 N 
HETATM   38  H   UNL     1      39.622 -12.029  -0.338  1.00  0.00     0.279 HD
BRANCH  37  39
HETATM   39  C   UNL     1      37.918 -12.653   0.637  1.00  0.00     0.230 C 
HETATM   40  C   UNL     1      37.378 -14.068   0.740  1.00  0.00     0.034 C 
ENDBRANCH  37  39
BRANCH  37  41
HETATM   41  C   UNL     1      38.096 -11.439  -1.556  1.00  0.00     0.230 C 
HETATM   42  C   UNL     1      37.022 -12.038  -2.446  1.00  0.00     0.034 C 
ENDBRANCH  37  41
ENDBRANCH  36  37
ENDBRANCH  35  36
ENDBRANCH  34  35
ENDBRANCH   1  34
TORSDOF 14
ENDMDL
MODEL 4
REMARK VINA RESULT:      -7.7      4.224      8.103
REMARK  14 active torsions:
REMARK  status: ('A' for Active; 'I' for Inactive)
REMARK    1  A    between atoms: C_2  and  N_3 
REMARK    2  A    between atoms: N_3  and  C_5 
REMARK    3  A    between atoms: N_3  and  C_39 
REMARK    4  A    between atoms: C_5  and  C_6 
REMARK    5  A    between atoms: C_6  and  C_7 
REMARK    6  A    between atoms: C_7  and  N_8 
REMARK    7  A    between atoms: C_11  and  O_12 
REMARK    8  A    between atoms: C_13  and  C_14 
REMARK    9  A    between atoms: C_14  and  C_15 
REMARK   10  A    between atoms: C_18  and  O_19 
REMARK   11  A    between atoms: O_19  and  C_20 
REMARK   12  A    between atoms: C_20  and  C_21 
REMARK   13  A    between atoms: C_31  and  C_32 
REMARK   14  A    between atoms: C_35  and  O_36 
ROOT
HETATM    1  N   UNL     1      40.962 -15.614   2.078  1.00  0.00    -0.333 N 
HETATM    2  C   UNL     1      41.461 -14.665   1.206  1.00  0.00     0.278 C 
HETATM    3  O   UNL     1      42.028 -14.834   0.143  1.00  0.00    -0.265 OA
HETATM    4  C   UNL     1      41.092 -13.336   1.742  1.00  0.00     0.146 C 
HETATM    5  C   UNL     1      40.451 -13.542   2.898  1.00  0.00     0.059 C 
HETATM    6  C   UNL     1      40.521 -14.985   3.318  1.00  0.00     0.161 C 
ENDROOT
BRANCH   5   7
HETATM    7  C   UNL     1      39.658 -12.624   3.746  1.00  0.00     0.193 C 
HETATM    8  O   UNL     1      38.638 -12.116   3.281  1.00  0.00    -0.287 OA
BRANCH   7   9
HETATM    9  C   UNL     1      40.119 -12.172   5.082  1.00  0.00     0.015 A 
HETATM   10  C   UNL     1      41.301 -11.448   5.267  1.00  0.00     0.018 A 
HETATM   11  C   UNL     1      41.646 -10.958   6.534  1.00  0.00     0.038 A 
HETATM   12  C   UNL     1      40.787 -11.143   7.617  1.00  0.00     0.069 A 
HETATM   13  C   UNL     1      39.595 -11.845   7.428  1.00  0.00     0.038 A 
HETATM   14  C   UNL     1      39.259 -12.356   6.170  1.00  0.00     0.018 A 
BRANCH  12  15
HETATM   15  O   UNL     1      40.978 -10.670   8.885  1.00  0.00    -0.347 OA
BRANCH  15  16
HETATM   16  C   UNL     1      42.325 -10.511   9.330  1.00  0.00     0.214 C 
BRANCH  16  17
HETATM   17  C   UNL     1      42.350 -10.427  10.837  1.00  0.00    -0.034 A 
HETATM   18  C   UNL     1      43.420  -9.820  11.507  1.00  0.00     0.010 A 
HETATM   19  C   UNL     1      43.403  -9.689  12.898  1.00  0.00     0.007 A 
HETATM   20  C   UNL     1      42.318 -10.164  13.644  1.00  0.00    -0.062 A 
HETATM   21  C   UNL     1      42.274  -9.998  15.134  1.00  0.00     0.048 C 
HETATM   22  C   UNL     1      41.248 -10.770  12.976  1.00  0.00     0.007 A 
HETATM   23  C   UNL     1      41.265 -10.902  11.586  1.00  0.00     0.010 A 
ENDBRANCH  16  17
ENDBRANCH  15  16
ENDBRANCH  12  15
ENDBRANCH   7   9
ENDBRANCH   5   7
BRANCH   4  24
HETATM   24  O   UNL     1      41.305 -12.181   1.055  1.00  0.00    -0.355 OA
HETATM   25  H   UNL     1      42.271 -12.016   1.088  1.00  0.00     0.218 HD
ENDBRANCH   4  24
BRANCH   6  26
HETATM   26  C   UNL     1      41.444 -15.270   4.492  1.00  0.00    -0.030 A 
HETATM   27  C   UNL     1      40.995 -16.096   5.539  1.00  0.00     0.012 A 
HETATM   28  C   UNL     1      41.817 -16.388   6.630  1.00  0.00     0.037 A 
HETATM   29  C   UNL     1      43.096 -15.851   6.683  1.00  0.00     0.065 A 
HETATM   30  C   UNL     1      43.560 -15.022   5.671  1.00  0.00     0.037 A 
HETATM   31  C   UNL     1      42.736 -14.724   4.583  1.00  0.00     0.012 A 
BRANCH  29  32
HETATM   32  O   UNL     1      43.934 -16.107   7.726  1.00  0.00    -0.361 OA
HETATM   33  H   UNL     1      44.688 -15.495   7.685  1.00  0.00     0.217 HD
ENDBRANCH  29  32
ENDBRANCH   6  26
BRANCH   1  34
HETATM   34  C   UNL     1      41.225 -17.037   1.917  1.00  0.00     0.129 C 
BRANCH  34  35
HETATM   35  C   UNL     1      42.701 -17.426   2.029  1.00  0.00     0.048 C 
BRANCH  35  36
HETATM   36  C   UNL     1      42.906 -18.934   1.909  1.00  0.00     0.236 C 
BRANCH  36  37
HETATM   37  N   UNL     1      43.531 -19.539   3.161  1.00  0.00    -0.072 N 
HETATM   38  H   UNL     1      42.803 -20.133   3.581  1.00  0.00     0.279 HD
BRANCH  37  39
HETATM   39  C   UNL     1      43.866 -18.484   4.210  1.00  0.00     0.230 C 
HETATM   40  C   UNL     1      44.748 -19.057   5.304  1.00  0.00     0.034 C 
ENDBRANCH  37  39
BRANCH  37  41
HETATM   41  C   UNL     1      44.706 -20.480   2.933  1.00  0.00     0.230 C 
HETATM   42  C   UNL     1      44.288 -21.808   2.331  1.00  0.00     0.034 C 
ENDBRANCH  37  41
ENDBRANCH  36  37
ENDBRANCH  35  36
ENDBRANCH  34  35
ENDBRANCH   1  34
TORSDOF 14
ENDMDL
MODEL 5
REMARK VINA RESULT:      -7.7      2.917      8.735
REMARK  14 active torsions:
REMARK  status: ('A' for Active; 'I' for Inactive)
REMARK    1  A    between atoms: C_2  and  N_3 
REMARK    2  A    between atoms: N_3  and  C_5 
REMARK    3  A    between atoms: N_3  and  C_39 
REMARK    4  A    between atoms: C_5  and  C_6 
REMARK    5  A    between atoms: C_6  and  C_7 
REMARK    6  A    between atoms: C_7  and  N_8 
REMARK    7  A    between atoms: C_11  and  O_12 
REMARK    8  A    between atoms: C_13  and  C_14 
REMARK    9  A    between atoms: C_14  and  C_15 
REMARK   10  A    between atoms: C_18  and  O_19 
REMARK   11  A    between atoms: O_19  and  C_20 
REMARK   12  A    between atoms: C_20  and  C_21 
REMARK   13  A    between atoms: C_31  and  C_32 
REMARK   14  A    between atoms: C_35  and  O_36 
ROOT
HETATM    1  N   UNL     1      42.699 -17.493   5.157  1.00  0.00    -0.333 N 
HETATM    2  C   UNL     1      41.371 -17.173   4.946  1.00  0.00     0.278 C 
HETATM    3  O   UNL     1      40.458 -17.151   5.750  1.00  0.00    -0.265 OA
HETATM    4  C   UNL     1      41.240 -16.738   3.538  1.00  0.00     0.146 C 
HETATM    5  C   UNL     1      42.448 -16.860   2.976  1.00  0.00     0.059 C 
HETATM    6  C   UNL     1      43.413 -17.567   3.888  1.00  0.00     0.161 C 
ENDROOT
BRANCH   5   7
HETATM    7  C   UNL     1      42.973 -16.364   1.683  1.00  0.00     0.193 C 
HETATM    8  O   UNL     1      44.171 -16.499   1.436  1.00  0.00    -0.287 OA
BRANCH   7   9
HETATM    9  C   UNL     1      42.147 -15.576   0.735  1.00  0.00     0.015 A 
HETATM   10  C   UNL     1      42.026 -14.185   0.815  1.00  0.00     0.018 A 
HETATM   11  C   UNL     1      41.315 -13.474  -0.161  1.00  0.00     0.038 A 
HETATM   12  C   UNL     1      40.760 -14.142  -1.253  1.00  0.00     0.069 A 
HETATM   13  C   UNL     1      40.901 -15.528  -1.345  1.00  0.00     0.038 A 
HETATM   14  C   UNL     1      41.590 -16.244  -0.361  1.00  0.00     0.018 A 
BRANCH  12  15
HETATM   15  O   UNL     1      40.094 -13.562  -2.297  1.00  0.00    -0.347 OA
BRANCH  15  16
HETATM   16  C   UNL     1      38.728 -13.929  -2.487  1.00  0.00     0.214 C 
BRANCH  16  17
HETATM   17  C   UNL     1      37.855 -13.116  -1.562  1.00  0.00    -0.034 A 
HETATM   18  C   UNL     1      37.661 -13.501  -0.229  1.00  0.00     0.010 A 
HETATM   19  C   UNL     1      36.906 -12.706   0.636  1.00  0.00     0.007 A 
HETATM   20  C   UNL     1      36.328 -11.515   0.185  1.00  0.00    -0.062 A 
HETATM   21  C   UNL     1      35.543 -10.637   1.115  1.00  0.00     0.048 C 
HETATM   22  C   UNL     1      36.521 -11.127  -1.145  1.00  0.00     0.007 A 
HETATM   23  C   UNL     1      37.276 -11.921  -2.011  1.00  0.00     0.010 A 
ENDBRANCH  16  17
ENDBRANCH  15  16
ENDBRANCH  12  15
ENDBRANCH   7   9
ENDBRANCH   5   7
BRANCH   4  24
HETATM   24  O   UNL     1      40.090 -16.215   3.033  1.00  0.00    -0.355 OA
HETATM   25  H   UNL     1      40.289 -15.955   2.109  1.00  0.00     0.218 HD
ENDBRANCH   4  24
BRANCH   6  26
HETATM   26  C   UNL     1      43.762 -18.990   3.481  1.00  0.00    -0.030 A 
HETATM   27  C   UNL     1      44.648 -19.738   4.277  1.00  0.00     0.012 A 
HETATM   28  C   UNL     1      44.986 -21.051   3.940  1.00  0.00     0.037 A 
HETATM   29  C   UNL     1      44.440 -21.624   2.799  1.00  0.00     0.065 A 
HETATM   30  C   UNL     1      43.573 -20.904   1.988  1.00  0.00     0.037 A 
HETATM   31  C   UNL     1      43.240 -19.589   2.321  1.00  0.00     0.012 A 
BRANCH  29  32
HETATM   32  O   UNL     1      44.738 -22.901   2.429  1.00  0.00    -0.361 OA
HETATM   33  H   UNL     1      45.619 -22.916   2.020  1.00  0.00     0.217 HD
ENDBRANCH  29  32
ENDBRANCH   6  26
BRANCH   1  34
HETATM   34  C   UNL     1      43.175 -18.059   6.411  1.00  0.00     0.129 C 
BRANCH  34  35
HETATM   35  C   UNL     1      44.259 -17.235   7.108  1.00  0.00     0.048 C 
BRANCH  35  36
HETATM   36  C   UNL     1      43.775 -15.830   7.458  1.00  0.00     0.236 C 
BRANCH  36  37
HETATM   37  N   UNL     1      44.230 -14.787   6.442  1.00  0.00    -0.072 N 
HETATM   38  H   UNL     1      44.682 -15.311   5.682  1.00  0.00     0.279 HD
BRANCH  37  39
HETATM   39  C   UNL     1      45.302 -13.860   7.005  1.00  0.00     0.230 C 
HETATM   40  C   UNL     1      44.785 -13.085   8.204  1.00  0.00     0.034 C 
ENDBRANCH  37  39
BRANCH  37  41
HETATM   41  C   UNL     1      43.124 -13.996   5.757  1.00  0.00     0.230 C 
HETATM   42  C   UNL     1      43.436 -13.688   4.304  1.00  0.00     0.034 C 
ENDBRANCH  37  41
ENDBRANCH  36  37
ENDBRANCH  35  36
ENDBRANCH  34  35
ENDBRANCH   1  34
TORSDOF 14
ENDMDL
MODEL 6
REMARK VINA RESULT:      -7.6      3.803      7.885
REMARK  14 active torsions:
REMARK  status: ('A' for Active; 'I' for Inactive)
REMARK    1  A    between atoms: C_2  and  N_3 
REMARK    2  A    between atoms: N_3  and  C_5 
REMARK    3  A    between atoms: N_3  and  C_39 
REMARK    4  A    between atoms: C_5  and  C_6 
REMARK    5  A    between atoms: C_6  and  C_7 
REMARK    6  A    between atoms: C_7  and  N_8 
REMARK    7  A    between atoms: C_11  and  O_12 
REMARK    8  A    between atoms: C_13  and  C_14 
REMARK    9  A    between atoms: C_14  and  C_15 
REMARK   10  A    between atoms: C_18  and  O_19 
REMARK   11  A    between atoms: O_19  and  C_20 
REMARK   12  A    between atoms: C_20  and  C_21 
REMARK   13  A    between atoms: C_31  and  C_32 
REMARK   14  A    between atoms: C_35  and  O_36 
ROOT
HETATM    1  N   UNL     1      40.701 -15.999   1.818  1.00  0.00    -0.333 N 
HETATM    2  C   UNL     1      40.914 -15.360   0.611  1.00  0.00     0.278 C 
HETATM    3  O   UNL     1      41.327 -15.827  -0.433  1.00  0.00    -0.265 OA
HETATM    4  C   UNL     1      40.440 -13.966   0.760  1.00  0.00     0.146 C 
HETATM    5  C   UNL     1      40.023 -13.826   2.024  1.00  0.00     0.059 C 
HETATM    6  C   UNL     1      40.370 -15.029   2.856  1.00  0.00     0.161 C 
ENDROOT
BRANCH   5   7
HETATM    7  C   UNL     1      39.245 -12.748   2.676  1.00  0.00     0.193 C 
HETATM    8  O   UNL     1      38.268 -12.283   2.091  1.00  0.00    -0.287 OA
BRANCH   7   9
HETATM    9  C   UNL     1      39.679 -12.100   3.938  1.00  0.00     0.015 A 
HETATM   10  C   UNL     1      39.114 -12.410   5.180  1.00  0.00     0.018 A 
HETATM   11  C   UNL     1      39.622 -11.845   6.356  1.00  0.00     0.038 A 
HETATM   12  C   UNL     1      40.733 -11.003   6.308  1.00  0.00     0.069 A 
HETATM   13  C   UNL     1      41.313 -10.712   5.072  1.00  0.00     0.038 A 
HETATM   14  C   UNL     1      40.794 -11.256   3.893  1.00  0.00     0.018 A 
BRANCH  12  15
HETATM   15  O   UNL     1      41.358 -10.434   7.383  1.00  0.00    -0.347 OA
BRANCH  15  16
HETATM   16  C   UNL     1      42.512 -11.097   7.897  1.00  0.00     0.214 C 
BRANCH  16  17
HETATM   17  C   UNL     1      42.770 -10.634   9.311  1.00  0.00    -0.034 A 
HETATM   18  C   UNL     1      41.791  -9.941  10.033  1.00  0.00     0.010 A 
HETATM   19  C   UNL     1      42.015  -9.575  11.362  1.00  0.00     0.007 A 
HETATM   20  C   UNL     1      43.223  -9.893  11.993  1.00  0.00    -0.062 A 
HETATM   21  C   UNL     1      43.460  -9.534  13.430  1.00  0.00     0.048 C 
HETATM   22  C   UNL     1      44.203 -10.586  11.275  1.00  0.00     0.007 A 
HETATM   23  C   UNL     1      43.980 -10.951   9.945  1.00  0.00     0.010 A 
ENDBRANCH  16  17
ENDBRANCH  15  16
ENDBRANCH  12  15
ENDBRANCH   7   9
ENDBRANCH   5   7
BRANCH   4  24
HETATM   24  O   UNL     1      40.372 -13.097  -0.284  1.00  0.00    -0.355 OA
HETATM   25  H   UNL     1      41.247 -12.658  -0.334  1.00  0.00     0.218 HD
ENDBRANCH   4  24
BRANCH   6  26
HETATM   26  C   UNL     1      41.496 -14.819   3.856  1.00  0.00    -0.030 A 
HETATM   27  C   UNL     1      41.355 -15.309   5.168  1.00  0.00     0.012 A 
HETATM   28  C   UNL     1      42.371 -15.143   6.112  1.00  0.00     0.037 A 
HETATM   29  C   UNL     1      43.537 -14.481   5.751  1.00  0.00     0.065 A 
HETATM   30  C   UNL     1      43.697 -13.976   4.468  1.00  0.00     0.037 A 
HETATM   31  C   UNL     1      42.679 -14.135   3.525  1.00  0.00     0.012 A 
BRANCH  29  32
HETATM   32  O   UNL     1      44.555 -14.295   6.636  1.00  0.00    -0.361 OA
HETATM   33  H   UNL     1      45.201 -13.678   6.253  1.00  0.00     0.217 HD
ENDBRANCH  29  32
ENDBRANCH   6  26
BRANCH   1  34
HETATM   34  C   UNL     1      41.143 -17.363   2.067  1.00  0.00     0.129 C 
BRANCH  34  35
HETATM   35  C   UNL     1      42.660 -17.530   2.173  1.00  0.00     0.048 C 
BRANCH  35  36
HETATM   36  C   UNL     1      43.089 -18.986   2.017  1.00  0.00     0.236 C 
BRANCH  36  37
HETATM   37  N   UNL     1      44.312 -19.329   2.862  1.00  0.00    -0.072 N 
HETATM   38  H   UNL     1      45.116 -18.906   2.379  1.00  0.00     0.279 HD
BRANCH  37  39
HETATM   39  C   UNL     1      44.588 -20.828   2.898  1.00  0.00     0.230 C 
HETATM   40  C   UNL     1      43.819 -21.556   1.811  1.00  0.00     0.034 C 
ENDBRANCH  37  39
BRANCH  37  41
HETATM   41  C   UNL     1      44.346 -18.729   4.260  1.00  0.00     0.230 C 
HETATM   42  C   UNL     1      43.977 -19.730   5.339  1.00  0.00     0.034 C 
ENDBRANCH  37  41
ENDBRANCH  36  37
ENDBRANCH  35  36
ENDBRANCH  34  35
ENDBRANCH   1  34
TORSDOF 14
ENDMDL
MODEL 7
REMARK VINA RESULT:      -7.5      3.229      9.031
REMARK  14 active torsions:
REMARK  status: ('A' for Active; 'I' for Inactive)
REMARK    1  A    between atoms: C_2  and  N_3 
REMARK    2  A    between atoms: N_3  and  C_5 
REMARK    3  A    between atoms: N_3  and  C_39 
REMARK    4  A    between atoms: C_5  and  C_6 
REMARK    5  A    between atoms: C_6  and  C_7 
REMARK    6  A    between atoms: C_7  and  N_8 
REMARK    7  A    between atoms: C_11  and  O_12 
REMARK    8  A    between atoms: C_13  and  C_14 
REMARK    9  A    between atoms: C_14  and  C_15 
REMARK   10  A    between atoms: C_18  and  O_19 
REMARK   11  A    between atoms: O_19  and  C_20 
REMARK   12  A    between atoms: C_20  and  C_21 
REMARK   13  A    between atoms: C_31  and  C_32 
REMARK   14  A    between atoms: C_35  and  O_36 
ROOT
HETATM    1  N   UNL     1      42.690 -17.492   5.283  1.00  0.00    -0.333 N 
HETATM    2  C   UNL     1      41.358 -17.191   5.067  1.00  0.00     0.278 C 
HETATM    3  O   UNL     1      40.444 -17.173   5.871  1.00  0.00    -0.265 OA
HETATM    4  C   UNL     1      41.223 -16.770   3.655  1.00  0.00     0.146 C 
HETATM    5  C   UNL     1      42.433 -16.882   3.095  1.00  0.00     0.059 C 
HETATM    6  C   UNL     1      43.406 -17.567   4.014  1.00  0.00     0.161 C 
ENDROOT
BRANCH   5   7
HETATM    7  C   UNL     1      42.951 -16.391   1.798  1.00  0.00     0.193 C 
HETATM    8  O   UNL     1      44.149 -16.525   1.547  1.00  0.00    -0.287 OA
BRANCH   7   9
HETATM    9  C   UNL     1      42.121 -15.610   0.849  1.00  0.00     0.015 A 
HETATM   10  C   UNL     1      41.958 -14.224   0.951  1.00  0.00     0.018 A 
HETATM   11  C   UNL     1      41.245 -13.516  -0.024  1.00  0.00     0.038 A 
HETATM   12  C   UNL     1      40.729 -14.178  -1.138  1.00  0.00     0.069 A 
HETATM   13  C   UNL     1      40.911 -15.558  -1.253  1.00  0.00     0.038 A 
HETATM   14  C   UNL     1      41.603 -16.272  -0.269  1.00  0.00     0.018 A 
BRANCH  12  15
HETATM   15  O   UNL     1      40.065 -13.599  -2.183  1.00  0.00    -0.347 OA
BRANCH  15  16
HETATM   16  C   UNL     1      40.746 -13.531  -3.436  1.00  0.00     0.214 C 
BRANCH  16  17
HETATM   17  C   UNL     1      41.199 -12.113  -3.686  1.00  0.00    -0.034 A 
HETATM   18  C   UNL     1      40.437 -11.241  -4.474  1.00  0.00     0.010 A 
HETATM   19  C   UNL     1      40.831  -9.912  -4.646  1.00  0.00     0.007 A 
HETATM   20  C   UNL     1      41.994  -9.431  -4.036  1.00  0.00    -0.062 A 
HETATM   21  C   UNL     1      42.408  -7.997  -4.186  1.00  0.00     0.048 C 
HETATM   22  C   UNL     1      42.757 -10.300  -3.247  1.00  0.00     0.007 A 
HETATM   23  C   UNL     1      42.364 -11.629  -3.076  1.00  0.00     0.010 A 
ENDBRANCH  16  17
ENDBRANCH  15  16
ENDBRANCH  12  15
ENDBRANCH   7   9
ENDBRANCH   5   7
BRANCH   4  24
HETATM   24  O   UNL     1      40.066 -16.267   3.145  1.00  0.00    -0.355 OA
HETATM   25  H   UNL     1      40.035 -16.549   2.207  1.00  0.00     0.218 HD
ENDBRANCH   4  24
BRANCH   6  26
HETATM   26  C   UNL     1      43.773 -18.989   3.620  1.00  0.00    -0.030 A 
HETATM   27  C   UNL     1      43.246 -19.536   2.436  1.00  0.00     0.012 A 
HETATM   28  C   UNL     1      43.567 -20.836   2.037  1.00  0.00     0.037 A 
HETATM   29  C   UNL     1      44.418 -21.600   2.824  1.00  0.00     0.065 A 
HETATM   30  C   UNL     1      44.942 -21.090   4.004  1.00  0.00     0.037 A 
HETATM   31  C   UNL     1      44.616 -19.793   4.407  1.00  0.00     0.012 A 
BRANCH  29  32
HETATM   32  O   UNL     1      44.761 -22.872   2.477  1.00  0.00    -0.361 OA
HETATM   33  H   UNL     1      44.173 -23.177   1.767  1.00  0.00     0.217 HD
ENDBRANCH  29  32
ENDBRANCH   6  26
BRANCH   1  34
HETATM   34  C   UNL     1      43.173 -18.039   6.542  1.00  0.00     0.129 C 
BRANCH  34  35
HETATM   35  C   UNL     1      43.519 -16.990   7.600  1.00  0.00     0.048 C 
BRANCH  35  36
HETATM   36  C   UNL     1      44.444 -15.906   7.050  1.00  0.00     0.236 C 
BRANCH  36  37
HETATM   37  N   UNL     1      43.793 -14.527   7.052  1.00  0.00    -0.072 N 
HETATM   38  H   UNL     1      42.869 -14.652   7.485  1.00  0.00     0.279 HD
BRANCH  37  39
HETATM   39  C   UNL     1      43.527 -14.010   5.642  1.00  0.00     0.230 C 
HETATM   40  C   UNL     1      42.082 -13.572   5.481  1.00  0.00     0.034 C 
ENDBRANCH  37  39
BRANCH  37  41
HETATM   41  C   UNL     1      44.476 -13.468   7.905  1.00  0.00     0.230 C 
HETATM   42  C   UNL     1      45.871 -13.126   7.415  1.00  0.00     0.034 C 
ENDBRANCH  37  41
ENDBRANCH  36  37
ENDBRANCH  35  36
ENDBRANCH  34  35
ENDBRANCH   1  34
TORSDOF 14
ENDMDL
MODEL 8
REMARK VINA RESULT:      -7.5      3.635      8.744
REMARK  14 active torsions:
REMARK  status: ('A' for Active; 'I' for Inactive)
REMARK    1  A    between atoms: C_2  and  N_3 
REMARK    2  A    between atoms: N_3  and  C_5 
REMARK    3  A    between atoms: N_3  and  C_39 
REMARK    4  A    between atoms: C_5  and  C_6 
REMARK    5  A    between atoms: C_6  and  C_7 
REMARK    6  A    between atoms: C_7  and  N_8 
REMARK    7  A    between atoms: C_11  and  O_12 
REMARK    8  A    between atoms: C_13  and  C_14 
REMARK    9  A    between atoms: C_14  and  C_15 
REMARK   10  A    between atoms: C_18  and  O_19 
REMARK   11  A    between atoms: O_19  and  C_20 
REMARK   12  A    between atoms: C_20  and  C_21 
REMARK   13  A    between atoms: C_31  and  C_32 
REMARK   14  A    between atoms: C_35  and  O_36 
ROOT
HETATM    1  N   UNL     1      42.129 -17.875   2.324  1.00  0.00    -0.333 N 
HETATM    2  C   UNL     1      42.608 -17.103   1.283  1.00  0.00     0.278 C 
HETATM    3  O   UNL     1      43.439 -17.393   0.443  1.00  0.00    -0.265 OA
HETATM    4  C   UNL     1      41.841 -15.838   1.282  1.00  0.00     0.146 C 
HETATM    5  C   UNL     1      40.998 -15.889   2.320  1.00  0.00     0.059 C 
HETATM    6  C   UNL     1      41.275 -17.079   3.198  1.00  0.00     0.161 C 
ENDROOT
BRANCH   5   7
HETATM    7  C   UNL     1      39.843 -15.034   2.676  1.00  0.00     0.193 C 
HETATM    8  O   UNL     1      38.796 -15.155   2.041  1.00  0.00    -0.287 OA
BRANCH   7   9
HETATM    9  C   UNL     1      39.938 -13.934   3.666  1.00  0.00     0.015 A 
HETATM   10  C   UNL     1      40.175 -12.605   3.298  1.00  0.00     0.018 A 
HETATM   11  C   UNL     1      40.160 -11.586   4.259  1.00  0.00     0.038 A 
HETATM   12  C   UNL     1      39.858 -11.877   5.589  1.00  0.00     0.069 A 
HETATM   13  C   UNL     1      39.598 -13.200   5.953  1.00  0.00     0.038 A 
HETATM   14  C   UNL     1      39.635 -14.224   5.001  1.00  0.00     0.018 A 
BRANCH  12  15
HETATM   15  O   UNL     1      39.756 -10.971   6.608  1.00  0.00    -0.347 OA
BRANCH  15  16
HETATM   16  C   UNL     1      39.459 -11.478   7.908  1.00  0.00     0.214 C 
BRANCH  16  17
HETATM   17  C   UNL     1      40.064 -10.572   8.952  1.00  0.00    -0.034 A 
HETATM   18  C   UNL     1      40.242 -11.008  10.271  1.00  0.00     0.010 A 
HETATM   19  C   UNL     1      40.863 -10.185  11.214  1.00  0.00     0.007 A 
HETATM   20  C   UNL     1      41.315  -8.911  10.856  1.00  0.00    -0.062 A 
HETATM   21  C   UNL     1      42.014  -8.032  11.851  1.00  0.00     0.048 C 
HETATM   22  C   UNL     1      41.140  -8.472   9.539  1.00  0.00     0.007 A 
HETATM   23  C   UNL     1      40.518  -9.294   8.597  1.00  0.00     0.010 A 
ENDBRANCH  16  17
ENDBRANCH  15  16
ENDBRANCH  12  15
ENDBRANCH   7   9
ENDBRANCH   5   7
BRANCH   4  24
HETATM   24  O   UNL     1      41.960 -14.907   0.298  1.00  0.00    -0.355 OA
HETATM   25  H   UNL     1      41.831 -15.384  -0.549  1.00  0.00     0.218 HD
ENDBRANCH   4  24
BRANCH   6  26
HETATM   26  C   UNL     1      41.923 -16.756   4.535  1.00  0.00    -0.030 A 
HETATM   27  C   UNL     1      42.972 -15.820   4.586  1.00  0.00     0.012 A 
HETATM   28  C   UNL     1      43.587 -15.492   5.797  1.00  0.00     0.037 A 
HETATM   29  C   UNL     1      43.157 -16.103   6.967  1.00  0.00     0.065 A 
HETATM   30  C   UNL     1      42.134 -17.040   6.944  1.00  0.00     0.037 A 
HETATM   31  C   UNL     1      41.523 -17.374   5.733  1.00  0.00     0.012 A 
BRANCH  29  32
HETATM   32  O   UNL     1      43.725 -15.815   8.172  1.00  0.00    -0.361 OA
HETATM   33  H   UNL     1      43.942 -14.869   8.203  1.00  0.00     0.217 HD
ENDBRANCH  29  32
ENDBRANCH   6  26
BRANCH   1  34
HETATM   34  C   UNL     1      42.725 -19.153   2.687  1.00  0.00     0.129 C 
BRANCH  34  35
HETATM   35  C   UNL     1      44.243 -19.113   2.880  1.00  0.00     0.048 C 
BRANCH  35  36
HETATM   36  C   UNL     1      44.631 -19.025   4.354  1.00  0.00     0.236 C 
BRANCH  36  37
HETATM   37  N   UNL     1      44.251 -20.279   5.134  1.00  0.00    -0.072 N 
HETATM   38  H   UNL     1      43.345 -20.585   4.753  1.00  0.00     0.279 HD
BRANCH  37  39
HETATM   39  C   UNL     1      44.006 -19.990   6.611  1.00  0.00     0.230 C 
HETATM   40  C   UNL     1      43.491 -21.222   7.334  1.00  0.00     0.034 C 
ENDBRANCH  37  39
BRANCH  37  41
HETATM   41  C   UNL     1      45.167 -21.481   4.953  1.00  0.00     0.230 C 
HETATM   42  C   UNL     1      44.555 -22.562   4.081  1.00  0.00     0.034 C 
ENDBRANCH  37  41
ENDBRANCH  36  37
ENDBRANCH  35  36
ENDBRANCH  34  35
ENDBRANCH   1  34
TORSDOF 14
ENDMDL
MODEL 9
REMARK VINA RESULT:      -7.5      4.890      9.183
REMARK  14 active torsions:
REMARK  status: ('A' for Active; 'I' for Inactive)
REMARK    1  A    between atoms: C_2  and  N_3 
REMARK    2  A    between atoms: N_3  and  C_5 
REMARK    3  A    between atoms: N_3  and  C_39 
REMARK    4  A    between atoms: C_5  and  C_6 
REMARK    5  A    between atoms: C_6  and  C_7 
REMARK    6  A    between atoms: C_7  and  N_8 
REMARK    7  A    between atoms: C_11  and  O_12 
REMARK    8  A    between atoms: C_13  and  C_14 
REMARK    9  A    between atoms: C_14  and  C_15 
REMARK   10  A    between atoms: C_18  and  O_19 
REMARK   11  A    between atoms: O_19  and  C_20 
REMARK   12  A    between atoms: C_20  and  C_21 
REMARK   13  A    between atoms: C_31  and  C_32 
REMARK   14  A    between atoms: C_35  and  O_36 
ROOT
HETATM    1  N   UNL     1      43.306 -16.440   5.234  1.00  0.00    -0.333 N 
HETATM    2  C   UNL     1      43.094 -16.803   6.551  1.00  0.00     0.278 C 
HETATM    3  O   UNL     1      42.592 -17.823   6.986  1.00  0.00    -0.265 OA
HETATM    4  C   UNL     1      43.694 -15.751   7.401  1.00  0.00     0.146 C 
HETATM    5  C   UNL     1      44.180 -14.813   6.581  1.00  0.00     0.059 C 
HETATM    6  C   UNL     1      43.768 -15.059   5.156  1.00  0.00     0.161 C 
ENDROOT
BRANCH   5   7
HETATM    7  C   UNL     1      45.079 -13.666   6.842  1.00  0.00     0.193 C 
HETATM    8  O   UNL     1      46.161 -13.615   6.259  1.00  0.00    -0.287 OA
BRANCH   7   9
HETATM    9  C   UNL     1      44.797 -12.651   7.887  1.00  0.00     0.015 A 
HETATM   10  C   UNL     1      43.531 -12.084   8.068  1.00  0.00     0.018 A 
HETATM   11  C   UNL     1      43.290 -11.203   9.130  1.00  0.00     0.038 A 
HETATM   12  C   UNL     1      44.298 -10.919  10.051  1.00  0.00     0.069 A 
HETATM   13  C   UNL     1      45.555 -11.503   9.885  1.00  0.00     0.038 A 
HETATM   14  C   UNL     1      45.807 -12.365   8.812  1.00  0.00     0.018 A 
BRANCH  12  15
HETATM   15  O   UNL     1      44.177 -10.124  11.157  1.00  0.00    -0.347 OA
BRANCH  15  16
HETATM   16  C   UNL     1      43.539 -10.688  12.302  1.00  0.00     0.214 C 
BRANCH  16  17
HETATM   17  C   UNL     1      42.092 -10.259  12.334  1.00  0.00    -0.034 A 
HETATM   18  C   UNL     1      41.739  -8.906  12.258  1.00  0.00     0.010 A 
HETATM   19  C   UNL     1      40.395  -8.524  12.222  1.00  0.00     0.007 A 
HETATM   20  C   UNL     1      39.381  -9.487  12.265  1.00  0.00    -0.062 A 
HETATM   21  C   UNL     1      37.937  -9.090  12.193  1.00  0.00     0.048 C 
HETATM   22  C   UNL     1      39.731 -10.840  12.340  1.00  0.00     0.007 A 
HETATM   23  C   UNL     1      41.074 -11.222  12.377  1.00  0.00     0.010 A 
ENDBRANCH  16  17
ENDBRANCH  15  16
ENDBRANCH  12  15
ENDBRANCH   7   9
ENDBRANCH   5   7
BRANCH   4  24
HETATM   24  O   UNL     1      43.789 -15.865   8.754  1.00  0.00    -0.355 OA
HETATM   25  H   UNL     1      44.577 -15.345   9.018  1.00  0.00     0.218 HD
ENDBRANCH   4  24
BRANCH   6  26
HETATM   26  C   UNL     1      42.713 -14.106   4.615  1.00  0.00    -0.030 A 
HETATM   27  C   UNL     1      41.556 -13.854   5.376  1.00  0.00     0.012 A 
HETATM   28  C   UNL     1      40.568 -12.979   4.917  1.00  0.00     0.037 A 
HETATM   29  C   UNL     1      40.731 -12.351   3.689  1.00  0.00     0.065 A 
HETATM   30  C   UNL     1      41.856 -12.592   2.912  1.00  0.00     0.037 A 
HETATM   31  C   UNL     1      42.840 -13.473   3.367  1.00  0.00     0.012 A 
BRANCH  29  32
HETATM   32  O   UNL     1      39.796 -11.490   3.199  1.00  0.00    -0.361 OA
HETATM   33  H   UNL     1      39.583 -11.738   2.285  1.00  0.00     0.217 HD
ENDBRANCH  29  32
ENDBRANCH   6  26
BRANCH   1  34
HETATM   34  C   UNL     1      42.758 -17.196   4.118  1.00  0.00     0.129 C 
BRANCH  34  35
HETATM   35  C   UNL     1      43.808 -17.861   3.225  1.00  0.00     0.048 C 
BRANCH  35  36
HETATM   36  C   UNL     1      43.488 -19.329   2.960  1.00  0.00     0.236 C 
BRANCH  36  37
HETATM   37  N   UNL     1      44.578 -20.266   3.471  1.00  0.00    -0.072 N 
HETATM   38  H   UNL     1      45.453 -19.946   3.035  1.00  0.00     0.279 HD
BRANCH  37  39
HETATM   39  C   UNL     1      44.377 -21.702   2.997  1.00  0.00     0.230 C 
HETATM   40  C   UNL     1      44.085 -21.754   1.508  1.00  0.00     0.034 C 
ENDBRANCH  37  39
BRANCH  37  41
HETATM   41  C   UNL     1      44.855 -20.215   4.967  1.00  0.00     0.230 C 
HETATM   42  C   UNL     1      44.546 -21.525   5.667  1.00  0.00     0.034 C 
ENDBRANCH  37  41
ENDBRANCH  36  37
ENDBRANCH  35  36
ENDBRANCH  34  35
ENDBRANCH   1  34
TORSDOF 14
ENDMDL
MODEL 10
REMARK VINA RESULT:      -7.4      3.407      6.591
REMARK  14 active torsions:
REMARK  status: ('A' for Active; 'I' for Inactive)
REMARK    1  A    between atoms: C_2  and  N_3 
REMARK    2  A    between atoms: N_3  and  C_5 
REMARK    3  A    between atoms: N_3  and  C_39 
REMARK    4  A    between atoms: C_5  and  C_6 
REMARK    5  A    between atoms: C_6  and  C_7 
REMARK    6  A    between atoms: C_7  and  N_8 
REMARK    7  A    between atoms: C_11  and  O_12 
REMARK    8  A    between atoms: C_13  and  C_14 
REMARK    9  A    between atoms: C_14  and  C_15 
REMARK   10  A    between atoms: C_18  and  O_19 
REMARK   11  A    between atoms: O_19  and  C_20 
REMARK   12  A    between atoms: C_20  and  C_21 
REMARK   13  A    between atoms: C_31  and  C_32 
REMARK   14  A    between atoms: C_35  and  O_36 
ROOT
HETATM    1  N   UNL     1      39.498 -13.112   1.891  1.00  0.00    -0.333 N 
HETATM    2  C   UNL     1      38.829 -14.305   1.688  1.00  0.00     0.278 C 
HETATM    3  O   UNL     1      37.772 -14.495   1.116  1.00  0.00    -0.265 OA
HETATM    4  C   UNL     1      39.690 -15.388   2.212  1.00  0.00     0.146 C 
HETATM    5  C   UNL     1      40.779 -14.808   2.731  1.00  0.00     0.059 C 
HETATM    6  C   UNL     1      40.637 -13.312   2.779  1.00  0.00     0.161 C 
ENDROOT
BRANCH   5   7
HETATM    7  C   UNL     1      42.068 -15.385   3.176  1.00  0.00     0.193 C 
HETATM    8  O   UNL     1      42.606 -16.245   2.481  1.00  0.00    -0.287 OA
BRANCH   7   9
HETATM    9  C   UNL     1      42.666 -15.079   4.499  1.00  0.00     0.015 A 
HETATM   10  C   UNL     1      42.386 -15.830   5.646  1.00  0.00     0.018 A 
HETATM   11  C   UNL     1      43.049 -15.564   6.851  1.00  0.00     0.038 A 
HETATM   12  C   UNL     1      44.035 -14.580   6.909  1.00  0.00     0.069 A 
HETATM   13  C   UNL     1      44.331 -13.845   5.759  1.00  0.00     0.038 A 
HETATM   14  C   UNL     1      43.655 -14.092   4.560  1.00  0.00     0.018 A 
BRANCH  12  15
HETATM   15  O   UNL     1      44.791 -14.262   8.003  1.00  0.00    -0.347 OA
BRANCH  15  16
HETATM   16  C   UNL     1      45.470 -13.006   7.988  1.00  0.00     0.214 C 
BRANCH  16  17
HETATM   17  C   UNL     1      44.788 -12.055   8.941  1.00  0.00    -0.034 A 
HETATM   18  C   UNL     1      43.541 -11.496   8.632  1.00  0.00     0.010 A 
HETATM   19  C   UNL     1      42.888 -10.668   9.549  1.00  0.00     0.007 A 
HETATM   20  C   UNL     1      43.470 -10.382  10.789  1.00  0.00    -0.062 A 
HETATM   21  C   UNL     1      42.762  -9.523  11.794  1.00  0.00     0.048 C 
HETATM   22  C   UNL     1      44.715 -10.940  11.100  1.00  0.00     0.007 A 
HETATM   23  C   UNL     1      45.368 -11.767  10.184  1.00  0.00     0.010 A 
ENDBRANCH  16  17
ENDBRANCH  15  16
ENDBRANCH  12  15
ENDBRANCH   7   9
ENDBRANCH   5   7
BRANCH   4  24
HETATM   24  O   UNL     1      39.398 -16.706   2.044  1.00  0.00    -0.355 OA
HETATM   25  H   UNL     1      39.121 -17.040   2.924  1.00  0.00     0.218 HD
ENDBRANCH   4  24
BRANCH   6  26
HETATM   26  C   UNL     1      40.421 -12.728   4.166  1.00  0.00    -0.030 A 
HETATM   27  C   UNL     1      41.106 -11.556   4.536  1.00  0.00     0.012 A 
HETATM   28  C   UNL     1      40.927 -10.985   5.799  1.00  0.00     0.037 A 
HETATM   29  C   UNL     1      40.062 -11.587   6.703  1.00  0.00     0.065 A 
HETATM   30  C   UNL     1      39.385 -12.751   6.369  1.00  0.00     0.037 A 
HETATM   31  C   UNL     1      39.568 -13.326   5.110  1.00  0.00     0.012 A 
BRANCH  29  32
HETATM   32  O   UNL     1      39.855 -11.068   7.945  1.00  0.00    -0.361 OA
HETATM   33  H   UNL     1      40.038 -10.114   7.926  1.00  0.00     0.217 HD
ENDBRANCH  29  32
ENDBRANCH   6  26
BRANCH   1  34
HETATM   34  C   UNL     1      38.899 -11.821   1.586  1.00  0.00     0.129 C 
BRANCH  34  35
HETATM   35  C   UNL     1      39.700 -10.966   0.601  1.00  0.00     0.048 C 
BRANCH  35  36
HETATM   36  C   UNL     1      39.545 -11.453  -0.837  1.00  0.00     0.236 C 
BRANCH  36  37
HETATM   37  N   UNL     1      40.838 -12.033  -1.400  1.00  0.00    -0.072 N 
HETATM   38  H   UNL     1      40.996 -11.554  -2.296  1.00  0.00     0.279 HD
BRANCH  37  39
HETATM   39  C   UNL     1      40.711 -13.515  -1.737  1.00  0.00     0.230 C 
HETATM   40  C   UNL     1      41.615 -14.359  -0.857  1.00  0.00     0.034 C 
ENDBRANCH  37  39
BRANCH  37  41
HETATM   41  C   UNL     1      42.100 -11.760  -0.593  1.00  0.00     0.230 C 
HETATM   42  C   UNL     1      43.193 -11.103  -1.414  1.00  0.00     0.034 C 
ENDBRANCH  37  41
ENDBRANCH  36  37
ENDBRANCH  35  36
ENDBRANCH  34  35
ENDBRANCH   1  34
TORSDOF 14
ENDMDL
