MODEL 1
REMARK VINA RESULT:      -8.3      0.000      0.000
REMARK  5 active torsions:
REMARK  status: ('A' for Active; 'I' for Inactive)
REMARK    1  A    between atoms: C_9  and  C_10 
REMARK    2  A    between atoms: C_13  and  O_14 
REMARK    3  A    between atoms: O_14  and  C_15 
REMARK    4  A    between atoms: C_20  and  C_21 
REMARK       I    between atoms: C_21  and  N_22 
REMARK    5  A    between atoms: N_22  and  C_23 
ROOT
HETATM    1  C   UNL     1      39.677 -14.012   4.822  1.00  0.00     0.070 C 
HETATM    2  C   UNL     1      40.356 -14.340   3.515  1.00  0.00     0.037 A 
HETATM    3  N   UNL     1      39.596 -14.128   2.368  1.00  0.00    -0.192 N 
HETATM    4  C   UNL     1      40.082 -14.275   1.122  1.00  0.00     0.725 A 
HETATM    5  N   UNL     1      41.351 -14.757   0.951  1.00  0.00    -0.084 N 
HETATM    6  N   UNL     1      41.727 -14.699  -0.344  1.00  0.00    -0.149 NA
HETATM    7  C   UNL     1      40.591 -14.272  -0.908  1.00  0.00     0.275 A 
HETATM    8  N   UNL     1      39.563 -13.994  -0.045  1.00  0.00    -0.054 NA
HETATM    9  C   UNL     1      42.244 -15.133   2.053  1.00  0.00     0.202 A 
HETATM   10  C   UNL     1      41.628 -14.795   3.404  1.00  0.00     0.062 A 
HETATM   11  H   UNL     1      38.661 -13.748   2.485  1.00  0.00     0.184 HD
ENDROOT
BRANCH   9  12
HETATM   12  C   UNL     1      42.654 -16.595   1.917  1.00  0.00    -0.028 A 
HETATM   13  C   UNL     1      41.672 -17.596   1.880  1.00  0.00     0.012 A 
HETATM   14  C   UNL     1      42.033 -18.940   1.767  1.00  0.00     0.037 A 
HETATM   15  C   UNL     1      43.375 -19.315   1.684  1.00  0.00     0.074 A 
HETATM   16  C   UNL     1      44.361 -18.330   1.742  1.00  0.00     0.037 A 
HETATM   17  C   UNL     1      44.004 -16.982   1.859  1.00  0.00     0.012 A 
BRANCH  15  18
HETATM   18  O   UNL     1      43.589 -20.660   1.578  1.00  0.00    -0.290 OA
BRANCH  18  19
HETATM   19  C   UNL     1      44.572 -21.208   2.439  1.00  0.00     0.505 C 
HETATM   20  F   UNL     1      44.309 -20.833   3.715  1.00  0.00    -0.184 F 
HETATM   21  F   UNL     1      44.437 -22.559   2.397  1.00  0.00    -0.184 F 
ENDBRANCH  18  19
ENDBRANCH  15  18
ENDBRANCH   9  12
BRANCH  10  22
HETATM   22  C   UNL     1      42.443 -15.070   4.617  1.00  0.00     0.256 C 
HETATM   23  N   UNL     1      42.415 -16.395   4.996  1.00  0.00    -0.323 N 
HETATM   24  H   UNL     1      41.867 -17.038   4.442  1.00  0.00     0.169 HD
HETATM   25  O   UNL     1      43.051 -14.153   5.154  1.00  0.00    -0.267 OA
BRANCH  23  26
HETATM   26  C   UNL     1      43.100 -16.984   6.082  1.00  0.00     0.035 A 
HETATM   27  C   UNL     1      42.725 -16.832   7.418  1.00  0.00     0.029 A 
HETATM   28  C   UNL     1      43.469 -17.438   8.436  1.00  0.00     0.002 A 
HETATM   29  C   UNL     1      44.587 -18.208   8.127  1.00  0.00     0.000 A 
HETATM   30  C   UNL     1      44.966 -18.370   6.797  1.00  0.00     0.002 A 
HETATM   31  C   UNL     1      44.231 -17.757   5.781  1.00  0.00     0.029 A 
ENDBRANCH  23  26
ENDBRANCH  10  22
TORSDOF 5
ENDMDL
MODEL 2
REMARK VINA RESULT:      -8.3      2.401      4.947
REMARK  5 active torsions:
REMARK  status: ('A' for Active; 'I' for Inactive)
REMARK    1  A    between atoms: C_9  and  C_10 
REMARK    2  A    between atoms: C_13  and  O_14 
REMARK    3  A    between atoms: O_14  and  C_15 
REMARK    4  A    between atoms: C_20  and  C_21 
REMARK       I    between atoms: C_21  and  N_22 
REMARK    5  A    between atoms: N_22  and  C_23 
ROOT
HETATM    1  C   UNL     1      41.991 -14.788   0.498  1.00  0.00     0.070 C 
HETATM    2  C   UNL     1      41.405 -14.573   1.872  1.00  0.00     0.037 A 
HETATM    3  N   UNL     1      41.133 -13.252   2.214  1.00  0.00    -0.192 N 
HETATM    4  C   UNL     1      40.520 -12.896   3.358  1.00  0.00     0.725 A 
HETATM    5  N   UNL     1      40.235 -13.855   4.291  1.00  0.00    -0.084 N 
HETATM    6  N   UNL     1      39.492 -13.352   5.299  1.00  0.00    -0.149 NA
HETATM    7  C   UNL     1      39.462 -12.058   4.958  1.00  0.00     0.275 A 
HETATM    8  N   UNL     1      40.073 -11.739   3.773  1.00  0.00    -0.054 NA
HETATM    9  C   UNL     1      40.555 -15.278   4.133  1.00  0.00     0.202 A 
HETATM   10  C   UNL     1      41.121 -15.567   2.749  1.00  0.00     0.062 A 
HETATM   11  H   UNL     1      41.320 -12.536   1.517  1.00  0.00     0.184 HD
ENDROOT
BRANCH   9  12
HETATM   12  C   UNL     1      41.457 -15.740   5.272  1.00  0.00    -0.028 A 
HETATM   13  C   UNL     1      41.095 -16.855   6.042  1.00  0.00     0.012 A 
HETATM   14  C   UNL     1      41.906 -17.282   7.095  1.00  0.00     0.037 A 
HETATM   15  C   UNL     1      43.094 -16.615   7.400  1.00  0.00     0.074 A 
HETATM   16  C   UNL     1      43.452 -15.492   6.654  1.00  0.00     0.037 A 
HETATM   17  C   UNL     1      42.640 -15.057   5.600  1.00  0.00     0.012 A 
BRANCH  15  18
HETATM   18  O   UNL     1      43.790 -17.136   8.453  1.00  0.00    -0.290 OA
BRANCH  18  19
HETATM   19  C   UNL     1      44.275 -18.458   8.291  1.00  0.00     0.505 C 
HETATM   20  F   UNL     1      45.279 -18.457   7.378  1.00  0.00    -0.184 F 
HETATM   21  F   UNL     1      44.828 -18.833   9.473  1.00  0.00    -0.184 F 
ENDBRANCH  18  19
ENDBRANCH  15  18
ENDBRANCH   9  12
BRANCH  10  22
HETATM   22  C   UNL     1      41.443 -16.981   2.423  1.00  0.00     0.256 C 
HETATM   23  N   UNL     1      42.649 -17.395   2.947  1.00  0.00    -0.323 N 
HETATM   24  H   UNL     1      43.188 -16.731   3.485  1.00  0.00     0.169 HD
HETATM   25  O   UNL     1      40.655 -17.640   1.756  1.00  0.00    -0.267 OA
BRANCH  23  26
HETATM   26  C   UNL     1      43.227 -18.680   2.842  1.00  0.00     0.035 A 
HETATM   27  C   UNL     1      43.071 -19.519   1.737  1.00  0.00     0.029 A 
HETATM   28  C   UNL     1      43.666 -20.785   1.720  1.00  0.00     0.002 A 
HETATM   29  C   UNL     1      44.430 -21.218   2.801  1.00  0.00     0.000 A 
HETATM   30  C   UNL     1      44.597 -20.386   3.904  1.00  0.00     0.002 A 
HETATM   31  C   UNL     1      43.994 -19.126   3.928  1.00  0.00     0.029 A 
ENDBRANCH  23  26
ENDBRANCH  10  22
TORSDOF 5
ENDMDL
MODEL 3
REMARK VINA RESULT:      -8.2      3.471      5.160
REMARK  5 active torsions:
REMARK  status: ('A' for Active; 'I' for Inactive)
REMARK    1  A    between atoms: C_9  and  C_10 
REMARK    2  A    between atoms: C_13  and  O_14 
REMARK    3  A    between atoms: O_14  and  C_15 
REMARK    4  A    between atoms: C_20  and  C_21 
REMARK       I    between atoms: C_21  and  N_22 
REMARK    5  A    between atoms: N_22  and  C_23 
ROOT
HETATM    1  C   UNL     1      40.822 -16.651   6.474  1.00  0.00     0.070 C 
HETATM    2  C   UNL     1      40.713 -15.382   5.663  1.00  0.00     0.037 A 
HETATM    3  N   UNL     1      39.699 -14.508   6.041  1.00  0.00    -0.192 N 
HETATM    4  C   UNL     1      39.528 -13.292   5.488  1.00  0.00     0.725 A 
HETATM    5  N   UNL     1      40.313 -12.921   4.431  1.00  0.00    -0.084 N 
HETATM    6  N   UNL     1      40.111 -11.628   4.102  1.00  0.00    -0.149 NA
HETATM    7  C   UNL     1      39.111 -11.317   4.935  1.00  0.00     0.275 A 
HETATM    8  N   UNL     1      38.730 -12.305   5.805  1.00  0.00    -0.054 NA
HETATM    9  C   UNL     1      41.353 -13.770   3.841  1.00  0.00     0.202 A 
HETATM   10  C   UNL     1      41.536 -15.056   4.636  1.00  0.00     0.062 A 
HETATM   11  H   UNL     1      39.127 -14.765   6.840  1.00  0.00     0.184 HD
ENDROOT
BRANCH   9  12
HETATM   12  C   UNL     1      41.061 -14.002   2.362  1.00  0.00    -0.028 A 
HETATM   13  C   UNL     1      39.857 -14.608   1.974  1.00  0.00     0.012 A 
HETATM   14  C   UNL     1      39.581 -14.838   0.625  1.00  0.00     0.037 A 
HETATM   15  C   UNL     1      40.492 -14.465  -0.365  1.00  0.00     0.074 A 
HETATM   16  C   UNL     1      41.703 -13.882   0.011  1.00  0.00     0.037 A 
HETATM   17  C   UNL     1      41.985 -13.654   1.363  1.00  0.00     0.012 A 
BRANCH  15  18
HETATM   18  O   UNL     1      40.098 -14.748  -1.642  1.00  0.00    -0.290 OA
BRANCH  18  19
HETATM   19  C   UNL     1      40.938 -15.621  -2.378  1.00  0.00     0.505 C 
HETATM   20  F   UNL     1      40.172 -16.458  -3.120  1.00  0.00    -0.184 F 
HETATM   21  F   UNL     1      41.641 -14.859  -3.255  1.00  0.00    -0.184 F 
ENDBRANCH  18  19
ENDBRANCH  15  18
ENDBRANCH   9  12
BRANCH  10  22
HETATM   22  C   UNL     1      42.598 -15.994   4.187  1.00  0.00     0.256 C 
HETATM   23  N   UNL     1      42.121 -17.260   3.920  1.00  0.00    -0.323 N 
HETATM   24  H   UNL     1      41.134 -17.435   4.047  1.00  0.00     0.169 HD
HETATM   25  O   UNL     1      43.751 -15.594   4.086  1.00  0.00    -0.267 OA
BRANCH  23  26
HETATM   26  C   UNL     1      42.864 -18.368   3.453  1.00  0.00     0.035 A 
HETATM   27  C   UNL     1      42.788 -18.866   2.151  1.00  0.00     0.029 A 
HETATM   28  C   UNL     1      43.547 -19.979   1.774  1.00  0.00     0.002 A 
HETATM   29  C   UNL     1      44.394 -20.596   2.692  1.00  0.00     0.000 A 
HETATM   30  C   UNL     1      44.480 -20.103   3.990  1.00  0.00     0.002 A 
HETATM   31  C   UNL     1      43.715 -18.999   4.371  1.00  0.00     0.029 A 
ENDBRANCH  23  26
ENDBRANCH  10  22
TORSDOF 5
ENDMDL
MODEL 4
REMARK VINA RESULT:      -8.0      3.779      5.765
REMARK  5 active torsions:
REMARK  status: ('A' for Active; 'I' for Inactive)
REMARK    1  A    between atoms: C_9  and  C_10 
REMARK    2  A    between atoms: C_13  and  O_14 
REMARK    3  A    between atoms: O_14  and  C_15 
REMARK    4  A    between atoms: C_20  and  C_21 
REMARK       I    between atoms: C_21  and  N_22 
REMARK    5  A    between atoms: N_22  and  C_23 
ROOT
HETATM    1  C   UNL     1      40.442 -16.916   6.469  1.00  0.00     0.070 C 
HETATM    2  C   UNL     1      40.737 -15.669   5.672  1.00  0.00     0.037 A 
HETATM    3  N   UNL     1      40.434 -14.464   6.298  1.00  0.00    -0.192 N 
HETATM    4  C   UNL     1      40.725 -13.262   5.767  1.00  0.00     0.725 A 
HETATM    5  N   UNL     1      41.252 -13.197   4.506  1.00  0.00    -0.084 N 
HETATM    6  N   UNL     1      41.621 -11.936   4.194  1.00  0.00    -0.149 NA
HETATM    7  C   UNL     1      41.184 -11.280   5.276  1.00  0.00     0.275 A 
HETATM    8  N   UNL     1      40.638 -12.055   6.265  1.00  0.00    -0.054 NA
HETATM    9  C   UNL     1      41.529 -14.369   3.669  1.00  0.00     0.202 A 
HETATM   10  C   UNL     1      41.282 -15.664   4.431  1.00  0.00     0.062 A 
HETATM   11  H   UNL     1      40.064 -14.503   7.244  1.00  0.00     0.184 HD
ENDROOT
BRANCH   9  12
HETATM   12  C   UNL     1      40.753 -14.271   2.360  1.00  0.00    -0.028 A 
HETATM   13  C   UNL     1      41.443 -14.128   1.147  1.00  0.00     0.012 A 
HETATM   14  C   UNL     1      40.745 -14.026  -0.058  1.00  0.00     0.037 A 
HETATM   15  C   UNL     1      39.350 -14.070  -0.082  1.00  0.00     0.074 A 
HETATM   16  C   UNL     1      38.653 -14.190   1.120  1.00  0.00     0.037 A 
HETATM   17  C   UNL     1      39.348 -14.288   2.331  1.00  0.00     0.012 A 
BRANCH  15  18
HETATM   18  O   UNL     1      38.795 -13.959  -1.325  1.00  0.00    -0.290 OA
BRANCH  18  19
HETATM   19  C   UNL     1      39.675 -14.132  -2.422  1.00  0.00     0.505 C 
HETATM   20  F   UNL     1      39.685 -15.439  -2.786  1.00  0.00    -0.184 F 
HETATM   21  F   UNL     1      39.154 -13.444  -3.470  1.00  0.00    -0.184 F 
ENDBRANCH  18  19
ENDBRANCH  15  18
ENDBRANCH   9  12
BRANCH  10  22
HETATM   22  C   UNL     1      41.574 -16.940   3.725  1.00  0.00     0.256 C 
HETATM   23  N   UNL     1      42.829 -17.437   4.006  1.00  0.00    -0.323 N 
HETATM   24  H   UNL     1      43.418 -16.915   4.639  1.00  0.00     0.169 HD
HETATM   25  O   UNL     1      40.723 -17.430   2.993  1.00  0.00    -0.267 OA
BRANCH  23  26
HETATM   26  C   UNL     1      43.397 -18.636   3.520  1.00  0.00     0.035 A 
HETATM   27  C   UNL     1      43.107 -19.189   2.272  1.00  0.00     0.029 A 
HETATM   28  C   UNL     1      43.703 -20.390   1.874  1.00  0.00     0.002 A 
HETATM   29  C   UNL     1      44.601 -21.042   2.715  1.00  0.00     0.000 A 
HETATM   30  C   UNL     1      44.902 -20.496   3.959  1.00  0.00     0.002 A 
HETATM   31  C   UNL     1      44.299 -19.302   4.363  1.00  0.00     0.029 A 
ENDBRANCH  23  26
ENDBRANCH  10  22
TORSDOF 5
ENDMDL
MODEL 5
REMARK VINA RESULT:      -8.0      3.171      5.361
REMARK  5 active torsions:
REMARK  status: ('A' for Active; 'I' for Inactive)
REMARK    1  A    between atoms: C_9  and  C_10 
REMARK    2  A    between atoms: C_13  and  O_14 
REMARK    3  A    between atoms: O_14  and  C_15 
REMARK    4  A    between atoms: C_20  and  C_21 
REMARK       I    between atoms: C_21  and  N_22 
REMARK    5  A    between atoms: N_22  and  C_23 
ROOT
HETATM    1  C   UNL     1      41.345 -15.665  -0.575  1.00  0.00     0.070 C 
HETATM    2  C   UNL     1      40.923 -14.977   0.701  1.00  0.00     0.037 A 
HETATM    3  N   UNL     1      40.599 -13.629   0.583  1.00  0.00    -0.192 N 
HETATM    4  C   UNL     1      40.111 -12.895   1.600  1.00  0.00     0.725 A 
HETATM    5  N   UNL     1      40.019 -13.455   2.845  1.00  0.00    -0.084 N 
HETATM    6  N   UNL     1      39.374 -12.636   3.703  1.00  0.00    -0.149 NA
HETATM    7  C   UNL     1      39.205 -11.556   2.930  1.00  0.00     0.275 A 
HETATM    8  N   UNL     1      39.635 -11.677   1.634  1.00  0.00    -0.054 NA
HETATM    9  C   UNL     1      40.421 -14.829   3.162  1.00  0.00     0.202 A 
HETATM   10  C   UNL     1      40.827 -15.590   1.907  1.00  0.00     0.062 A 
HETATM   11  H   UNL     1      40.643 -13.213  -0.343  1.00  0.00     0.184 HD
ENDROOT
BRANCH   9  12
HETATM   12  C   UNL     1      41.493 -14.823   4.247  1.00  0.00    -0.028 A 
HETATM   13  C   UNL     1      42.617 -13.994   4.114  1.00  0.00     0.012 A 
HETATM   14  C   UNL     1      43.612 -13.986   5.093  1.00  0.00     0.037 A 
HETATM   15  C   UNL     1      43.507 -14.796   6.225  1.00  0.00     0.074 A 
HETATM   16  C   UNL     1      42.404 -15.640   6.357  1.00  0.00     0.037 A 
HETATM   17  C   UNL     1      41.407 -15.655   5.375  1.00  0.00     0.012 A 
BRANCH  15  18
HETATM   18  O   UNL     1      44.549 -14.692   7.103  1.00  0.00    -0.290 OA
BRANCH  18  19
HETATM   19  C   UNL     1      44.912 -13.378   7.492  1.00  0.00     0.505 C 
HETATM   20  F   UNL     1      44.752 -13.248   8.832  1.00  0.00    -0.184 F 
HETATM   21  F   UNL     1      46.239 -13.237   7.244  1.00  0.00    -0.184 F 
ENDBRANCH  18  19
ENDBRANCH  15  18
ENDBRANCH   9  12
BRANCH  10  22
HETATM   22  C   UNL     1      41.210 -17.018   2.065  1.00  0.00     0.256 C 
HETATM   23  N   UNL     1      42.531 -17.186   2.421  1.00  0.00    -0.323 N 
HETATM   24  H   UNL     1      43.103 -16.361   2.538  1.00  0.00     0.169 HD
HETATM   25  O   UNL     1      40.369 -17.889   1.885  1.00  0.00    -0.267 OA
BRANCH  23  26
HETATM   26  C   UNL     1      43.196 -18.407   2.672  1.00  0.00     0.035 A 
HETATM   27  C   UNL     1      43.333 -19.431   1.733  1.00  0.00     0.029 A 
HETATM   28  C   UNL     1      43.993 -20.617   2.069  1.00  0.00     0.002 A 
HETATM   29  C   UNL     1      44.531 -20.786   3.343  1.00  0.00     0.000 A 
HETATM   30  C   UNL     1      44.405 -19.768   4.285  1.00  0.00     0.002 A 
HETATM   31  C   UNL     1      43.736 -18.588   3.954  1.00  0.00     0.029 A 
ENDBRANCH  23  26
ENDBRANCH  10  22
TORSDOF 5
ENDMDL
MODEL 6
REMARK VINA RESULT:      -7.8      2.064      5.931
REMARK  5 active torsions:
REMARK  status: ('A' for Active; 'I' for Inactive)
REMARK    1  A    between atoms: C_9  and  C_10 
REMARK    2  A    between atoms: C_13  and  O_14 
REMARK    3  A    between atoms: O_14  and  C_15 
REMARK    4  A    between atoms: C_20  and  C_21 
REMARK       I    between atoms: C_21  and  N_22 
REMARK    5  A    between atoms: N_22  and  C_23 
ROOT
HETATM    1  C   UNL     1      41.662 -12.042   1.893  1.00  0.00     0.070 C 
HETATM    2  C   UNL     1      41.957 -13.175   2.845  1.00  0.00     0.037 A 
HETATM    3  N   UNL     1      42.798 -12.868   3.910  1.00  0.00    -0.192 N 
HETATM    4  C   UNL     1      43.082 -13.734   4.901  1.00  0.00     0.725 A 
HETATM    5  N   UNL     1      42.614 -15.017   4.823  1.00  0.00    -0.084 N 
HETATM    6  N   UNL     1      42.862 -15.699   5.961  1.00  0.00    -0.149 NA
HETATM    7  C   UNL     1      43.579 -14.792   6.637  1.00  0.00     0.275 A 
HETATM    8  N   UNL     1      43.729 -13.575   6.026  1.00  0.00    -0.054 NA
HETATM    9  C   UNL     1      41.806 -15.532   3.713  1.00  0.00     0.202 A 
HETATM   10  C   UNL     1      41.445 -14.425   2.731  1.00  0.00     0.062 A 
HETATM   11  H   UNL     1      43.131 -11.911   3.988  1.00  0.00     0.184 HD
ENDROOT
BRANCH   9  12
HETATM   12  C   UNL     1      42.507 -16.721   3.064  1.00  0.00    -0.028 A 
HETATM   13  C   UNL     1      42.144 -18.027   3.423  1.00  0.00     0.012 A 
HETATM   14  C   UNL     1      42.785 -19.126   2.846  1.00  0.00     0.037 A 
HETATM   15  C   UNL     1      43.794 -18.947   1.897  1.00  0.00     0.074 A 
HETATM   16  C   UNL     1      44.177 -17.652   1.549  1.00  0.00     0.037 A 
HETATM   17  C   UNL     1      43.540 -16.548   2.128  1.00  0.00     0.012 A 
BRANCH  15  18
HETATM   18  O   UNL     1      44.336 -20.104   1.414  1.00  0.00    -0.290 OA
BRANCH  18  19
HETATM   19  C   UNL     1      43.875 -21.307   2.004  1.00  0.00     0.505 C 
HETATM   20  F   UNL     1      43.901 -22.298   1.078  1.00  0.00    -0.184 F 
HETATM   21  F   UNL     1      44.768 -21.653   2.965  1.00  0.00    -0.184 F 
ENDBRANCH  18  19
ENDBRANCH  15  18
ENDBRANCH   9  12
BRANCH  10  22
HETATM   22  C   UNL     1      40.580 -14.788   1.578  1.00  0.00     0.256 C 
HETATM   23  N   UNL     1      41.142 -14.471   0.360  1.00  0.00    -0.323 N 
HETATM   24  H   UNL     1      42.055 -14.038   0.354  1.00  0.00     0.169 HD
HETATM   25  O   UNL     1      39.495 -15.318   1.783  1.00  0.00    -0.267 OA
BRANCH  23  26
HETATM   26  C   UNL     1      40.592 -14.708  -0.920  1.00  0.00     0.035 A 
HETATM   27  C   UNL     1      41.029 -15.712  -1.785  1.00  0.00     0.029 A 
HETATM   28  C   UNL     1      40.439 -15.869  -3.044  1.00  0.00     0.002 A 
HETATM   29  C   UNL     1      39.401 -15.031  -3.443  1.00  0.00     0.000 A 
HETATM   30  C   UNL     1      38.953 -14.031  -2.585  1.00  0.00     0.002 A 
HETATM   31  C   UNL     1      39.549 -13.866  -1.332  1.00  0.00     0.029 A 
ENDBRANCH  23  26
ENDBRANCH  10  22
TORSDOF 5
ENDMDL
MODEL 7
REMARK VINA RESULT:      -7.6      3.692      5.680
REMARK  5 active torsions:
REMARK  status: ('A' for Active; 'I' for Inactive)
REMARK    1  A    between atoms: C_9  and  C_10 
REMARK    2  A    between atoms: C_13  and  O_14 
REMARK    3  A    between atoms: O_14  and  C_15 
REMARK    4  A    between atoms: C_20  and  C_21 
REMARK       I    between atoms: C_21  and  N_22 
REMARK    5  A    between atoms: N_22  and  C_23 
ROOT
HETATM    1  C   UNL     1      43.694 -17.607   1.001  1.00  0.00     0.070 C 
HETATM    2  C   UNL     1      42.534 -16.650   1.132  1.00  0.00     0.037 A 
HETATM    3  N   UNL     1      42.257 -15.877   0.009  1.00  0.00    -0.192 N 
HETATM    4  C   UNL     1      41.200 -15.048  -0.076  1.00  0.00     0.725 A 
HETATM    5  N   UNL     1      40.405 -14.864   1.022  1.00  0.00    -0.084 N 
HETATM    6  N   UNL     1      39.315 -14.126   0.719  1.00  0.00    -0.149 NA
HETATM    7  C   UNL     1      39.580 -13.812  -0.554  1.00  0.00     0.275 A 
HETATM    8  N   UNL     1      40.719 -14.363  -1.081  1.00  0.00    -0.054 NA
HETATM    9  C   UNL     1      40.624 -15.518   2.316  1.00  0.00     0.202 A 
HETATM   10  C   UNL     1      41.764 -16.525   2.241  1.00  0.00     0.062 A 
HETATM   11  H   UNL     1      42.828 -16.025  -0.819  1.00  0.00     0.184 HD
ENDROOT
BRANCH   9  12
HETATM   12  C   UNL     1      40.806 -14.470   3.408  1.00  0.00    -0.028 A 
HETATM   13  C   UNL     1      40.008 -14.516   4.561  1.00  0.00     0.012 A 
HETATM   14  C   UNL     1      40.155 -13.556   5.565  1.00  0.00     0.037 A 
HETATM   15  C   UNL     1      41.100 -12.535   5.444  1.00  0.00     0.074 A 
HETATM   16  C   UNL     1      41.883 -12.467   4.291  1.00  0.00     0.037 A 
HETATM   17  C   UNL     1      41.736 -13.425   3.281  1.00  0.00     0.012 A 
BRANCH  15  18
HETATM   18  O   UNL     1      41.139 -11.664   6.495  1.00  0.00    -0.290 OA
BRANCH  18  19
HETATM   19  C   UNL     1      39.925 -11.481   7.203  1.00  0.00     0.505 C 
HETATM   20  F   UNL     1      40.202 -11.126   8.482  1.00  0.00    -0.184 F 
HETATM   21  F   UNL     1      39.284 -10.425   6.639  1.00  0.00    -0.184 F 
ENDBRANCH  18  19
ENDBRANCH  15  18
ENDBRANCH   9  12
BRANCH  10  22
HETATM   22  C   UNL     1      42.068 -17.309   3.467  1.00  0.00     0.256 C 
HETATM   23  N   UNL     1      42.965 -16.678   4.302  1.00  0.00    -0.323 N 
HETATM   24  H   UNL     1      43.325 -15.776   4.022  1.00  0.00     0.169 HD
HETATM   25  O   UNL     1      41.524 -18.393   3.639  1.00  0.00    -0.267 OA
BRANCH  23  26
HETATM   26  C   UNL     1      43.438 -17.141   5.550  1.00  0.00     0.035 A 
HETATM   27  C   UNL     1      44.542 -17.981   5.705  1.00  0.00     0.029 A 
HETATM   28  C   UNL     1      44.935 -18.408   6.978  1.00  0.00     0.002 A 
HETATM   29  C   UNL     1      44.234 -17.990   8.106  1.00  0.00     0.000 A 
HETATM   30  C   UNL     1      43.135 -17.147   7.963  1.00  0.00     0.002 A 
HETATM   31  C   UNL     1      42.735 -16.730   6.692  1.00  0.00     0.029 A 
ENDBRANCH  23  26
ENDBRANCH  10  22
TORSDOF 5
ENDMDL
MODEL 8
REMARK VINA RESULT:      -7.5      3.380      7.585
REMARK  5 active torsions:
REMARK  status: ('A' for Active; 'I' for Inactive)
REMARK    1  A    between atoms: C_9  and  C_10 
REMARK    2  A    between atoms: C_13  and  O_14 
REMARK    3  A    between atoms: O_14  and  C_15 
REMARK    4  A    between atoms: C_20  and  C_21 
REMARK       I    between atoms: C_21  and  N_22 
REMARK    5  A    between atoms: N_22  and  C_23 
ROOT
HETATM    1  C   UNL     1      43.225 -19.852   2.119  1.00  0.00     0.070 C 
HETATM    2  C   UNL     1      43.426 -19.025   3.365  1.00  0.00     0.037 A 
HETATM    3  N   UNL     1      43.474 -19.734   4.561  1.00  0.00    -0.192 N 
HETATM    4  C   UNL     1      43.745 -19.161   5.749  1.00  0.00     0.725 A 
HETATM    5  N   UNL     1      43.882 -17.802   5.821  1.00  0.00    -0.084 N 
HETATM    6  N   UNL     1      44.297 -17.416   7.046  1.00  0.00    -0.149 NA
HETATM    7  C   UNL     1      44.284 -18.590   7.689  1.00  0.00     0.275 A 
HETATM    8  N   UNL     1      43.959 -19.683   6.929  1.00  0.00    -0.054 NA
HETATM    9  C   UNL     1      43.752 -16.900   4.672  1.00  0.00     0.202 A 
HETATM   10  C   UNL     1      43.579 -17.678   3.374  1.00  0.00     0.062 A 
HETATM   11  H   UNL     1      43.397 -20.746   4.514  1.00  0.00     0.184 HD
ENDROOT
BRANCH   9  12
HETATM   12  C   UNL     1      42.644 -15.884   4.928  1.00  0.00    -0.028 A 
HETATM   13  C   UNL     1      42.917 -14.512   4.827  1.00  0.00     0.012 A 
HETATM   14  C   UNL     1      41.915 -13.569   5.070  1.00  0.00     0.037 A 
HETATM   15  C   UNL     1      40.623 -13.972   5.412  1.00  0.00     0.074 A 
HETATM   16  C   UNL     1      40.346 -15.333   5.537  1.00  0.00     0.037 A 
HETATM   17  C   UNL     1      41.348 -16.281   5.299  1.00  0.00     0.012 A 
BRANCH  15  18
HETATM   18  O   UNL     1      39.742 -12.949   5.623  1.00  0.00    -0.290 OA
BRANCH  18  19
HETATM   19  C   UNL     1      39.457 -12.127   4.504  1.00  0.00     0.505 C 
HETATM   20  F   UNL     1      39.138 -12.909   3.444  1.00  0.00    -0.184 F 
HETATM   21  F   UNL     1      38.344 -11.410   4.805  1.00  0.00    -0.184 F 
ENDBRANCH  18  19
ENDBRANCH  15  18
ENDBRANCH   9  12
BRANCH  10  22
HETATM   22  C   UNL     1      43.488 -16.895   2.114  1.00  0.00     0.256 C 
HETATM   23  N   UNL     1      42.214 -16.439   1.852  1.00  0.00    -0.323 N 
HETATM   24  H   UNL     1      41.482 -16.666   2.510  1.00  0.00     0.169 HD
HETATM   25  O   UNL     1      44.497 -16.717   1.442  1.00  0.00    -0.267 OA
BRANCH  23  26
HETATM   26  C   UNL     1      41.801 -15.649   0.756  1.00  0.00     0.035 A 
HETATM   27  C   UNL     1      41.396 -16.170  -0.474  1.00  0.00     0.029 A 
HETATM   28  C   UNL     1      41.017 -15.316  -1.515  1.00  0.00     0.002 A 
HETATM   29  C   UNL     1      41.030 -13.935  -1.331  1.00  0.00     0.000 A 
HETATM   30  C   UNL     1      41.426 -13.406  -0.106  1.00  0.00     0.002 A 
HETATM   31  C   UNL     1      41.815 -14.258   0.930  1.00  0.00     0.029 A 
ENDBRANCH  23  26
ENDBRANCH  10  22
TORSDOF 5
ENDMDL
MODEL 9
REMARK VINA RESULT:      -7.1      2.742      6.248
REMARK  5 active torsions:
REMARK  status: ('A' for Active; 'I' for Inactive)
REMARK    1  A    between atoms: C_9  and  C_10 
REMARK    2  A    between atoms: C_13  and  O_14 
REMARK    3  A    between atoms: O_14  and  C_15 
REMARK    4  A    between atoms: C_20  and  C_21 
REMARK       I    between atoms: C_21  and  N_22 
REMARK    5  A    between atoms: N_22  and  C_23 
ROOT
HETATM    1  C   UNL     1      40.191 -10.937   0.849  1.00  0.00     0.070 C 
HETATM    2  C   UNL     1      40.488 -11.800   2.051  1.00  0.00     0.037 A 
HETATM    3  N   UNL     1      41.126 -11.164   3.110  1.00  0.00    -0.192 N 
HETATM    4  C   UNL     1      41.374 -11.761   4.291  1.00  0.00     0.725 A 
HETATM    5  N   UNL     1      41.085 -13.090   4.441  1.00  0.00    -0.084 N 
HETATM    6  N   UNL     1      41.254 -13.486   5.721  1.00  0.00    -0.149 NA
HETATM    7  C   UNL     1      41.749 -12.365   6.259  1.00  0.00     0.275 A 
HETATM    8  N   UNL     1      41.831 -11.285   5.420  1.00  0.00    -0.054 NA
HETATM    9  C   UNL     1      40.512 -13.933   3.386  1.00  0.00     0.202 A 
HETATM   10  C   UNL     1      40.158 -13.111   2.153  1.00  0.00     0.062 A 
HETATM   11  H   UNL     1      41.322 -10.171   3.016  1.00  0.00     0.184 HD
ENDROOT
BRANCH   9  12
HETATM   12  C   UNL     1      41.441 -15.106   3.092  1.00  0.00    -0.028 A 
HETATM   13  C   UNL     1      42.750 -14.868   2.651  1.00  0.00     0.012 A 
HETATM   14  C   UNL     1      43.608 -15.932   2.367  1.00  0.00     0.037 A 
HETATM   15  C   UNL     1      43.184 -17.253   2.522  1.00  0.00     0.074 A 
HETATM   16  C   UNL     1      41.876 -17.502   2.939  1.00  0.00     0.037 A 
HETATM   17  C   UNL     1      41.011 -16.438   3.220  1.00  0.00     0.012 A 
BRANCH  15  18
HETATM   18  O   UNL     1      44.121 -18.197   2.209  1.00  0.00    -0.290 OA
BRANCH  18  19
HETATM   19  C   UNL     1      43.810 -19.532   2.569  1.00  0.00     0.505 C 
HETATM   20  F   UNL     1      43.648 -20.272   1.444  1.00  0.00    -0.184 F 
HETATM   21  F   UNL     1      44.893 -20.038   3.212  1.00  0.00    -0.184 F 
ENDBRANCH  18  19
ENDBRANCH  15  18
ENDBRANCH   9  12
BRANCH  10  22
HETATM   22  C   UNL     1      39.516 -13.823   1.017  1.00  0.00     0.256 C 
HETATM   23  N   UNL     1      40.261 -13.775  -0.141  1.00  0.00    -0.323 N 
HETATM   24  H   UNL     1      41.143 -13.281  -0.121  1.00  0.00     0.169 HD
HETATM   25  O   UNL     1      38.435 -14.375   1.187  1.00  0.00    -0.267 OA
BRANCH  23  26
HETATM   26  C   UNL     1      39.945 -14.370  -1.382  1.00  0.00     0.035 A 
HETATM   27  C   UNL     1      38.809 -14.060  -2.132  1.00  0.00     0.029 A 
HETATM   28  C   UNL     1      38.562 -14.709  -3.346  1.00  0.00     0.002 A 
HETATM   29  C   UNL     1      39.454 -15.666  -3.825  1.00  0.00     0.000 A 
HETATM   30  C   UNL     1      40.593 -15.978  -3.089  1.00  0.00     0.002 A 
HETATM   31  C   UNL     1      40.835 -15.338  -1.871  1.00  0.00     0.029 A 
ENDBRANCH  23  26
ENDBRANCH  10  22
TORSDOF 5
ENDMDL
MODEL 10
REMARK VINA RESULT:      -7.1      3.904      5.547
REMARK  5 active torsions:
REMARK  status: ('A' for Active; 'I' for Inactive)
REMARK    1  A    between atoms: C_9  and  C_10 
REMARK    2  A    between atoms: C_13  and  O_14 
REMARK    3  A    between atoms: O_14  and  C_15 
REMARK    4  A    between atoms: C_20  and  C_21 
REMARK       I    between atoms: C_21  and  N_22 
REMARK    5  A    between atoms: N_22  and  C_23 
ROOT
HETATM    1  C   UNL     1      41.412 -13.355   5.795  1.00  0.00     0.070 C 
HETATM    2  C   UNL     1      41.225 -12.513   4.556  1.00  0.00     0.037 A 
HETATM    3  N   UNL     1      40.313 -11.468   4.665  1.00  0.00    -0.192 N 
HETATM    4  C   UNL     1      40.103 -10.566   3.689  1.00  0.00     0.725 A 
HETATM    5  N   UNL     1      40.728 -10.727   2.483  1.00  0.00    -0.084 N 
HETATM    6  N   UNL     1      40.524  -9.661   1.680  1.00  0.00    -0.149 NA
HETATM    7  C   UNL     1      39.677  -8.948   2.431  1.00  0.00     0.275 A 
HETATM    8  N   UNL     1      39.400  -9.463   3.671  1.00  0.00    -0.054 NA
HETATM    9  C   UNL     1      41.634 -11.836   2.167  1.00  0.00     0.202 A 
HETATM   10  C   UNL     1      41.890 -12.706   3.390  1.00  0.00     0.062 A 
HETATM   11  H   UNL     1      39.863 -11.327   5.565  1.00  0.00     0.184 HD
ENDROOT
BRANCH   9  12
HETATM   12  C   UNL     1      41.109 -12.613   0.964  1.00  0.00    -0.028 A 
HETATM   13  C   UNL     1      39.843 -13.215   1.019  1.00  0.00     0.012 A 
HETATM   14  C   UNL     1      39.354 -13.939  -0.071  1.00  0.00     0.037 A 
HETATM   15  C   UNL     1      40.110 -14.073  -1.236  1.00  0.00     0.074 A 
HETATM   16  C   UNL     1      41.379 -13.498  -1.294  1.00  0.00     0.037 A 
HETATM   17  C   UNL     1      41.875 -12.775  -0.202  1.00  0.00     0.012 A 
BRANCH  15  18
HETATM   18  O   UNL     1      39.515 -14.806  -2.224  1.00  0.00    -0.290 OA
BRANCH  18  19
HETATM   19  C   UNL     1      40.293 -15.044  -3.384  1.00  0.00     0.505 C 
HETATM   20  F   UNL     1      41.121 -16.094  -3.159  1.00  0.00    -0.184 F 
HETATM   21  F   UNL     1      39.441 -15.427  -4.369  1.00  0.00    -0.184 F 
ENDBRANCH  18  19
ENDBRANCH  15  18
ENDBRANCH   9  12
BRANCH  10  22
HETATM   22  C   UNL     1      42.836 -13.843   3.236  1.00  0.00     0.256 C 
HETATM   23  N   UNL     1      42.205 -15.035   2.949  1.00  0.00    -0.323 N 
HETATM   24  H   UNL     1      41.197 -15.034   2.871  1.00  0.00     0.169 HD
HETATM   25  O   UNL     1      44.038 -13.647   3.361  1.00  0.00    -0.267 OA
BRANCH  23  26
HETATM   26  C   UNL     1      42.815 -16.288   2.719  1.00  0.00     0.035 A 
HETATM   27  C   UNL     1      43.147 -17.193   3.728  1.00  0.00     0.029 A 
HETATM   28  C   UNL     1      43.766 -18.408   3.415  1.00  0.00     0.002 A 
HETATM   29  C   UNL     1      44.048 -18.732   2.090  1.00  0.00     0.000 A 
HETATM   30  C   UNL     1      43.715 -17.839   1.076  1.00  0.00     0.002 A 
HETATM   31  C   UNL     1      43.108 -16.621   1.388  1.00  0.00     0.029 A 
ENDBRANCH  23  26
ENDBRANCH  10  22
TORSDOF 5
ENDMDL
