MODEL 1
REMARK VINA RESULT:      -7.4      0.000      0.000
REMARK  7 active torsions:
REMARK  status: ('A' for Active; 'I' for Inactive)
REMARK    1  A    between atoms: C_8  and  C_9 
REMARK    2  A    between atoms: C_9  and  C_10 
REMARK    3  A    between atoms: C_10  and  C_11 
REMARK       I    between atoms: C_11  and  N_12 
REMARK    4  A    between atoms: N_12  and  C_13 
REMARK    5  A    between atoms: C_13  and  C_14 
REMARK    6  A    between atoms: C_14  and  N_15 
REMARK    7  A    between atoms: C_14  and  C_19 
ROOT
HETATM    1  C   UNL     1      42.354 -16.915   2.550  1.00  0.00     0.217 C 
HETATM    2  N   UNL     1      41.098 -16.523   2.953  1.00  0.00    -0.359 N 
HETATM    3  O   UNL     1      43.278 -16.107   2.478  1.00  0.00    -0.274 OA
HETATM    4  H   UNL     1      40.333 -17.140   2.713  1.00  0.00     0.162 HD
ENDROOT
BRANCH   2   5
HETATM    5  C   UNL     1      40.751 -15.113   3.148  1.00  0.00     0.160 C 
BRANCH   5   6
HETATM    6  C   UNL     1      40.750 -14.572   4.623  1.00  0.00     0.239 C 
BRANCH   6   7
HETATM    7  N   UNL     1      40.184 -13.145   4.735  1.00  0.00    -0.069 N 
HETATM    8  H   UNL     1      41.028 -12.564   4.833  1.00  0.00     0.279 HD
HETATM    9  C   UNL     1      39.495 -12.592   3.525  1.00  0.00     0.270 C 
HETATM   10  C   UNL     1      39.418 -12.875   6.000  1.00  0.00     0.270 C 
ENDBRANCH   6   7
BRANCH   6  11
HETATM   11  C   UNL     1      42.034 -14.762   5.444  1.00  0.00    -0.004 A 
HETATM   12  C   UNL     1      42.186 -15.861   6.321  1.00  0.00     0.042 A 
HETATM   13 CL   UNL     1      40.948 -17.059   6.507  1.00  0.00    -0.084 Cl
HETATM   14  C   UNL     1      43.344 -16.035   7.086  1.00  0.00     0.024 A 
HETATM   15  C   UNL     1      44.394 -15.131   6.979  1.00  0.00     0.002 A 
HETATM   16  C   UNL     1      44.290 -14.063   6.099  1.00  0.00     0.001 A 
HETATM   17  C   UNL     1      43.130 -13.884   5.338  1.00  0.00     0.011 A 
ENDBRANCH   6  11
ENDBRANCH   5   6
ENDBRANCH   2   5
BRANCH   1  18
HETATM   18  C   UNL     1      42.593 -18.398   2.310  1.00  0.00     0.107 C 
BRANCH  18  19
HETATM   19  C   UNL     1      44.045 -18.852   2.206  1.00  0.00     0.052 C 
BRANCH  19  20
HETATM   20  C   UNL     1      44.344 -20.015   3.088  1.00  0.00    -0.008 A 
HETATM   21  C   UNL     1      44.695 -20.005   4.426  1.00  0.00     0.032 A 
HETATM   22  C   UNL     1      44.884 -18.901   5.397  1.00  0.00     0.070 C 
HETATM   23  N   UNL     1      44.866 -21.315   4.779  1.00  0.00    -0.282 N 
HETATM   24  H   UNL     1      45.126 -21.696   5.684  1.00  0.00     0.189 HD
HETATM   25  N   UNL     1      44.652 -22.173   3.773  1.00  0.00    -0.179 NA
HETATM   26  C   UNL     1      44.339 -21.394   2.735  1.00  0.00     0.059 A 
HETATM   27  C   UNL     1      44.037 -22.005   1.417  1.00  0.00     0.073 C 
ENDBRANCH  19  20
ENDBRANCH  18  19
ENDBRANCH   1  18
TORSDOF 7
ENDMDL
MODEL 2
REMARK VINA RESULT:      -7.3      0.172      1.664
REMARK  7 active torsions:
REMARK  status: ('A' for Active; 'I' for Inactive)
REMARK    1  A    between atoms: C_8  and  C_9 
REMARK    2  A    between atoms: C_9  and  C_10 
REMARK    3  A    between atoms: C_10  and  C_11 
REMARK       I    between atoms: C_11  and  N_12 
REMARK    4  A    between atoms: N_12  and  C_13 
REMARK    5  A    between atoms: C_13  and  C_14 
REMARK    6  A    between atoms: C_14  and  N_15 
REMARK    7  A    between atoms: C_14  and  C_19 
ROOT
HETATM    1  C   UNL     1      42.142 -16.936   2.576  1.00  0.00     0.217 C 
HETATM    2  N   UNL     1      40.918 -16.628   3.123  1.00  0.00    -0.359 N 
HETATM    3  O   UNL     1      42.965 -16.056   2.327  1.00  0.00    -0.274 OA
HETATM    4  H   UNL     1      40.192 -17.328   3.030  1.00  0.00     0.162 HD
ENDROOT
BRANCH   2   5
HETATM    5  C   UNL     1      40.462 -15.245   3.276  1.00  0.00     0.160 C 
BRANCH   5   6
HETATM    6  C   UNL     1      40.575 -14.606   4.707  1.00  0.00     0.239 C 
BRANCH   6   7
HETATM    7  N   UNL     1      40.065 -13.154   4.755  1.00  0.00    -0.069 N 
HETATM    8  H   UNL     1      40.927 -12.605   4.871  1.00  0.00     0.279 HD
HETATM    9  C   UNL     1      39.448 -12.610   3.503  1.00  0.00     0.270 C 
HETATM   10  C   UNL     1      39.261 -12.816   5.980  1.00  0.00     0.270 C 
ENDBRANCH   6   7
BRANCH   6  11
HETATM   11  C   UNL     1      41.902 -14.789   5.457  1.00  0.00    -0.004 A 
HETATM   12  C   UNL     1      42.105 -15.884   6.329  1.00  0.00     0.042 A 
HETATM   13 CL   UNL     1      40.883 -17.085   6.586  1.00  0.00    -0.084 Cl
HETATM   14  C   UNL     1      43.303 -16.052   7.030  1.00  0.00     0.024 A 
HETATM   15  C   UNL     1      44.343 -15.145   6.863  1.00  0.00     0.002 A 
HETATM   16  C   UNL     1      44.188 -14.080   5.986  1.00  0.00     0.001 A 
HETATM   17  C   UNL     1      42.988 -13.907   5.289  1.00  0.00     0.011 A 
ENDBRANCH   6  11
ENDBRANCH   5   6
ENDBRANCH   2   5
BRANCH   1  18
HETATM   18  C   UNL     1      42.493 -18.404   2.398  1.00  0.00     0.107 C 
BRANCH  18  19
HETATM   19  C   UNL     1      43.975 -18.753   2.325  1.00  0.00     0.052 C 
BRANCH  19  20
HETATM   20  C   UNL     1      44.321 -19.954   3.138  1.00  0.00    -0.008 A 
HETATM   21  C   UNL     1      44.337 -21.279   2.741  1.00  0.00     0.032 A 
HETATM   22  C   UNL     1      44.035 -21.934   1.447  1.00  0.00     0.070 C 
HETATM   23  N   UNL     1      44.716 -21.995   3.843  1.00  0.00    -0.282 N 
HETATM   24  H   UNL     1      44.837 -22.999   3.931  1.00  0.00     0.189 HD
HETATM   25  N   UNL     1      44.947 -21.235   4.922  1.00  0.00    -0.179 NA
HETATM   26  C   UNL     1      44.706 -19.990   4.508  1.00  0.00     0.059 A 
HETATM   27  C   UNL     1      44.855 -18.855   5.452  1.00  0.00     0.073 C 
ENDBRANCH  19  20
ENDBRANCH  18  19
ENDBRANCH   1  18
TORSDOF 7
ENDMDL
MODEL 3
REMARK VINA RESULT:      -7.3      4.576      6.578
REMARK  7 active torsions:
REMARK  status: ('A' for Active; 'I' for Inactive)
REMARK    1  A    between atoms: C_8  and  C_9 
REMARK    2  A    between atoms: C_9  and  C_10 
REMARK    3  A    between atoms: C_10  and  C_11 
REMARK       I    between atoms: C_11  and  N_12 
REMARK    4  A    between atoms: N_12  and  C_13 
REMARK    5  A    between atoms: C_13  and  C_14 
REMARK    6  A    between atoms: C_14  and  N_15 
REMARK    7  A    between atoms: C_14  and  C_19 
ROOT
HETATM    1  C   UNL     1      42.924 -16.495   1.214  1.00  0.00     0.217 C 
HETATM    2  N   UNL     1      42.132 -16.283   0.109  1.00  0.00    -0.359 N 
HETATM    3  O   UNL     1      42.940 -15.692   2.146  1.00  0.00    -0.274 OA
HETATM    4  H   UNL     1      42.375 -16.798  -0.728  1.00  0.00     0.162 HD
ENDROOT
BRANCH   2   5
HETATM    5  C   UNL     1      41.406 -15.027  -0.097  1.00  0.00     0.160 C 
BRANCH   5   6
HETATM    6  C   UNL     1      41.348 -14.464  -1.562  1.00  0.00     0.239 C 
BRANCH   6   7
HETATM    7  N   UNL     1      41.761 -12.984  -1.651  1.00  0.00    -0.069 N 
HETATM    8  H   UNL     1      40.885 -12.510  -1.911  1.00  0.00     0.279 HD
HETATM    9  C   UNL     1      42.173 -12.318  -0.374  1.00  0.00     0.270 C 
HETATM   10  C   UNL     1      42.690 -12.662  -2.788  1.00  0.00     0.270 C 
ENDBRANCH   6   7
BRANCH   6  11
HETATM   11  C   UNL     1      40.091 -14.775  -2.387  1.00  0.00    -0.004 A 
HETATM   12  C   UNL     1      38.860 -14.133  -2.116  1.00  0.00     0.042 A 
HETATM   13 CL   UNL     1      38.704 -12.953  -0.857  1.00  0.00    -0.084 Cl
HETATM   14  C   UNL     1      37.705 -14.420  -2.851  1.00  0.00     0.024 A 
HETATM   15  C   UNL     1      37.750 -15.339  -3.892  1.00  0.00     0.002 A 
HETATM   16  C   UNL     1      38.952 -15.958  -4.207  1.00  0.00     0.001 A 
HETATM   17  C   UNL     1      40.107 -15.677  -3.469  1.00  0.00     0.011 A 
ENDBRANCH   6  11
ENDBRANCH   5   6
ENDBRANCH   2   5
BRANCH   1  18
HETATM   18  C   UNL     1      43.690 -17.806   1.300  1.00  0.00     0.107 C 
BRANCH  18  19
HETATM   19  C   UNL     1      42.983 -18.971   1.983  1.00  0.00     0.052 C 
BRANCH  19  20
HETATM   20  C   UNL     1      43.821 -19.608   3.039  1.00  0.00    -0.008 A 
HETATM   21  C   UNL     1      44.447 -20.840   3.005  1.00  0.00     0.032 A 
HETATM   22  C   UNL     1      44.503 -21.900   1.970  1.00  0.00     0.070 C 
HETATM   23  N   UNL     1      45.088 -20.969   4.206  1.00  0.00    -0.282 N 
HETATM   24  H   UNL     1      45.652 -21.744   4.540  1.00  0.00     0.189 HD
HETATM   25  N   UNL     1      44.926 -19.913   5.015  1.00  0.00    -0.179 NA
HETATM   26  C   UNL     1      44.152 -19.078   4.318  1.00  0.00     0.059 A 
HETATM   27  C   UNL     1      43.748 -17.778   4.909  1.00  0.00     0.073 C 
ENDBRANCH  19  20
ENDBRANCH  18  19
ENDBRANCH   1  18
TORSDOF 7
ENDMDL
MODEL 4
REMARK VINA RESULT:      -6.9      3.612      5.873
REMARK  7 active torsions:
REMARK  status: ('A' for Active; 'I' for Inactive)
REMARK    1  A    between atoms: C_8  and  C_9 
REMARK    2  A    between atoms: C_9  and  C_10 
REMARK    3  A    between atoms: C_10  and  C_11 
REMARK       I    between atoms: C_11  and  N_12 
REMARK    4  A    between atoms: N_12  and  C_13 
REMARK    5  A    between atoms: C_13  and  C_14 
REMARK    6  A    between atoms: C_14  and  N_15 
REMARK    7  A    between atoms: C_14  and  C_19 
ROOT
HETATM    1  C   UNL     1      42.833 -16.323   1.080  1.00  0.00     0.217 C 
HETATM    2  N   UNL     1      42.163 -16.019  -0.083  1.00  0.00    -0.359 N 
HETATM    3  O   UNL     1      42.777 -15.578   2.057  1.00  0.00    -0.274 OA
HETATM    4  H   UNL     1      42.476 -16.492  -0.921  1.00  0.00     0.162 HD
ENDROOT
BRANCH   2   5
HETATM    5  C   UNL     1      41.499 -14.729  -0.281  1.00  0.00     0.160 C 
BRANCH   5   6
HETATM    6  C   UNL     1      40.159 -14.732  -1.102  1.00  0.00     0.239 C 
BRANCH   6   7
HETATM    7  N   UNL     1      40.390 -14.697  -2.624  1.00  0.00    -0.069 N 
HETATM    8  H   UNL     1      39.645 -14.073  -2.961  1.00  0.00     0.279 HD
HETATM    9  C   UNL     1      41.655 -14.052  -3.103  1.00  0.00     0.270 C 
HETATM   10  C   UNL     1      40.111 -15.996  -3.327  1.00  0.00     0.270 C 
ENDBRANCH   6   7
BRANCH   6  11
HETATM   11  C   UNL     1      39.055 -13.763  -0.653  1.00  0.00    -0.004 A 
HETATM   12  C   UNL     1      38.419 -13.910   0.602  1.00  0.00     0.042 A 
HETATM   13 CL   UNL     1      38.857 -15.172   1.706  1.00  0.00    -0.084 Cl
HETATM   14  C   UNL     1      37.402 -13.044   1.015  1.00  0.00     0.024 A 
HETATM   15  C   UNL     1      37.006 -11.991   0.198  1.00  0.00     0.002 A 
HETATM   16  C   UNL     1      37.637 -11.798  -1.023  1.00  0.00     0.001 A 
HETATM   17  C   UNL     1      38.651 -12.668  -1.440  1.00  0.00     0.011 A 
ENDBRANCH   6  11
ENDBRANCH   5   6
ENDBRANCH   2   5
BRANCH   1  18
HETATM   18  C   UNL     1      43.548 -17.662   1.160  1.00  0.00     0.107 C 
BRANCH  18  19
HETATM   19  C   UNL     1      42.820 -18.789   1.884  1.00  0.00     0.052 C 
BRANCH  19  20
HETATM   20  C   UNL     1      43.686 -19.485   2.877  1.00  0.00    -0.008 A 
HETATM   21  C   UNL     1      44.257 -20.741   2.781  1.00  0.00     0.032 A 
HETATM   22  C   UNL     1      44.212 -21.777   1.722  1.00  0.00     0.070 C 
HETATM   23  N   UNL     1      44.956 -20.925   3.942  1.00  0.00    -0.282 N 
HETATM   24  H   UNL     1      45.505 -21.730   4.227  1.00  0.00     0.189 HD
HETATM   25  N   UNL     1      44.883 -19.883   4.782  1.00  0.00    -0.179 NA
HETATM   26  C   UNL     1      44.108 -19.001   4.148  1.00  0.00     0.059 A 
HETATM   27  C   UNL     1      43.792 -17.700   4.788  1.00  0.00     0.073 C 
ENDBRANCH  19  20
ENDBRANCH  18  19
ENDBRANCH   1  18
TORSDOF 7
ENDMDL
MODEL 5
REMARK VINA RESULT:      -6.8      1.866      2.894
REMARK  7 active torsions:
REMARK  status: ('A' for Active; 'I' for Inactive)
REMARK    1  A    between atoms: C_8  and  C_9 
REMARK    2  A    between atoms: C_9  and  C_10 
REMARK    3  A    between atoms: C_10  and  C_11 
REMARK       I    between atoms: C_11  and  N_12 
REMARK    4  A    between atoms: N_12  and  C_13 
REMARK    5  A    between atoms: C_13  and  C_14 
REMARK    6  A    between atoms: C_14  and  N_15 
REMARK    7  A    between atoms: C_14  and  C_19 
ROOT
HETATM    1  C   UNL     1      41.240 -17.398   2.347  1.00  0.00     0.217 C 
HETATM    2  N   UNL     1      40.522 -16.592   1.493  1.00  0.00    -0.359 N 
HETATM    3  O   UNL     1      41.024 -17.389   3.558  1.00  0.00    -0.274 OA
HETATM    4  H   UNL     1      40.930 -16.422   0.583  1.00  0.00     0.162 HD
ENDROOT
BRANCH   2   5
HETATM    5  C   UNL     1      39.597 -15.569   1.985  1.00  0.00     0.160 C 
BRANCH   5   6
HETATM    6  C   UNL     1      40.191 -14.144   2.273  1.00  0.00     0.239 C 
BRANCH   6   7
HETATM    7  N   UNL     1      40.364 -13.299   0.998  1.00  0.00    -0.069 N 
HETATM    8  H   UNL     1      41.351 -13.447   0.750  1.00  0.00     0.279 HD
HETATM    9  C   UNL     1      39.609 -13.744  -0.217  1.00  0.00     0.270 C 
HETATM   10  C   UNL     1      40.271 -11.814   1.215  1.00  0.00     0.270 C 
ENDBRANCH   6   7
BRANCH   6  11
HETATM   11  C   UNL     1      41.411 -14.063   3.202  1.00  0.00    -0.004 A 
HETATM   12  C   UNL     1      41.261 -14.051   4.609  1.00  0.00     0.042 A 
HETATM   13 CL   UNL     1      39.704 -14.142   5.362  1.00  0.00    -0.084 Cl
HETATM   14  C   UNL     1      42.365 -13.962   5.464  1.00  0.00     0.024 A 
HETATM   15  C   UNL     1      43.651 -13.907   4.941  1.00  0.00     0.002 A 
HETATM   16  C   UNL     1      43.833 -13.955   3.565  1.00  0.00     0.001 A 
HETATM   17  C   UNL     1      42.730 -14.038   2.709  1.00  0.00     0.011 A 
ENDBRANCH   6  11
ENDBRANCH   5   6
ENDBRANCH   2   5
BRANCH   1  18
HETATM   18  C   UNL     1      42.225 -18.382   1.737  1.00  0.00     0.107 C 
BRANCH  18  19
HETATM   19  C   UNL     1      43.687 -18.232   2.142  1.00  0.00     0.052 C 
BRANCH  19  20
HETATM   20  C   UNL     1      44.085 -19.192   3.211  1.00  0.00    -0.008 A 
HETATM   21  C   UNL     1      44.372 -20.539   3.086  1.00  0.00     0.032 A 
HETATM   22  C   UNL     1      44.385 -21.450   1.918  1.00  0.00     0.070 C 
HETATM   23  N   UNL     1      44.681 -20.975   4.346  1.00  0.00    -0.282 N 
HETATM   24  H   UNL     1      44.945 -21.909   4.642  1.00  0.00     0.189 HD
HETATM   25  N   UNL     1      44.618 -20.013   5.275  1.00  0.00    -0.179 NA
HETATM   26  C   UNL     1      44.251 -18.922   4.599  1.00  0.00     0.059 A 
HETATM   27  C   UNL     1      44.068 -17.635   5.315  1.00  0.00     0.073 C 
ENDBRANCH  19  20
ENDBRANCH  18  19
ENDBRANCH   1  18
TORSDOF 7
ENDMDL
MODEL 6
REMARK VINA RESULT:      -6.8      2.626      3.239
REMARK  7 active torsions:
REMARK  status: ('A' for Active; 'I' for Inactive)
REMARK    1  A    between atoms: C_8  and  C_9 
REMARK    2  A    between atoms: C_9  and  C_10 
REMARK    3  A    between atoms: C_10  and  C_11 
REMARK       I    between atoms: C_11  and  N_12 
REMARK    4  A    between atoms: N_12  and  C_13 
REMARK    5  A    between atoms: C_13  and  C_14 
REMARK    6  A    between atoms: C_14  and  N_15 
REMARK    7  A    between atoms: C_14  and  C_19 
ROOT
HETATM    1  C   UNL     1      42.133 -16.975   0.792  1.00  0.00     0.217 C 
HETATM    2  N   UNL     1      42.497 -15.820   0.139  1.00  0.00    -0.359 N 
HETATM    3  O   UNL     1      40.948 -17.261   0.960  1.00  0.00    -0.274 OA
HETATM    4  H   UNL     1      43.444 -15.495   0.289  1.00  0.00     0.162 HD
ENDROOT
BRANCH   2   5
HETATM    5  C   UNL     1      41.517 -14.797  -0.234  1.00  0.00     0.160 C 
BRANCH   5   6
HETATM    6  C   UNL     1      41.383 -13.553   0.716  1.00  0.00     0.239 C 
BRANCH   6   7
HETATM    7  N   UNL     1      42.111 -12.308   0.178  1.00  0.00    -0.069 N 
HETATM    8  H   UNL     1      43.014 -12.331   0.671  1.00  0.00     0.279 HD
HETATM    9  C   UNL     1      42.484 -12.316  -1.273  1.00  0.00     0.270 C 
HETATM   10  C   UNL     1      41.507 -10.999   0.604  1.00  0.00     0.270 C 
ENDBRANCH   6   7
BRANCH   6  11
HETATM   11  C   UNL     1      41.634 -13.779   2.214  1.00  0.00    -0.004 A 
HETATM   12  C   UNL     1      40.635 -14.333   3.048  1.00  0.00     0.042 A 
HETATM   13 CL   UNL     1      39.086 -14.802   2.430  1.00  0.00    -0.084 Cl
HETATM   14  C   UNL     1      40.847 -14.529   4.417  1.00  0.00     0.024 A 
HETATM   15  C   UNL     1      42.070 -14.200   4.988  1.00  0.00     0.002 A 
HETATM   16  C   UNL     1      43.084 -13.689   4.189  1.00  0.00     0.001 A 
HETATM   17  C   UNL     1      42.871 -13.487   2.821  1.00  0.00     0.011 A 
ENDBRANCH   6  11
ENDBRANCH   5   6
ENDBRANCH   2   5
BRANCH   1  18
HETATM   18  C   UNL     1      43.234 -17.942   1.196  1.00  0.00     0.107 C 
BRANCH  18  19
HETATM   19  C   UNL     1      42.802 -19.216   1.913  1.00  0.00     0.052 C 
BRANCH  19  20
HETATM   20  C   UNL     1      43.738 -19.603   3.006  1.00  0.00    -0.008 A 
HETATM   21  C   UNL     1      44.043 -18.901   4.158  1.00  0.00     0.032 A 
HETATM   22  C   UNL     1      43.575 -17.596   4.682  1.00  0.00     0.070 C 
HETATM   23  N   UNL     1      44.950 -19.668   4.836  1.00  0.00    -0.282 N 
HETATM   24  H   UNL     1      45.400 -19.475   5.725  1.00  0.00     0.189 HD
HETATM   25  N   UNL     1      45.255 -20.814   4.211  1.00  0.00    -0.179 NA
HETATM   26  C   UNL     1      44.527 -20.785   3.092  1.00  0.00     0.059 A 
HETATM   27  C   UNL     1      44.611 -21.908   2.126  1.00  0.00     0.073 C 
ENDBRANCH  19  20
ENDBRANCH  18  19
ENDBRANCH   1  18
TORSDOF 7
ENDMDL
MODEL 7
REMARK VINA RESULT:      -6.8      4.275      8.426
REMARK  7 active torsions:
REMARK  status: ('A' for Active; 'I' for Inactive)
REMARK    1  A    between atoms: C_8  and  C_9 
REMARK    2  A    between atoms: C_9  and  C_10 
REMARK    3  A    between atoms: C_10  and  C_11 
REMARK       I    between atoms: C_11  and  N_12 
REMARK    4  A    between atoms: N_12  and  C_13 
REMARK    5  A    between atoms: C_13  and  C_14 
REMARK    6  A    between atoms: C_14  and  N_15 
REMARK    7  A    between atoms: C_14  and  C_19 
ROOT
HETATM    1  C   UNL     1      45.247 -12.761   8.589  1.00  0.00     0.217 C 
HETATM    2  N   UNL     1      44.274 -13.469   7.922  1.00  0.00    -0.359 N 
HETATM    3  O   UNL     1      46.288 -12.428   8.024  1.00  0.00    -0.274 OA
HETATM    4  H   UNL     1      43.599 -13.960   8.495  1.00  0.00     0.162 HD
ENDROOT
BRANCH   2   5
HETATM    5  C   UNL     1      44.490 -14.009   6.578  1.00  0.00     0.160 C 
BRANCH   5   6
HETATM    6  C   UNL     1      43.414 -15.012   6.026  1.00  0.00     0.239 C 
BRANCH   6   7
HETATM    7  N   UNL     1      41.974 -14.491   6.184  1.00  0.00    -0.069 N 
HETATM    8  H   UNL     1      41.917 -14.257   7.185  1.00  0.00     0.279 HD
HETATM    9  C   UNL     1      41.637 -13.209   5.487  1.00  0.00     0.270 C 
HETATM   10  C   UNL     1      40.909 -15.536   6.003  1.00  0.00     0.270 C 
ENDBRANCH   6   7
BRANCH   6  11
HETATM   11  C   UNL     1      43.553 -16.487   6.429  1.00  0.00    -0.004 A 
HETATM   12  C   UNL     1      43.625 -17.509   5.453  1.00  0.00     0.042 A 
HETATM   13 CL   UNL     1      43.578 -17.157   3.758  1.00  0.00    -0.084 Cl
HETATM   14  C   UNL     1      43.736 -18.857   5.810  1.00  0.00     0.024 A 
HETATM   15  C   UNL     1      43.802 -19.223   7.148  1.00  0.00     0.002 A 
HETATM   16  C   UNL     1      43.772 -18.240   8.129  1.00  0.00     0.001 A 
HETATM   17  C   UNL     1      43.655 -16.892   7.775  1.00  0.00     0.011 A 
ENDBRANCH   6  11
ENDBRANCH   5   6
ENDBRANCH   2   5
BRANCH   1  18
HETATM   18  C   UNL     1      44.948 -12.302  10.007  1.00  0.00     0.107 C 
BRANCH  18  19
HETATM   19  C   UNL     1      44.466 -10.866  10.178  1.00  0.00     0.052 C 
BRANCH  19  20
HETATM   20  C   UNL     1      42.995 -10.780  10.401  1.00  0.00    -0.008 A 
HETATM   21  C   UNL     1      41.994 -10.644   9.456  1.00  0.00     0.032 A 
HETATM   22  C   UNL     1      42.028 -10.543   7.978  1.00  0.00     0.070 C 
HETATM   23  N   UNL     1      40.819 -10.611  10.156  1.00  0.00    -0.282 N 
HETATM   24  H   UNL     1      39.874 -10.520   9.797  1.00  0.00     0.189 HD
HETATM   25  N   UNL     1      40.983 -10.715  11.481  1.00  0.00    -0.179 NA
HETATM   26  C   UNL     1      42.304 -10.814  11.645  1.00  0.00     0.059 A 
HETATM   27  C   UNL     1      42.873 -10.941  13.010  1.00  0.00     0.073 C 
ENDBRANCH  19  20
ENDBRANCH  18  19
ENDBRANCH   1  18
TORSDOF 7
ENDMDL
MODEL 8
REMARK VINA RESULT:      -6.8      2.349      4.171
REMARK  7 active torsions:
REMARK  status: ('A' for Active; 'I' for Inactive)
REMARK    1  A    between atoms: C_8  and  C_9 
REMARK    2  A    between atoms: C_9  and  C_10 
REMARK    3  A    between atoms: C_10  and  C_11 
REMARK       I    between atoms: C_11  and  N_12 
REMARK    4  A    between atoms: N_12  and  C_13 
REMARK    5  A    between atoms: C_13  and  C_14 
REMARK    6  A    between atoms: C_14  and  N_15 
REMARK    7  A    between atoms: C_14  and  C_19 
ROOT
HETATM    1  C   UNL     1      42.811 -18.040   5.719  1.00  0.00     0.217 C 
HETATM    2  N   UNL     1      41.854 -18.003   4.731  1.00  0.00    -0.359 N 
HETATM    3  O   UNL     1      42.937 -17.112   6.516  1.00  0.00    -0.274 OA
HETATM    4  H   UNL     1      41.989 -18.629   3.947  1.00  0.00     0.162 HD
ENDROOT
BRANCH   2   5
HETATM    5  C   UNL     1      41.059 -16.802   4.466  1.00  0.00     0.160 C 
BRANCH   5   6
HETATM    6  C   UNL     1      41.693 -15.716   3.523  1.00  0.00     0.239 C 
BRANCH   6   7
HETATM    7  N   UNL     1      42.602 -14.728   4.275  1.00  0.00    -0.069 N 
HETATM    8  H   UNL     1      43.296 -15.341   4.723  1.00  0.00     0.279 HD
HETATM    9  C   UNL     1      43.423 -13.793   3.440  1.00  0.00     0.270 C 
HETATM   10  C   UNL     1      41.944 -14.030   5.432  1.00  0.00     0.270 C 
ENDBRANCH   6   7
BRANCH   6  11
HETATM   11  C   UNL     1      40.756 -15.014   2.528  1.00  0.00    -0.004 A 
HETATM   12  C   UNL     1      40.907 -15.189   1.133  1.00  0.00     0.042 A 
HETATM   13 CL   UNL     1      42.137 -16.212   0.468  1.00  0.00    -0.084 Cl
HETATM   14  C   UNL     1      40.070 -14.541   0.217  1.00  0.00     0.024 A 
HETATM   15  C   UNL     1      39.044 -13.720   0.669  1.00  0.00     0.002 A 
HETATM   16  C   UNL     1      38.848 -13.558   2.033  1.00  0.00     0.001 A 
HETATM   17  C   UNL     1      39.687 -14.200   2.950  1.00  0.00     0.011 A 
ENDBRANCH   6  11
ENDBRANCH   5   6
ENDBRANCH   2   5
BRANCH   1  18
HETATM   18  C   UNL     1      43.630 -19.313   5.868  1.00  0.00     0.107 C 
BRANCH  18  19
HETATM   19  C   UNL     1      44.822 -19.477   4.933  1.00  0.00     0.052 C 
BRANCH  19  20
HETATM   20  C   UNL     1      44.578 -20.492   3.869  1.00  0.00    -0.008 A 
HETATM   21  C   UNL     1      44.123 -20.285   2.579  1.00  0.00     0.032 A 
HETATM   22  C   UNL     1      43.742 -19.056   1.844  1.00  0.00     0.070 C 
HETATM   23  N   UNL     1      44.064 -21.522   1.999  1.00  0.00    -0.282 N 
HETATM   24  H   UNL     1      43.775 -21.763   1.056  1.00  0.00     0.189 HD
HETATM   25  N   UNL     1      44.446 -22.514   2.814  1.00  0.00    -0.179 NA
HETATM   26  C   UNL     1      44.758 -21.901   3.958  1.00  0.00     0.059 A 
HETATM   27  C   UNL     1      45.226 -22.697   5.120  1.00  0.00     0.073 C 
ENDBRANCH  19  20
ENDBRANCH  18  19
ENDBRANCH   1  18
TORSDOF 7
ENDMDL
MODEL 9
REMARK VINA RESULT:      -6.8      3.656      5.283
REMARK  7 active torsions:
REMARK  status: ('A' for Active; 'I' for Inactive)
REMARK    1  A    between atoms: C_8  and  C_9 
REMARK    2  A    between atoms: C_9  and  C_10 
REMARK    3  A    between atoms: C_10  and  C_11 
REMARK       I    between atoms: C_11  and  N_12 
REMARK    4  A    between atoms: N_12  and  C_13 
REMARK    5  A    between atoms: C_13  and  C_14 
REMARK    6  A    between atoms: C_14  and  N_15 
REMARK    7  A    between atoms: C_14  and  C_19 
ROOT
HETATM    1  C   UNL     1      41.566 -17.385   1.789  1.00  0.00     0.217 C 
HETATM    2  N   UNL     1      42.225 -16.901   0.683  1.00  0.00    -0.359 N 
HETATM    3  O   UNL     1      40.341 -17.319   1.877  1.00  0.00    -0.274 OA
HETATM    4  H   UNL     1      43.214 -16.713   0.792  1.00  0.00     0.162 HD
ENDROOT
BRANCH   2   5
HETATM    5  C   UNL     1      41.536 -16.135  -0.358  1.00  0.00     0.160 C 
BRANCH   5   6
HETATM    6  C   UNL     1      41.044 -14.692   0.020  1.00  0.00     0.239 C 
BRANCH   6   7
HETATM    7  N   UNL     1      39.510 -14.584   0.100  1.00  0.00    -0.069 N 
HETATM    8  H   UNL     1      39.197 -15.550  -0.066  1.00  0.00     0.279 HD
HETATM    9  C   UNL     1      38.924 -14.233   1.434  1.00  0.00     0.270 C 
HETATM   10  C   UNL     1      38.879 -13.808  -1.022  1.00  0.00     0.270 C 
ENDBRANCH   6   7
BRANCH   6  11
HETATM   11  C   UNL     1      41.677 -13.512  -0.731  1.00  0.00    -0.004 A 
HETATM   12  C   UNL     1      42.027 -12.318  -0.057  1.00  0.00     0.042 A 
HETATM   13 CL   UNL     1      41.779 -12.125   1.646  1.00  0.00    -0.084 Cl
HETATM   14  C   UNL     1      42.590 -11.231  -0.735  1.00  0.00     0.024 A 
HETATM   15  C   UNL     1      42.843 -11.312  -2.099  1.00  0.00     0.002 A 
HETATM   16  C   UNL     1      42.544 -12.484  -2.781  1.00  0.00     0.001 A 
HETATM   17  C   UNL     1      41.976 -13.570  -2.107  1.00  0.00     0.011 A 
ENDBRANCH   6  11
ENDBRANCH   5   6
ENDBRANCH   2   5
BRANCH   1  18
HETATM   18  C   UNL     1      42.385 -18.108   2.846  1.00  0.00     0.107 C 
BRANCH  18  19
HETATM   19  C   UNL     1      43.766 -18.601   2.427  1.00  0.00     0.052 C 
BRANCH  19  20
HETATM   20  C   UNL     1      44.218 -19.778   3.223  1.00  0.00    -0.008 A 
HETATM   21  C   UNL     1      44.279 -21.103   2.830  1.00  0.00     0.032 A 
HETATM   22  C   UNL     1      43.938 -21.780   1.557  1.00  0.00     0.070 C 
HETATM   23  N   UNL     1      44.756 -21.793   3.910  1.00  0.00    -0.282 N 
HETATM   24  H   UNL     1      44.933 -22.789   3.994  1.00  0.00     0.189 HD
HETATM   25  N   UNL     1      45.009 -21.016   4.972  1.00  0.00    -0.179 NA
HETATM   26  C   UNL     1      44.681 -19.787   4.569  1.00  0.00     0.059 A 
HETATM   27  C   UNL     1      44.825 -18.640   5.500  1.00  0.00     0.073 C 
ENDBRANCH  19  20
ENDBRANCH  18  19
ENDBRANCH   1  18
TORSDOF 7
ENDMDL
MODEL 10
REMARK VINA RESULT:      -6.6      2.411      3.345
REMARK  7 active torsions:
REMARK  status: ('A' for Active; 'I' for Inactive)
REMARK    1  A    between atoms: C_8  and  C_9 
REMARK    2  A    between atoms: C_9  and  C_10 
REMARK    3  A    between atoms: C_10  and  C_11 
REMARK       I    between atoms: C_11  and  N_12 
REMARK    4  A    between atoms: N_12  and  C_13 
REMARK    5  A    between atoms: C_13  and  C_14 
REMARK    6  A    between atoms: C_14  and  N_15 
REMARK    7  A    between atoms: C_14  and  C_19 
ROOT
HETATM    1  C   UNL     1      42.265 -16.709   0.742  1.00  0.00     0.217 C 
HETATM    2  N   UNL     1      42.711 -15.422   0.547  1.00  0.00    -0.359 N 
HETATM    3  O   UNL     1      41.114 -17.032   0.452  1.00  0.00    -0.274 OA
HETATM    4  H   UNL     1      43.537 -15.146   1.064  1.00  0.00     0.162 HD
ENDROOT
BRANCH   2   5
HETATM    5  C   UNL     1      41.807 -14.338   0.154  1.00  0.00     0.160 C 
BRANCH   5   6
HETATM    6  C   UNL     1      41.446 -13.272   1.250  1.00  0.00     0.239 C 
BRANCH   6   7
HETATM    7  N   UNL     1      42.001 -11.873   0.929  1.00  0.00    -0.069 N 
HETATM    8  H   UNL     1      42.839 -11.810   1.523  1.00  0.00     0.279 HD
HETATM    9  C   UNL     1      42.518 -11.651  -0.459  1.00  0.00     0.270 C 
HETATM   10  C   UNL     1      41.141 -10.736   1.405  1.00  0.00     0.270 C 
ENDBRANCH   6   7
BRANCH   6  11
HETATM   11  C   UNL     1      41.662 -13.669   2.718  1.00  0.00    -0.004 A 
HETATM   12  C   UNL     1      40.720 -14.467   3.407  1.00  0.00     0.042 A 
HETATM   13 CL   UNL     1      39.284 -15.056   2.637  1.00  0.00    -0.084 Cl
HETATM   14  C   UNL     1      40.900 -14.821   4.749  1.00  0.00     0.024 A 
HETATM   15  C   UNL     1      42.036 -14.409   5.434  1.00  0.00     0.002 A 
HETATM   16  C   UNL     1      42.997 -13.655   4.774  1.00  0.00     0.001 A 
HETATM   17  C   UNL     1      42.816 -13.295   3.434  1.00  0.00     0.011 A 
ENDBRANCH   6  11
ENDBRANCH   5   6
ENDBRANCH   2   5
BRANCH   1  18
HETATM   18  C   UNL     1      43.271 -17.746   1.216  1.00  0.00     0.107 C 
BRANCH  18  19
HETATM   19  C   UNL     1      42.714 -18.954   1.961  1.00  0.00     0.052 C 
BRANCH  19  20
HETATM   20  C   UNL     1      43.678 -19.509   2.953  1.00  0.00    -0.008 A 
HETATM   21  C   UNL     1      44.373 -20.703   2.894  1.00  0.00     0.032 A 
HETATM   22  C   UNL     1      44.403 -21.787   1.884  1.00  0.00     0.070 C 
HETATM   23  N   UNL     1      45.123 -20.758   4.036  1.00  0.00    -0.282 N 
HETATM   24  H   UNL     1      45.761 -21.488   4.337  1.00  0.00     0.189 HD
HETATM   25  N   UNL     1      44.968 -19.690   4.830  1.00  0.00    -0.179 NA
HETATM   26  C   UNL     1      44.086 -18.923   4.185  1.00  0.00     0.059 A 
HETATM   27  C   UNL     1      43.656 -17.632   4.777  1.00  0.00     0.073 C 
ENDBRANCH  19  20
ENDBRANCH  18  19
ENDBRANCH   1  18
TORSDOF 7
ENDMDL
