MODEL 1
REMARK VINA RESULT:      -8.0      0.000      0.000
REMARK  4 active torsions:
REMARK  status: ('A' for Active; 'I' for Inactive)
REMARK    1  A    between atoms: N_4  and  C_5 
REMARK    2  A    between atoms: C_13  and  C_14 
REMARK    3  A    between atoms: N_15  and  C_17 
REMARK    4  A    between atoms: C_17  and  C_18 
ROOT
HETATM    1  C   UNL     1      39.997 -17.411   2.135  1.00  0.00     0.095 C 
HETATM    2  C   UNL     1      41.143 -16.838   2.872  1.00  0.00     0.144 A 
HETATM    3  N   UNL     1      41.700 -15.664   2.560  1.00  0.00    -0.156 NA
HETATM    4  N   UNL     1      42.619 -15.505   3.529  1.00  0.00    -0.247 N 
HETATM    5  C   UNL     1      42.634 -16.599   4.358  1.00  0.00     0.156 A 
HETATM    6  N   UNL     1      41.725 -17.463   3.940  1.00  0.00    -0.215 NA
ENDROOT
BRANCH   5   7
HETATM    7  C   UNL     1      43.477 -16.819   5.582  1.00  0.00     0.259 C 
HETATM    8  N   UNL     1      43.986 -18.265   5.605  1.00  0.00    -0.056 N 
HETATM    9  H   UNL     1      43.127 -18.808   5.422  1.00  0.00     0.281 HD
HETATM   10  C   UNL     1      44.524 -18.773   6.914  1.00  0.00     0.236 C 
HETATM   11  C   UNL     1      43.538 -18.514   8.037  1.00  0.00     0.028 C 
HETATM   12  C   UNL     1      43.211 -17.035   8.122  1.00  0.00     0.004 C 
HETATM   13  C   UNL     1      42.590 -16.562   6.817  1.00  0.00     0.041 C 
BRANCH   8  14
HETATM   14  C   UNL     1      44.884 -18.645   4.431  1.00  0.00     0.274 C 
BRANCH  14  15
HETATM   15  C   UNL     1      44.493 -19.849   3.603  1.00  0.00    -0.033 A 
HETATM   16  C   UNL     1      43.874 -19.741   2.349  1.00  0.00     0.009 A 
HETATM   17  C   UNL     1      43.567 -20.879   1.596  1.00  0.00     0.001 A 
HETATM   18  C   UNL     1      43.903 -22.142   2.070  1.00  0.00     0.000 A 
HETATM   19  C   UNL     1      44.548 -22.270   3.296  1.00  0.00     0.001 A 
HETATM   20  C   UNL     1      44.838 -21.135   4.058  1.00  0.00     0.009 A 
ENDBRANCH  14  15
ENDBRANCH   8  14
ENDBRANCH   5   7
BRANCH   4  21
HETATM   21  C   UNL     1      43.422 -14.287   3.540  1.00  0.00     0.115 C 
HETATM   22  C   UNL     1      43.570 -13.670   4.942  1.00  0.00     0.055 C 
HETATM   23  C   UNL     1      42.336 -12.912   5.429  1.00  0.00     0.236 C 
HETATM   24  N   UNL     1      41.887 -11.914   4.389  1.00  0.00    -0.075 N 
HETATM   25  H   UNL     1      42.626 -11.204   4.284  1.00  0.00     0.279 HD
HETATM   26  C   UNL     1      40.668 -11.155   4.869  1.00  0.00     0.269 C 
HETATM   27  C   UNL     1      41.628 -12.539   3.044  1.00  0.00     0.236 C 
HETATM   28  C   UNL     1      42.886 -13.244   2.553  1.00  0.00     0.055 C 
ENDBRANCH   4  21
TORSDOF 4
ENDMDL
MODEL 2
REMARK VINA RESULT:      -7.7      1.347      3.467
REMARK  4 active torsions:
REMARK  status: ('A' for Active; 'I' for Inactive)
REMARK    1  A    between atoms: N_4  and  C_5 
REMARK    2  A    between atoms: C_13  and  C_14 
REMARK    3  A    between atoms: N_15  and  C_17 
REMARK    4  A    between atoms: C_17  and  C_18 
ROOT
HETATM    1  C   UNL     1      43.489 -17.775   8.173  1.00  0.00     0.095 C 
HETATM    2  C   UNL     1      43.125 -17.262   6.835  1.00  0.00     0.144 A 
HETATM    3  N   UNL     1      43.357 -16.005   6.446  1.00  0.00    -0.156 NA
HETATM    4  N   UNL     1      42.961 -16.014   5.161  1.00  0.00    -0.247 N 
HETATM    5  C   UNL     1      42.452 -17.245   4.827  1.00  0.00     0.156 A 
HETATM    6  N   UNL     1      42.524 -18.037   5.882  1.00  0.00    -0.215 NA
ENDROOT
BRANCH   5   7
HETATM    7  C   UNL     1      41.935 -17.698   3.490  1.00  0.00     0.259 C 
HETATM    8  N   UNL     1      42.972 -17.387   2.405  1.00  0.00    -0.056 N 
HETATM    9  H   UNL     1      43.212 -16.402   2.598  1.00  0.00     0.281 HD
HETATM   10  C   UNL     1      42.493 -17.423   0.980  1.00  0.00     0.236 C 
HETATM   11  C   UNL     1      41.245 -16.579   0.812  1.00  0.00     0.028 C 
HETATM   12  C   UNL     1      40.158 -17.047   1.762  1.00  0.00     0.004 C 
HETATM   13  C   UNL     1      40.634 -16.923   3.201  1.00  0.00     0.041 C 
BRANCH   8  14
HETATM   14  C   UNL     1      44.311 -18.102   2.576  1.00  0.00     0.274 C 
BRANCH  14  15
HETATM   15  C   UNL     1      44.290 -19.598   2.793  1.00  0.00    -0.033 A 
HETATM   16  C   UNL     1      43.886 -20.506   1.803  1.00  0.00     0.009 A 
HETATM   17  C   UNL     1      43.922 -21.885   2.031  1.00  0.00     0.001 A 
HETATM   18  C   UNL     1      44.394 -22.381   3.241  1.00  0.00     0.000 A 
HETATM   19  C   UNL     1      44.832 -21.501   4.225  1.00  0.00     0.001 A 
HETATM   20  C   UNL     1      44.779 -20.121   4.005  1.00  0.00     0.009 A 
ENDBRANCH  14  15
ENDBRANCH   8  14
ENDBRANCH   5   7
BRANCH   4  21
HETATM   21  C   UNL     1      43.101 -14.792   4.375  1.00  0.00     0.115 C 
HETATM   22  C   UNL     1      43.884 -13.688   5.107  1.00  0.00     0.055 C 
HETATM   23  C   UNL     1      43.083 -12.956   6.182  1.00  0.00     0.236 C 
HETATM   24  N   UNL     1      41.767 -12.474   5.622  1.00  0.00    -0.075 N 
HETATM   25  H   UNL     1      41.964 -11.772   4.896  1.00  0.00     0.279 HD
HETATM   26  C   UNL     1      40.971 -11.742   6.682  1.00  0.00     0.269 C 
HETATM   27  C   UNL     1      40.946 -13.578   5.010  1.00  0.00     0.236 C 
HETATM   28  C   UNL     1      41.742 -14.260   3.905  1.00  0.00     0.055 C 
ENDBRANCH   4  21
TORSDOF 4
ENDMDL
MODEL 3
REMARK VINA RESULT:      -7.7      1.994      5.688
REMARK  4 active torsions:
REMARK  status: ('A' for Active; 'I' for Inactive)
REMARK    1  A    between atoms: N_4  and  C_5 
REMARK    2  A    between atoms: C_13  and  C_14 
REMARK    3  A    between atoms: N_15  and  C_17 
REMARK    4  A    between atoms: C_17  and  C_18 
ROOT
HETATM    1  C   UNL     1      45.939 -13.371   7.073  1.00  0.00     0.095 C 
HETATM    2  C   UNL     1      44.745 -14.160   6.707  1.00  0.00     0.144 A 
HETATM    3  N   UNL     1      44.421 -15.314   7.299  1.00  0.00    -0.156 NA
HETATM    4  N   UNL     1      43.242 -15.619   6.729  1.00  0.00    -0.247 N 
HETATM    5  C   UNL     1      42.915 -14.684   5.779  1.00  0.00     0.156 A 
HETATM    6  N   UNL     1      43.868 -13.770   5.733  1.00  0.00    -0.215 NA
ENDROOT
BRANCH   5   7
HETATM    7  C   UNL     1      41.673 -14.622   4.935  1.00  0.00     0.259 C 
HETATM    8  N   UNL     1      41.953 -13.809   3.666  1.00  0.00    -0.056 N 
HETATM    9  H   UNL     1      42.411 -12.961   4.038  1.00  0.00     0.281 HD
HETATM   10  C   UNL     1      40.757 -13.326   2.892  1.00  0.00     0.236 C 
HETATM   11  C   UNL     1      39.780 -12.610   3.805  1.00  0.00     0.028 C 
HETATM   12  C   UNL     1      39.359 -13.519   4.945  1.00  0.00     0.004 C 
HETATM   13  C   UNL     1      40.574 -13.926   5.763  1.00  0.00     0.041 C 
BRANCH   8  14
HETATM   14  C   UNL     1      43.025 -14.399   2.752  1.00  0.00     0.274 C 
BRANCH  14  15
HETATM   15  C   UNL     1      42.874 -15.842   2.327  1.00  0.00    -0.033 A 
HETATM   16  C   UNL     1      41.631 -16.423   2.035  1.00  0.00     0.009 A 
HETATM   17  C   UNL     1      41.540 -17.750   1.603  1.00  0.00     0.001 A 
HETATM   18  C   UNL     1      42.691 -18.508   1.425  1.00  0.00     0.000 A 
HETATM   19  C   UNL     1      43.937 -17.942   1.676  1.00  0.00     0.001 A 
HETATM   20  C   UNL     1      44.028 -16.621   2.125  1.00  0.00     0.009 A 
ENDBRANCH  14  15
ENDBRANCH   8  14
ENDBRANCH   5   7
BRANCH   4  21
HETATM   21  C   UNL     1      42.546 -16.827   7.162  1.00  0.00     0.115 C 
HETATM   22  C   UNL     1      43.436 -17.779   7.979  1.00  0.00     0.055 C 
HETATM   23  C   UNL     1      44.421 -18.594   7.143  1.00  0.00     0.236 C 
HETATM   24  N   UNL     1      43.703 -19.285   6.010  1.00  0.00    -0.075 N 
HETATM   25  H   UNL     1      43.048 -19.970   6.413  1.00  0.00     0.279 HD
HETATM   26  C   UNL     1      44.673 -20.100   5.180  1.00  0.00     0.269 C 
HETATM   27  C   UNL     1      42.925 -18.336   5.137  1.00  0.00     0.236 C 
HETATM   28  C   UNL     1      41.913 -17.572   5.981  1.00  0.00     0.055 C 
ENDBRANCH   4  21
TORSDOF 4
ENDMDL
MODEL 4
REMARK VINA RESULT:      -7.5      3.322      5.757
REMARK  4 active torsions:
REMARK  status: ('A' for Active; 'I' for Inactive)
REMARK    1  A    between atoms: N_4  and  C_5 
REMARK    2  A    between atoms: C_13  and  C_14 
REMARK    3  A    between atoms: N_15  and  C_17 
REMARK    4  A    between atoms: C_17  and  C_18 
ROOT
HETATM    1  C   UNL     1      43.241 -10.928  -1.518  1.00  0.00     0.095 C 
HETATM    2  C   UNL     1      42.507 -11.790  -0.568  1.00  0.00     0.144 A 
HETATM    3  N   UNL     1      41.825 -12.876  -0.944  1.00  0.00    -0.156 NA
HETATM    4  N   UNL     1      41.412 -13.387   0.230  1.00  0.00    -0.247 N 
HETATM    5  C   UNL     1      41.800 -12.576   1.267  1.00  0.00     0.156 A 
HETATM    6  N   UNL     1      42.470 -11.548   0.777  1.00  0.00    -0.215 NA
ENDROOT
BRANCH   5   7
HETATM    7  C   UNL     1      41.581 -12.791   2.738  1.00  0.00     0.259 C 
HETATM    8  N   UNL     1      41.830 -14.263   3.087  1.00  0.00    -0.056 N 
HETATM    9  H   UNL     1      41.280 -14.760   2.369  1.00  0.00     0.281 HD
HETATM   10  C   UNL     1      41.307 -14.743   4.413  1.00  0.00     0.236 C 
HETATM   11  C   UNL     1      39.846 -14.373   4.580  1.00  0.00     0.028 C 
HETATM   12  C   UNL     1      39.660 -12.874   4.433  1.00  0.00     0.004 C 
HETATM   13  C   UNL     1      40.117 -12.425   3.055  1.00  0.00     0.041 C 
BRANCH   8  14
HETATM   14  C   UNL     1      43.253 -14.750   2.822  1.00  0.00     0.274 C 
BRANCH  14  15
HETATM   15  C   UNL     1      43.470 -16.238   2.657  1.00  0.00    -0.033 A 
HETATM   16  C   UNL     1      43.595 -17.114   3.744  1.00  0.00     0.009 A 
HETATM   17  C   UNL     1      43.751 -18.490   3.548  1.00  0.00     0.001 A 
HETATM   18  C   UNL     1      43.752 -19.016   2.261  1.00  0.00     0.000 A 
HETATM   19  C   UNL     1      43.595 -18.169   1.168  1.00  0.00     0.001 A 
HETATM   20  C   UNL     1      43.458 -16.792   1.364  1.00  0.00     0.009 A 
ENDBRANCH  14  15
ENDBRANCH   8  14
ENDBRANCH   5   7
BRANCH   4  21
HETATM   21  C   UNL     1      40.646 -14.629   0.222  1.00  0.00     0.115 C 
HETATM   22  C   UNL     1      40.903 -15.492  -1.025  1.00  0.00     0.055 C 
HETATM   23  C   UNL     1      40.198 -15.000  -2.288  1.00  0.00     0.236 C 
HETATM   24  N   UNL     1      38.729 -14.776  -2.017  1.00  0.00    -0.075 N 
HETATM   25  H   UNL     1      38.300 -15.686  -1.796  1.00  0.00     0.279 HD
HETATM   26  C   UNL     1      38.023 -14.293  -3.267  1.00  0.00     0.269 C 
HETATM   27  C   UNL     1      38.478 -13.836  -0.868  1.00  0.00     0.236 C 
HETATM   28  C   UNL     1      39.144 -14.372   0.392  1.00  0.00     0.055 C 
ENDBRANCH   4  21
TORSDOF 4
ENDMDL
MODEL 5
REMARK VINA RESULT:      -7.2      1.971      4.553
REMARK  4 active torsions:
REMARK  status: ('A' for Active; 'I' for Inactive)
REMARK    1  A    between atoms: N_4  and  C_5 
REMARK    2  A    between atoms: C_13  and  C_14 
REMARK    3  A    between atoms: N_15  and  C_17 
REMARK    4  A    between atoms: C_17  and  C_18 
ROOT
HETATM    1  C   UNL     1      44.452 -14.021   6.075  1.00  0.00     0.095 C 
HETATM    2  C   UNL     1      43.130 -14.137   5.423  1.00  0.00     0.144 A 
HETATM    3  N   UNL     1      42.034 -13.524   5.880  1.00  0.00    -0.156 NA
HETATM    4  N   UNL     1      41.115 -13.826   4.946  1.00  0.00    -0.247 N 
HETATM    5  C   UNL     1      41.657 -14.651   3.992  1.00  0.00     0.156 A 
HETATM    6  N   UNL     1      42.923 -14.878   4.294  1.00  0.00    -0.215 NA
ENDROOT
BRANCH   5   7
HETATM    7  C   UNL     1      40.994 -15.195   2.758  1.00  0.00     0.259 C 
HETATM    8  N   UNL     1      41.665 -16.512   2.351  1.00  0.00    -0.056 N 
HETATM    9  H   UNL     1      42.669 -16.270   2.377  1.00  0.00     0.281 HD
HETATM   10  C   UNL     1      41.396 -17.006   0.956  1.00  0.00     0.236 C 
HETATM   11  C   UNL     1      41.659 -15.914  -0.061  1.00  0.00     0.028 C 
HETATM   12  C   UNL     1      40.820 -14.688   0.251  1.00  0.00     0.004 C 
HETATM   13  C   UNL     1      41.168 -14.156   1.632  1.00  0.00     0.041 C 
BRANCH   8  14
HETATM   14  C   UNL     1      41.558 -17.630   3.385  1.00  0.00     0.274 C 
BRANCH  14  15
HETATM   15  C   UNL     1      42.782 -18.484   3.630  1.00  0.00    -0.033 A 
HETATM   16  C   UNL     1      43.459 -18.509   4.858  1.00  0.00     0.009 A 
HETATM   17  C   UNL     1      44.562 -19.346   5.056  1.00  0.00     0.001 A 
HETATM   18  C   UNL     1      44.985 -20.196   4.042  1.00  0.00     0.000 A 
HETATM   19  C   UNL     1      44.307 -20.213   2.827  1.00  0.00     0.001 A 
HETATM   20  C   UNL     1      43.217 -19.364   2.621  1.00  0.00     0.009 A 
ENDBRANCH  14  15
ENDBRANCH   8  14
ENDBRANCH   5   7
BRANCH   4  21
HETATM   21  C   UNL     1      39.766 -13.288   5.090  1.00  0.00     0.115 C 
HETATM   22  C   UNL     1      39.460 -12.148   4.103  1.00  0.00     0.055 C 
HETATM   23  C   UNL     1      40.083 -10.805   4.479  1.00  0.00     0.236 C 
HETATM   24  N   UNL     1      39.750 -10.453   5.909  1.00  0.00    -0.075 N 
HETATM   25  H   UNL     1      38.732 -10.316   5.978  1.00  0.00     0.279 HD
HETATM   26  C   UNL     1      40.360  -9.119   6.287  1.00  0.00     0.269 C 
HETATM   27  C   UNL     1      40.158 -11.520   6.890  1.00  0.00     0.236 C 
HETATM   28  C   UNL     1      39.485 -12.837   6.528  1.00  0.00     0.055 C 
ENDBRANCH   4  21
TORSDOF 4
ENDMDL
MODEL 6
REMARK VINA RESULT:      -7.1      2.229      5.074
REMARK  4 active torsions:
REMARK  status: ('A' for Active; 'I' for Inactive)
REMARK    1  A    between atoms: N_4  and  C_5 
REMARK    2  A    between atoms: C_13  and  C_14 
REMARK    3  A    between atoms: N_15  and  C_17 
REMARK    4  A    between atoms: C_17  and  C_18 
ROOT
HETATM    1  C   UNL     1      44.329 -14.018   5.884  1.00  0.00     0.095 C 
HETATM    2  C   UNL     1      43.018 -13.922   5.209  1.00  0.00     0.144 A 
HETATM    3  N   UNL     1      41.899 -13.546   5.836  1.00  0.00    -0.156 NA
HETATM    4  N   UNL     1      40.998 -13.511   4.838  1.00  0.00    -0.247 N 
HETATM    5  C   UNL     1      41.574 -13.916   3.660  1.00  0.00     0.156 A 
HETATM    6  N   UNL     1      42.844 -14.205   3.883  1.00  0.00    -0.215 NA
ENDROOT
BRANCH   5   7
HETATM    7  C   UNL     1      40.940 -13.989   2.299  1.00  0.00     0.259 C 
HETATM    8  N   UNL     1      41.331 -15.306   1.619  1.00  0.00    -0.056 N 
HETATM    9  H   UNL     1      42.355 -15.332   1.752  1.00  0.00     0.281 HD
HETATM   10  C   UNL     1      41.107 -15.394   0.134  1.00  0.00     0.236 C 
HETATM   11  C   UNL     1      41.718 -14.201  -0.574  1.00  0.00     0.028 C 
HETATM   12  C   UNL     1      41.153 -12.908  -0.015  1.00  0.00     0.004 C 
HETATM   13  C   UNL     1      41.465 -12.801   1.469  1.00  0.00     0.041 C 
BRANCH   8  14
HETATM   14  C   UNL     1      40.862 -16.565   2.344  1.00  0.00     0.274 C 
BRANCH  14  15
HETATM   15  C   UNL     1      41.907 -17.589   2.729  1.00  0.00    -0.033 A 
HETATM   16  C   UNL     1      42.581 -18.379   1.786  1.00  0.00     0.009 A 
HETATM   17  C   UNL     1      43.571 -19.284   2.181  1.00  0.00     0.001 A 
HETATM   18  C   UNL     1      43.927 -19.390   3.520  1.00  0.00     0.000 A 
HETATM   19  C   UNL     1      43.295 -18.592   4.469  1.00  0.00     0.001 A 
HETATM   20  C   UNL     1      42.292 -17.700   4.077  1.00  0.00     0.009 A 
ENDBRANCH  14  15
ENDBRANCH   8  14
ENDBRANCH   5   7
BRANCH   4  21
HETATM   21  C   UNL     1      39.632 -13.096   5.141  1.00  0.00     0.115 C 
HETATM   22  C   UNL     1      39.122 -11.970   4.225  1.00  0.00     0.055 C 
HETATM   23  C   UNL     1      39.664 -10.585   4.570  1.00  0.00     0.236 C 
HETATM   24  N   UNL     1      39.462 -10.289   6.036  1.00  0.00    -0.075 N 
HETATM   25  H   UNL     1      38.450 -10.245   6.219  1.00  0.00     0.279 HD
HETATM   26  C   UNL     1      39.993  -8.914   6.383  1.00  0.00     0.269 C 
HETATM   27  C   UNL     1      40.065 -11.334   6.937  1.00  0.00     0.236 C 
HETATM   28  C   UNL     1      39.472 -12.699   6.613  1.00  0.00     0.055 C 
ENDBRANCH   4  21
TORSDOF 4
ENDMDL
MODEL 7
REMARK VINA RESULT:      -7.0      2.108      3.816
REMARK  4 active torsions:
REMARK  status: ('A' for Active; 'I' for Inactive)
REMARK    1  A    between atoms: N_4  and  C_5 
REMARK    2  A    between atoms: C_13  and  C_14 
REMARK    3  A    between atoms: N_15  and  C_17 
REMARK    4  A    between atoms: C_17  and  C_18 
ROOT
HETATM    1  C   UNL     1      38.744 -11.924   4.814  1.00  0.00     0.095 C 
HETATM    2  C   UNL     1      39.944 -12.634   4.324  1.00  0.00     0.144 A 
HETATM    3  N   UNL     1      40.325 -12.629   3.043  1.00  0.00    -0.156 NA
HETATM    4  N   UNL     1      41.488 -13.303   3.077  1.00  0.00    -0.247 N 
HETATM    5  C   UNL     1      41.748 -13.742   4.350  1.00  0.00     0.156 A 
HETATM    6  N   UNL     1      40.768 -13.351   5.146  1.00  0.00    -0.215 NA
ENDROOT
BRANCH   5   7
HETATM    7  C   UNL     1      42.952 -14.499   4.838  1.00  0.00     0.259 C 
HETATM    8  N   UNL     1      42.515 -15.859   5.395  1.00  0.00    -0.056 N 
HETATM    9  H   UNL     1      41.733 -15.604   6.020  1.00  0.00     0.281 HD
HETATM   10  C   UNL     1      43.509 -16.589   6.255  1.00  0.00     0.236 C 
HETATM   11  C   UNL     1      44.039 -15.686   7.351  1.00  0.00     0.028 C 
HETATM   12  C   UNL     1      44.655 -14.434   6.752  1.00  0.00     0.004 C 
HETATM   13  C   UNL     1      43.610 -13.668   5.957  1.00  0.00     0.041 C 
BRANCH   8  14
HETATM   14  C   UNL     1      41.850 -16.783   4.378  1.00  0.00     0.274 C 
BRANCH  14  15
HETATM   15  C   UNL     1      42.701 -17.857   3.738  1.00  0.00    -0.033 A 
HETATM   16  C   UNL     1      43.407 -18.813   4.482  1.00  0.00     0.009 A 
HETATM   17  C   UNL     1      44.148 -19.816   3.849  1.00  0.00     0.001 A 
HETATM   18  C   UNL     1      44.169 -19.899   2.462  1.00  0.00     0.000 A 
HETATM   19  C   UNL     1      43.448 -18.982   1.704  1.00  0.00     0.001 A 
HETATM   20  C   UNL     1      42.722 -17.968   2.335  1.00  0.00     0.009 A 
ENDBRANCH  14  15
ENDBRANCH   8  14
ENDBRANCH   5   7
BRANCH   4  21
HETATM   21  C   UNL     1      42.235 -13.473   1.834  1.00  0.00     0.115 C 
HETATM   22  C   UNL     1      41.994 -12.341   0.822  1.00  0.00     0.055 C 
HETATM   23  C   UNL     1      40.661 -12.430   0.082  1.00  0.00     0.236 C 
HETATM   24  N   UNL     1      40.482 -13.805  -0.516  1.00  0.00    -0.075 N 
HETATM   25  H   UNL     1      41.208 -13.940  -1.234  1.00  0.00     0.279 HD
HETATM   26  C   UNL     1      39.165 -13.899  -1.256  1.00  0.00     0.269 C 
HETATM   27  C   UNL     1      40.601 -14.911   0.499  1.00  0.00     0.236 C 
HETATM   28  C   UNL     1      41.958 -14.835   1.187  1.00  0.00     0.055 C 
ENDBRANCH   4  21
TORSDOF 4
ENDMDL
MODEL 8
REMARK VINA RESULT:      -7.0      2.299      6.533
REMARK  4 active torsions:
REMARK  status: ('A' for Active; 'I' for Inactive)
REMARK    1  A    between atoms: N_4  and  C_5 
REMARK    2  A    between atoms: C_13  and  C_14 
REMARK    3  A    between atoms: N_15  and  C_17 
REMARK    4  A    between atoms: C_17  and  C_18 
ROOT
HETATM    1  C   UNL     1      45.492 -13.584   6.967  1.00  0.00     0.095 C 
HETATM    2  C   UNL     1      44.240 -14.278   6.599  1.00  0.00     0.144 A 
HETATM    3  N   UNL     1      44.002 -15.560   6.893  1.00  0.00    -0.156 NA
HETATM    4  N   UNL     1      42.739 -15.732   6.464  1.00  0.00    -0.247 N 
HETATM    5  C   UNL     1      42.273 -14.583   5.877  1.00  0.00     0.156 A 
HETATM    6  N   UNL     1      43.220 -13.662   5.930  1.00  0.00    -0.215 NA
ENDROOT
BRANCH   5   7
HETATM    7  C   UNL     1      40.908 -14.329   5.300  1.00  0.00     0.259 C 
HETATM    8  N   UNL     1      41.046 -13.794   3.870  1.00  0.00    -0.056 N 
HETATM    9  H   UNL     1      41.748 -13.045   3.976  1.00  0.00     0.281 HD
HETATM   10  C   UNL     1      39.831 -13.139   3.272  1.00  0.00     0.236 C 
HETATM   11  C   UNL     1      39.275 -12.083   4.207  1.00  0.00     0.028 C 
HETATM   12  C   UNL     1      38.953 -12.692   5.560  1.00  0.00     0.004 C 
HETATM   13  C   UNL     1      40.212 -13.273   6.183  1.00  0.00     0.041 C 
BRANCH   8  14
HETATM   14  C   UNL     1      41.719 -14.753   2.890  1.00  0.00     0.274 C 
BRANCH  14  15
HETATM   15  C   UNL     1      41.596 -14.454   1.413  1.00  0.00    -0.033 A 
HETATM   16  C   UNL     1      42.017 -13.243   0.844  1.00  0.00     0.009 A 
HETATM   17  C   UNL     1      41.925 -13.023  -0.534  1.00  0.00     0.001 A 
HETATM   18  C   UNL     1      41.441 -14.023  -1.370  1.00  0.00     0.000 A 
HETATM   19  C   UNL     1      41.050 -15.245  -0.832  1.00  0.00     0.001 A 
HETATM   20  C   UNL     1      41.124 -15.458   0.548  1.00  0.00     0.009 A 
ENDBRANCH  14  15
ENDBRANCH   8  14
ENDBRANCH   5   7
BRANCH   4  21
HETATM   21  C   UNL     1      42.106 -17.034   6.654  1.00  0.00     0.115 C 
HETATM   22  C   UNL     1      42.960 -18.008   7.483  1.00  0.00     0.055 C 
HETATM   23  C   UNL     1      44.121 -18.638   6.714  1.00  0.00     0.236 C 
HETATM   24  N   UNL     1      43.631 -19.237   5.419  1.00  0.00    -0.075 N 
HETATM   25  H   UNL     1      42.993 -20.014   5.644  1.00  0.00     0.279 HD
HETATM   26  C   UNL     1      44.775 -19.868   4.654  1.00  0.00     0.269 C 
HETATM   27  C   UNL     1      42.895 -18.250   4.552  1.00  0.00     0.236 C 
HETATM   28  C   UNL     1      41.711 -17.674   5.319  1.00  0.00     0.055 C 
ENDBRANCH   4  21
TORSDOF 4
ENDMDL
MODEL 9
REMARK VINA RESULT:      -7.0      3.537      5.232
REMARK  4 active torsions:
REMARK  status: ('A' for Active; 'I' for Inactive)
REMARK    1  A    between atoms: N_4  and  C_5 
REMARK    2  A    between atoms: C_13  and  C_14 
REMARK    3  A    between atoms: N_15  and  C_17 
REMARK    4  A    between atoms: C_17  and  C_18 
ROOT
HETATM    1  C   UNL     1      40.971 -15.564  -2.046  1.00  0.00     0.095 C 
HETATM    2  C   UNL     1      41.331 -14.569  -1.014  1.00  0.00     0.144 A 
HETATM    3  N   UNL     1      41.850 -13.371  -1.302  1.00  0.00    -0.156 NA
HETATM    4  N   UNL     1      41.925 -12.783  -0.095  1.00  0.00    -0.247 N 
HETATM    5  C   UNL     1      41.510 -13.648   0.885  1.00  0.00     0.156 A 
HETATM    6  N   UNL     1      41.156 -14.791   0.324  1.00  0.00    -0.215 NA
ENDROOT
BRANCH   5   7
HETATM    7  C   UNL     1      41.399 -13.387   2.361  1.00  0.00     0.259 C 
HETATM    8  N   UNL     1      41.806 -14.644   3.138  1.00  0.00    -0.056 N 
HETATM    9  H   UNL     1      41.263 -15.385   2.667  1.00  0.00     0.281 HD
HETATM   10  C   UNL     1      41.410 -14.701   4.589  1.00  0.00     0.236 C 
HETATM   11  C   UNL     1      39.934 -14.401   4.755  1.00  0.00     0.028 C 
HETATM   12  C   UNL     1      39.599 -13.048   4.154  1.00  0.00     0.004 C 
HETATM   13  C   UNL     1      39.929 -13.041   2.670  1.00  0.00     0.041 C 
BRANCH   8  14
HETATM   14  C   UNL     1      43.250 -15.091   2.921  1.00  0.00     0.274 C 
BRANCH  14  15
HETATM   15  C   UNL     1      43.519 -16.574   2.801  1.00  0.00    -0.033 A 
HETATM   16  C   UNL     1      43.596 -17.426   3.912  1.00  0.00     0.009 A 
HETATM   17  C   UNL     1      43.804 -18.800   3.755  1.00  0.00     0.001 A 
HETATM   18  C   UNL     1      43.906 -19.350   2.482  1.00  0.00     0.000 A 
HETATM   19  C   UNL     1      43.799 -18.529   1.364  1.00  0.00     0.001 A 
HETATM   20  C   UNL     1      43.610 -17.152   1.522  1.00  0.00     0.009 A 
ENDBRANCH  14  15
ENDBRANCH   8  14
ENDBRANCH   5   7
BRANCH   4  21
HETATM   21  C   UNL     1      42.425 -11.414  -0.014  1.00  0.00     0.115 C 
HETATM   22  C   UNL     1      41.318 -10.380   0.259  1.00  0.00     0.055 C 
HETATM   23  C   UNL     1      40.460 -10.040  -0.958  1.00  0.00     0.236 C 
HETATM   24  N   UNL     1      41.335  -9.672  -2.132  1.00  0.00    -0.075 N 
HETATM   25  H   UNL     1      41.841  -8.807  -1.898  1.00  0.00     0.279 HD
HETATM   26  C   UNL     1      40.490  -9.328  -3.341  1.00  0.00     0.269 C 
HETATM   27  C   UNL     1      42.342 -10.738  -2.475  1.00  0.00     0.236 C 
HETATM   28  C   UNL     1      43.221 -11.024  -1.264  1.00  0.00     0.055 C 
ENDBRANCH   4  21
TORSDOF 4
ENDMDL
MODEL 10
REMARK VINA RESULT:      -6.9      3.630      5.618
REMARK  4 active torsions:
REMARK  status: ('A' for Active; 'I' for Inactive)
REMARK    1  A    between atoms: N_4  and  C_5 
REMARK    2  A    between atoms: C_13  and  C_14 
REMARK    3  A    between atoms: N_15  and  C_17 
REMARK    4  A    between atoms: C_17  and  C_18 
ROOT
HETATM    1  C   UNL     1      36.535 -12.210   0.582  1.00  0.00     0.095 C 
HETATM    2  C   UNL     1      37.851 -12.879   0.656  1.00  0.00     0.144 A 
HETATM    3  N   UNL     1      38.408 -13.513  -0.380  1.00  0.00    -0.156 NA
HETATM    4  N   UNL     1      39.609 -13.875   0.105  1.00  0.00    -0.247 N 
HETATM    5  C   UNL     1      39.723 -13.506   1.422  1.00  0.00     0.156 A 
HETATM    6  N   UNL     1      38.609 -12.900   1.793  1.00  0.00    -0.215 NA
ENDROOT
BRANCH   5   7
HETATM    7  C   UNL     1      40.907 -13.683   2.331  1.00  0.00     0.259 C 
HETATM    8  N   UNL     1      40.661 -14.868   3.272  1.00  0.00    -0.056 N 
HETATM    9  H   UNL     1      39.712 -14.677   3.632  1.00  0.00     0.281 HD
HETATM   10  C   UNL     1      41.549 -14.969   4.481  1.00  0.00     0.236 C 
HETATM   11  C   UNL     1      41.575 -13.656   5.239  1.00  0.00     0.028 C 
HETATM   12  C   UNL     1      42.024 -12.528   4.328  1.00  0.00     0.004 C 
HETATM   13  C   UNL     1      41.064 -12.391   3.157  1.00  0.00     0.041 C 
BRANCH   8  14
HETATM   14  C   UNL     1      40.492 -16.216   2.573  1.00  0.00     0.274 C 
BRANCH  14  15
HETATM   15  C   UNL     1      41.722 -17.079   2.397  1.00  0.00    -0.033 A 
HETATM   16  C   UNL     1      42.094 -18.069   3.318  1.00  0.00     0.009 A 
HETATM   17  C   UNL     1      43.215 -18.875   3.096  1.00  0.00     0.001 A 
HETATM   18  C   UNL     1      43.964 -18.726   1.934  1.00  0.00     0.000 A 
HETATM   19  C   UNL     1      43.593 -17.773   0.991  1.00  0.00     0.001 A 
HETATM   20  C   UNL     1      42.483 -16.954   1.221  1.00  0.00     0.009 A 
ENDBRANCH  14  15
ENDBRANCH   8  14
ENDBRANCH   5   7
BRANCH   4  21
HETATM   21  C   UNL     1      40.538 -14.576  -0.776  1.00  0.00     0.115 C 
HETATM   22  C   UNL     1      41.932 -13.927  -0.827  1.00  0.00     0.055 C 
HETATM   23  C   UNL     1      42.007 -12.665  -1.683  1.00  0.00     0.236 C 
HETATM   24  N   UNL     1      41.424 -12.921  -3.052  1.00  0.00    -0.075 N 
HETATM   25  H   UNL     1      42.016 -13.616  -3.529  1.00  0.00     0.279 HD
HETATM   26  C   UNL     1      41.501 -11.675  -3.908  1.00  0.00     0.269 C 
HETATM   27  C   UNL     1      40.014 -13.446  -3.004  1.00  0.00     0.236 C 
HETATM   28  C   UNL     1      39.971 -14.733  -2.191  1.00  0.00     0.055 C 
ENDBRANCH   4  21
TORSDOF 4
ENDMDL
