MODEL 1
REMARK VINA RESULT:      -8.6      0.000      0.000
REMARK  9 active torsions:
REMARK  status: ('A' for Active; 'I' for Inactive)
REMARK    1  A    between atoms: C_2  and  O_3 
REMARK    2  A    between atoms: O_3  and  C_4 
REMARK    3  A    between atoms: C_5  and  C_6 
REMARK    4  A    between atoms: N_7  and  C_9 
REMARK    5  A    between atoms: C_9  and  C_10 
REMARK       I    between atoms: C_10  and  N_11 
REMARK    6  A    between atoms: N_11  and  C_12 
REMARK    7  A    between atoms: C_20  and  C_21 
REMARK    8  A    between atoms: C_21  and  O_22 
REMARK    9  A    between atoms: C_28  and  O_29 
ROOT
HETATM    1  C   UNL     1      42.222 -13.691   5.411  1.00  0.00     0.231 C 
HETATM    2  N   UNL     1      41.495 -12.631   6.269  1.00  0.00    -0.054 N 
HETATM    3  H   UNL     1      41.821 -12.860   7.221  1.00  0.00     0.281 HD
HETATM    4  C   UNL     1      39.996 -12.701   6.268  1.00  0.00     0.239 C 
HETATM    5  C   UNL     1      39.445 -12.728   4.853  1.00  0.00     0.066 C 
HETATM    6  C   UNL     1      40.001 -13.919   4.067  1.00  0.00     0.065 C 
HETATM    7  C   UNL     1      41.537 -13.836   4.024  1.00  0.00     0.055 C 
HETATM    8  C   UNL     1      39.416 -13.933   2.640  1.00  0.00     0.038 C 
HETATM    9  C   UNL     1      40.036 -15.014   1.752  1.00  0.00     0.003 C 
HETATM   10  C   UNL     1      41.559 -14.950   1.750  1.00  0.00     0.001 C 
HETATM   11  C   UNL     1      42.139 -14.961   3.163  1.00  0.00     0.010 C 
ENDROOT
BRANCH   2  12
HETATM   12  C   UNL     1      42.018 -11.200   6.052  1.00  0.00     0.338 C 
BRANCH  12  13
HETATM   13  C   UNL     1      42.016 -10.362   7.336  1.00  0.00     0.248 C 
HETATM   14  N   UNL     1      42.287 -11.106   8.467  1.00  0.00    -0.319 N 
HETATM   15  H   UNL     1      42.883 -11.932   8.384  1.00  0.00     0.169 HD
HETATM   16  O   UNL     1      41.836  -9.150   7.270  1.00  0.00    -0.271 OA
BRANCH  14  17
HETATM   17  C   UNL     1      42.144 -10.649   9.771  1.00  0.00     0.094 A 
HETATM   18  S   UNL     1      40.606 -10.266  10.372  1.00  0.00    -0.075 SA
HETATM   19  C   UNL     1      41.222  -9.967  11.923  1.00  0.00    -0.008 A 
HETATM   20  C   UNL     1      42.592 -10.149  12.003  1.00  0.00    -0.026 A 
HETATM   21  C   UNL     1      40.326  -9.587  13.063  1.00  0.00     0.047 C 
HETATM   22  C   UNL     1      43.332  -9.917  13.293  1.00  0.00     0.041 C 
HETATM   23  C   UNL     1      43.147 -10.550  10.727  1.00  0.00     0.080 A 
HETATM   24  C   UNL     1      42.391  -9.855  14.506  1.00  0.00     0.005 C 
HETATM   25  C   UNL     1      41.147  -9.005  14.221  1.00  0.00     0.005 C 
BRANCH  23  26
HETATM   26  C   UNL     1      44.549 -10.808  10.381  1.00  0.00     0.296 C 
HETATM   27  O   UNL     1      45.126 -10.180   9.496  1.00  0.00    -0.259 OA
BRANCH  26  28
HETATM   28  O   UNL     1      45.135 -11.760  11.156  1.00  0.00    -0.322 OA
HETATM   29  C   UNL     1      44.406 -12.986  11.253  1.00  0.00     0.213 C 
ENDBRANCH  26  28
ENDBRANCH  23  26
ENDBRANCH  14  17
ENDBRANCH  12  13
ENDBRANCH   2  12
BRANCH   1  30
HETATM   30  C   UNL     1      42.572 -14.969   6.175  1.00  0.00     0.006 A 
HETATM   31  C   UNL     1      43.849 -15.103   6.776  1.00  0.00     0.077 A 
HETATM   32  C   UNL     1      44.172 -16.262   7.493  1.00  0.00     0.037 A 
HETATM   33  C   UNL     1      43.250 -17.299   7.620  1.00  0.00     0.003 A 
HETATM   34  C   UNL     1      42.003 -17.191   7.024  1.00  0.00     0.001 A 
HETATM   35  C   UNL     1      41.669 -16.039   6.308  1.00  0.00     0.012 A 
BRANCH  31  36
HETATM   36  O   UNL     1      44.709 -14.053   6.587  1.00  0.00    -0.351 OA
BRANCH  36  37
HETATM   37  C   UNL     1      45.139 -13.274   7.706  1.00  0.00     0.171 C 
HETATM   38  C   UNL     1      46.527 -12.698   7.479  1.00  0.00     0.034 C 
ENDBRANCH  36  37
ENDBRANCH  31  36
ENDBRANCH   1  30
BRANCH   6  39
HETATM   39  O   UNL     1      39.569 -15.090   4.752  1.00  0.00    -0.389 OA
HETATM   40  H   UNL     1      38.967 -15.608   4.185  1.00  0.00     0.210 HD
ENDBRANCH   6  39
TORSDOF 9
ENDMDL
MODEL 2
REMARK VINA RESULT:      -8.5      5.466      9.241
REMARK  9 active torsions:
REMARK  status: ('A' for Active; 'I' for Inactive)
REMARK    1  A    between atoms: C_2  and  O_3 
REMARK    2  A    between atoms: O_3  and  C_4 
REMARK    3  A    between atoms: C_5  and  C_6 
REMARK    4  A    between atoms: N_7  and  C_9 
REMARK    5  A    between atoms: C_9  and  C_10 
REMARK       I    between atoms: C_10  and  N_11 
REMARK    6  A    between atoms: N_11  and  C_12 
REMARK    7  A    between atoms: C_20  and  C_21 
REMARK    8  A    between atoms: C_21  and  O_22 
REMARK    9  A    between atoms: C_28  and  O_29 
ROOT
HETATM    1  C   UNL     1      40.625 -13.032   2.753  1.00  0.00     0.231 C 
HETATM    2  N   UNL     1      40.522 -14.060   3.902  1.00  0.00    -0.054 N 
HETATM    3  H   UNL     1      40.215 -14.912   3.405  1.00  0.00     0.281 HD
HETATM    4  C   UNL     1      39.507 -13.758   4.965  1.00  0.00     0.239 C 
HETATM    5  C   UNL     1      39.678 -12.350   5.507  1.00  0.00     0.066 C 
HETATM    6  C   UNL     1      39.556 -11.309   4.391  1.00  0.00     0.065 C 
HETATM    7  C   UNL     1      40.621 -11.583   3.314  1.00  0.00     0.055 C 
HETATM    8  C   UNL     1      39.719  -9.889   4.968  1.00  0.00     0.038 C 
HETATM    9  C   UNL     1      39.750  -8.805   3.888  1.00  0.00     0.003 C 
HETATM   10  C   UNL     1      40.777  -9.107   2.803  1.00  0.00     0.001 C 
HETATM   11  C   UNL     1      40.601 -10.506   2.214  1.00  0.00     0.010 C 
ENDROOT
BRANCH   2  12
HETATM   12  C   UNL     1      41.886 -14.467   4.487  1.00  0.00     0.338 C 
BRANCH  12  13
HETATM   13  C   UNL     1      42.052 -15.985   4.618  1.00  0.00     0.248 C 
HETATM   14  N   UNL     1      43.359 -16.401   4.466  1.00  0.00    -0.319 N 
HETATM   15  H   UNL     1      44.114 -15.767   4.739  1.00  0.00     0.169 HD
HETATM   16  O   UNL     1      41.078 -16.682   4.886  1.00  0.00    -0.271 OA
BRANCH  14  17
HETATM   17  C   UNL     1      43.762 -17.723   4.330  1.00  0.00     0.094 A 
HETATM   18  S   UNL     1      44.062 -18.664   5.708  1.00  0.00    -0.075 SA
HETATM   19  C   UNL     1      44.327 -20.054   4.773  1.00  0.00    -0.008 A 
HETATM   20  C   UNL     1      44.196 -19.821   3.415  1.00  0.00    -0.026 A 
HETATM   21  C   UNL     1      44.630 -21.379   5.405  1.00  0.00     0.047 C 
HETATM   22  C   UNL     1      44.410 -20.926   2.414  1.00  0.00     0.041 C 
HETATM   23  C   UNL     1      43.865 -18.438   3.144  1.00  0.00     0.080 A 
HETATM   24  C   UNL     1      44.391 -22.318   3.064  1.00  0.00     0.005 C 
HETATM   25  C   UNL     1      45.201 -22.351   4.365  1.00  0.00     0.005 C 
BRANCH  23  26
HETATM   26  C   UNL     1      43.674 -17.781   1.846  1.00  0.00     0.296 C 
HETATM   27  O   UNL     1      44.554 -17.095   1.330  1.00  0.00    -0.259 OA
BRANCH  26  28
HETATM   28  O   UNL     1      42.469 -18.045   1.274  1.00  0.00    -0.322 OA
HETATM   29  C   UNL     1      41.672 -16.891   0.997  1.00  0.00     0.213 C 
ENDBRANCH  26  28
ENDBRANCH  23  26
ENDBRANCH  14  17
ENDBRANCH  12  13
ENDBRANCH   2  12
BRANCH   1  30
HETATM   30  C   UNL     1      39.715 -13.343   1.563  1.00  0.00     0.006 A 
HETATM   31  C   UNL     1      40.250 -13.351   0.250  1.00  0.00     0.077 A 
HETATM   32  C   UNL     1      39.429 -13.653  -0.843  1.00  0.00     0.037 A 
HETATM   33  C   UNL     1      38.078 -13.940  -0.660  1.00  0.00     0.003 A 
HETATM   34  C   UNL     1      37.535 -13.919   0.616  1.00  0.00     0.001 A 
HETATM   35  C   UNL     1      38.345 -13.622   1.714  1.00  0.00     0.012 A 
BRANCH  31  36
HETATM   36  O   UNL     1      41.580 -13.036   0.148  1.00  0.00    -0.351 OA
BRANCH  36  37
HETATM   37  C   UNL     1      42.165 -12.819  -1.138  1.00  0.00     0.171 C 
HETATM   38  C   UNL     1      42.825 -11.453  -1.223  1.00  0.00     0.034 C 
ENDBRANCH  36  37
ENDBRANCH  31  36
ENDBRANCH   1  30
BRANCH   6  39
HETATM   39  O   UNL     1      38.242 -11.442   3.860  1.00  0.00    -0.389 OA
HETATM   40  H   UNL     1      37.983 -10.623   3.395  1.00  0.00     0.210 HD
ENDBRANCH   6  39
TORSDOF 9
ENDMDL
MODEL 3
REMARK VINA RESULT:      -8.5      1.639      2.522
REMARK  9 active torsions:
REMARK  status: ('A' for Active; 'I' for Inactive)
REMARK    1  A    between atoms: C_2  and  O_3 
REMARK    2  A    between atoms: O_3  and  C_4 
REMARK    3  A    between atoms: C_5  and  C_6 
REMARK    4  A    between atoms: N_7  and  C_9 
REMARK    5  A    between atoms: C_9  and  C_10 
REMARK       I    between atoms: C_10  and  N_11 
REMARK    6  A    between atoms: N_11  and  C_12 
REMARK    7  A    between atoms: C_20  and  C_21 
REMARK    8  A    between atoms: C_21  and  O_22 
REMARK    9  A    between atoms: C_28  and  O_29 
ROOT
HETATM    1  C   UNL     1      41.818 -13.272   4.853  1.00  0.00     0.231 C 
HETATM    2  N   UNL     1      40.936 -12.238   5.590  1.00  0.00    -0.054 N 
HETATM    3  H   UNL     1      41.068 -12.506   6.579  1.00  0.00     0.281 HD
HETATM    4  C   UNL     1      39.467 -12.297   5.291  1.00  0.00     0.239 C 
HETATM    5  C   UNL     1      39.207 -12.267   3.795  1.00  0.00     0.066 C 
HETATM    6  C   UNL     1      39.906 -13.431   3.089  1.00  0.00     0.065 C 
HETATM    7  C   UNL     1      41.420 -13.359   3.353  1.00  0.00     0.055 C 
HETATM    8  C   UNL     1      39.614 -13.388   1.576  1.00  0.00     0.038 C 
HETATM    9  C   UNL     1      40.396 -14.440   0.786  1.00  0.00     0.003 C 
HETATM   10  C   UNL     1      41.890 -14.388   1.087  1.00  0.00     0.001 C 
HETATM   11  C   UNL     1      42.180 -14.457   2.586  1.00  0.00     0.010 C 
ENDROOT
BRANCH   2  12
HETATM   12  C   UNL     1      41.493 -10.805   5.536  1.00  0.00     0.338 C 
BRANCH  12  13
HETATM   13  C   UNL     1      41.740 -10.207   6.925  1.00  0.00     0.248 C 
HETATM   14  N   UNL     1      41.894 -11.165   7.907  1.00  0.00    -0.319 N 
HETATM   15  H   UNL     1      42.287 -12.074   7.652  1.00  0.00     0.169 HD
HETATM   16  O   UNL     1      41.831  -8.990   7.056  1.00  0.00    -0.271 OA
BRANCH  14  17
HETATM   17  C   UNL     1      41.921 -10.908   9.271  1.00  0.00     0.094 A 
HETATM   18  S   UNL     1      43.402 -10.680  10.064  1.00  0.00    -0.075 SA
HETATM   19  C   UNL     1      42.630 -10.302  11.525  1.00  0.00    -0.008 A 
HETATM   20  C   UNL     1      41.249 -10.347  11.431  1.00  0.00    -0.026 A 
HETATM   21  C   UNL     1      43.408  -9.925  12.749  1.00  0.00     0.047 C 
HETATM   22  C   UNL     1      40.380 -10.059  12.626  1.00  0.00     0.041 C 
HETATM   23  C   UNL     1      40.821 -10.711  10.097  1.00  0.00     0.080 A 
HETATM   24  C   UNL     1      41.153  -9.367  13.759  1.00  0.00     0.005 C 
HETATM   25  C   UNL     1      42.522 -10.016  13.997  1.00  0.00     0.005 C 
BRANCH  23  26
HETATM   26  C   UNL     1      39.456 -10.901   9.595  1.00  0.00     0.296 C 
HETATM   27  O   UNL     1      39.106 -11.941   9.040  1.00  0.00    -0.259 OA
BRANCH  26  28
HETATM   28  O   UNL     1      38.633  -9.847   9.845  1.00  0.00    -0.322 OA
HETATM   29  C   UNL     1      38.842  -8.711   9.004  1.00  0.00     0.213 C 
ENDBRANCH  26  28
ENDBRANCH  23  26
ENDBRANCH  14  17
ENDBRANCH  12  13
ENDBRANCH   2  12
BRANCH   1  30
HETATM   30  C   UNL     1      42.010 -14.580   5.621  1.00  0.00     0.006 A 
HETATM   31  C   UNL     1      43.292 -14.924   6.118  1.00  0.00     0.077 A 
HETATM   32  C   UNL     1      43.474 -16.111   6.839  1.00  0.00     0.037 A 
HETATM   33  C   UNL     1      42.403 -16.972   7.071  1.00  0.00     0.003 A 
HETATM   34  C   UNL     1      41.146 -16.659   6.577  1.00  0.00     0.001 A 
HETATM   35  C   UNL     1      40.953 -15.477   5.858  1.00  0.00     0.012 A 
BRANCH  31  36
HETATM   36  O   UNL     1      44.299 -14.039   5.830  1.00  0.00    -0.351 OA
BRANCH  36  37
HETATM   37  C   UNL     1      45.399 -13.893   6.731  1.00  0.00     0.171 C 
HETATM   38  C   UNL     1      44.993 -13.136   7.984  1.00  0.00     0.034 C 
ENDBRANCH  36  37
ENDBRANCH  31  36
ENDBRANCH   1  30
BRANCH   6  39
HETATM   39  O   UNL     1      39.346 -14.624   3.630  1.00  0.00    -0.389 OA
HETATM   40  H   UNL     1      39.871 -15.398   3.351  1.00  0.00     0.210 HD
ENDBRANCH   6  39
TORSDOF 9
ENDMDL
MODEL 4
REMARK VINA RESULT:      -8.3      6.219      9.210
REMARK  9 active torsions:
REMARK  status: ('A' for Active; 'I' for Inactive)
REMARK    1  A    between atoms: C_2  and  O_3 
REMARK    2  A    between atoms: O_3  and  C_4 
REMARK    3  A    between atoms: C_5  and  C_6 
REMARK    4  A    between atoms: N_7  and  C_9 
REMARK    5  A    between atoms: C_9  and  C_10 
REMARK       I    between atoms: C_10  and  N_11 
REMARK    6  A    between atoms: N_11  and  C_12 
REMARK    7  A    between atoms: C_20  and  C_21 
REMARK    8  A    between atoms: C_21  and  O_22 
REMARK    9  A    between atoms: C_28  and  O_29 
ROOT
HETATM    1  C   UNL     1      40.613 -13.831  -0.884  1.00  0.00     0.231 C 
HETATM    2  N   UNL     1      41.369 -15.155  -1.138  1.00  0.00    -0.054 N 
HETATM    3  H   UNL     1      42.332 -14.913  -0.855  1.00  0.00     0.281 HD
HETATM    4  C   UNL     1      41.412 -15.623  -2.563  1.00  0.00     0.239 C 
HETATM    5  C   UNL     1      40.022 -15.664  -3.173  1.00  0.00     0.066 C 
HETATM    6  C   UNL     1      39.356 -14.286  -3.122  1.00  0.00     0.065 C 
HETATM    7  C   UNL     1      39.267 -13.812  -1.660  1.00  0.00     0.055 C 
HETATM    8  C   UNL     1      37.954 -14.349  -3.760  1.00  0.00     0.038 C 
HETATM    9  C   UNL     1      37.172 -13.042  -3.616  1.00  0.00     0.003 C 
HETATM   10  C   UNL     1      37.126 -12.559  -2.171  1.00  0.00     0.001 C 
HETATM   11  C   UNL     1      38.518 -12.471  -1.546  1.00  0.00     0.010 C 
ENDROOT
BRANCH   2  12
HETATM   12  C   UNL     1      40.986 -16.278  -0.159  1.00  0.00     0.338 C 
BRANCH  12  13
HETATM   13  C   UNL     1      41.845 -16.282   1.111  1.00  0.00     0.248 C 
HETATM   14  N   UNL     1      41.604 -17.372   1.923  1.00  0.00    -0.319 N 
HETATM   15  H   UNL     1      41.301 -18.249   1.494  1.00  0.00     0.169 HD
HETATM   16  O   UNL     1      42.677 -15.396   1.285  1.00  0.00    -0.271 OA
BRANCH  14  17
HETATM   17  C   UNL     1      42.082 -17.519   3.218  1.00  0.00     0.094 A 
HETATM   18  S   UNL     1      41.342 -16.685   4.496  1.00  0.00    -0.075 SA
HETATM   19  C   UNL     1      42.325 -17.453   5.644  1.00  0.00    -0.008 A 
HETATM   20  C   UNL     1      43.222 -18.342   5.077  1.00  0.00    -0.026 A 
HETATM   21  C   UNL     1      42.169 -17.190   7.112  1.00  0.00     0.047 C 
HETATM   22  C   UNL     1      44.195 -19.112   5.929  1.00  0.00     0.041 C 
HETATM   23  C   UNL     1      43.087 -18.383   3.636  1.00  0.00     0.080 A 
HETATM   24  C   UNL     1      43.817 -19.090   7.417  1.00  0.00     0.005 C 
HETATM   25  C   UNL     1      43.399 -17.689   7.880  1.00  0.00     0.005 C 
BRANCH  23  26
HETATM   26  C   UNL     1      43.864 -19.162   2.666  1.00  0.00     0.296 C 
HETATM   27  O   UNL     1      44.387 -18.641   1.683  1.00  0.00    -0.259 OA
BRANCH  26  28
HETATM   28  O   UNL     1      43.979 -20.477   2.992  1.00  0.00    -0.322 OA
HETATM   29  C   UNL     1      43.971 -21.373   1.878  1.00  0.00     0.213 C 
ENDBRANCH  26  28
ENDBRANCH  23  26
ENDBRANCH  14  17
ENDBRANCH  12  13
ENDBRANCH   2  12
BRANCH   1  30
HETATM   30  C   UNL     1      41.501 -12.588  -0.960  1.00  0.00     0.006 A 
HETATM   31  C   UNL     1      41.517 -11.666   0.117  1.00  0.00     0.077 A 
HETATM   32  C   UNL     1      42.341 -10.535   0.064  1.00  0.00     0.037 A 
HETATM   33  C   UNL     1      43.149 -10.296  -1.046  1.00  0.00     0.003 A 
HETATM   34  C   UNL     1      43.132 -11.178  -2.115  1.00  0.00     0.001 A 
HETATM   35  C   UNL     1      42.316 -12.310  -2.073  1.00  0.00     0.012 A 
BRANCH  31  36
HETATM   36  O   UNL     1      40.679 -11.958   1.161  1.00  0.00    -0.351 OA
BRANCH  36  37
HETATM   37  C   UNL     1      41.223 -12.330   2.430  1.00  0.00     0.171 C 
HETATM   38  C   UNL     1      40.334 -13.336   3.141  1.00  0.00     0.034 C 
ENDBRANCH  36  37
ENDBRANCH  31  36
ENDBRANCH   1  30
BRANCH   6  39
HETATM   39  O   UNL     1      40.174 -13.414  -3.895  1.00  0.00    -0.389 OA
HETATM   40  H   UNL     1      39.903 -13.444  -4.832  1.00  0.00     0.210 HD
ENDBRANCH   6  39
TORSDOF 9
ENDMDL
MODEL 5
REMARK VINA RESULT:      -8.3      5.704      9.394
REMARK  9 active torsions:
REMARK  status: ('A' for Active; 'I' for Inactive)
REMARK    1  A    between atoms: C_2  and  O_3 
REMARK    2  A    between atoms: O_3  and  C_4 
REMARK    3  A    between atoms: C_5  and  C_6 
REMARK    4  A    between atoms: N_7  and  C_9 
REMARK    5  A    between atoms: C_9  and  C_10 
REMARK       I    between atoms: C_10  and  N_11 
REMARK    6  A    between atoms: N_11  and  C_12 
REMARK    7  A    between atoms: C_20  and  C_21 
REMARK    8  A    between atoms: C_21  and  O_22 
REMARK    9  A    between atoms: C_28  and  O_29 
ROOT
HETATM    1  C   UNL     1      39.329 -13.132  -0.556  1.00  0.00     0.231 C 
HETATM    2  N   UNL     1      38.613 -13.739   0.672  1.00  0.00    -0.054 N 
HETATM    3  H   UNL     1      38.661 -14.752   0.473  1.00  0.00     0.281 HD
HETATM    4  C   UNL     1      37.168 -13.371   0.838  1.00  0.00     0.239 C 
HETATM    5  C   UNL     1      36.971 -11.867   0.781  1.00  0.00     0.066 C 
HETATM    6  C   UNL     1      37.484 -11.292  -0.542  1.00  0.00     0.065 C 
HETATM    7  C   UNL     1      38.977 -11.626  -0.704  1.00  0.00     0.055 C 
HETATM    8  C   UNL     1      37.259  -9.767  -0.581  1.00  0.00     0.038 C 
HETATM    9  C   UNL     1      37.876  -9.104  -1.815  1.00  0.00     0.003 C 
HETATM   10  C   UNL     1      39.344  -9.476  -1.991  1.00  0.00     0.001 C 
HETATM   11  C   UNL     1      39.563 -10.988  -1.978  1.00  0.00     0.010 C 
ENDROOT
BRANCH   2  12
HETATM   12  C   UNL     1      39.411 -13.600   1.980  1.00  0.00     0.338 C 
BRANCH  12  13
HETATM   13  C   UNL     1      40.603 -14.561   2.059  1.00  0.00     0.248 C 
HETATM   14  N   UNL     1      40.261 -15.807   2.546  1.00  0.00    -0.319 N 
HETATM   15  H   UNL     1      39.316 -16.159   2.381  1.00  0.00     0.169 HD
HETATM   16  O   UNL     1      41.705 -14.198   1.658  1.00  0.00    -0.271 OA
BRANCH  14  17
HETATM   17  C   UNL     1      41.168 -16.792   2.914  1.00  0.00     0.094 A 
HETATM   18  S   UNL     1      41.912 -17.747   1.727  1.00  0.00    -0.075 SA
HETATM   19  C   UNL     1      42.890 -18.519   2.877  1.00  0.00    -0.008 A 
HETATM   20  C   UNL     1      42.664 -18.067   4.166  1.00  0.00    -0.026 A 
HETATM   21  C   UNL     1      43.906 -19.547   2.480  1.00  0.00     0.047 C 
HETATM   22  C   UNL     1      43.422 -18.640   5.334  1.00  0.00     0.041 C 
HETATM   23  C   UNL     1      41.639 -17.045   4.196  1.00  0.00     0.080 A 
HETATM   24  C   UNL     1      44.663 -19.432   4.895  1.00  0.00     0.005 C 
HETATM   25  C   UNL     1      44.363 -20.350   3.704  1.00  0.00     0.005 C 
BRANCH  23  26
HETATM   26  C   UNL     1      41.085 -16.339   5.357  1.00  0.00     0.296 C 
HETATM   27  O   UNL     1      40.474 -16.928   6.245  1.00  0.00    -0.259 OA
BRANCH  26  28
HETATM   28  O   UNL     1      41.357 -15.006   5.364  1.00  0.00    -0.322 OA
HETATM   29  C   UNL     1      40.274 -14.177   5.792  1.00  0.00     0.213 C 
ENDBRANCH  26  28
ENDBRANCH  23  26
ENDBRANCH  14  17
ENDBRANCH  12  13
ENDBRANCH   2  12
BRANCH   1  30
HETATM   30  C   UNL     1      39.263 -14.011  -1.806  1.00  0.00     0.006 A 
HETATM   31  C   UNL     1      40.460 -14.504  -2.384  1.00  0.00     0.077 A 
HETATM   32  C   UNL     1      40.408 -15.325  -3.518  1.00  0.00     0.037 A 
HETATM   33  C   UNL     1      39.187 -15.661  -4.097  1.00  0.00     0.003 A 
HETATM   34  C   UNL     1      38.008 -15.173  -3.554  1.00  0.00     0.001 A 
HETATM   35  C   UNL     1      38.047 -14.355  -2.423  1.00  0.00     0.012 A 
BRANCH  31  36
HETATM   36  O   UNL     1      41.622 -14.111  -1.773  1.00  0.00    -0.351 OA
BRANCH  36  37
HETATM   37  C   UNL     1      42.518 -13.223  -2.446  1.00  0.00     0.171 C 
HETATM   38  C   UNL     1      42.882 -12.035  -1.572  1.00  0.00     0.034 C 
ENDBRANCH  36  37
ENDBRANCH  31  36
ENDBRANCH   1  30
BRANCH   6  39
HETATM   39  O   UNL     1      36.707 -11.897  -1.571  1.00  0.00    -0.389 OA
HETATM   40  H   UNL     1      35.843 -12.181  -1.217  1.00  0.00     0.210 HD
ENDBRANCH   6  39
TORSDOF 9
ENDMDL
MODEL 6
REMARK VINA RESULT:      -8.3      4.600      8.327
REMARK  9 active torsions:
REMARK  status: ('A' for Active; 'I' for Inactive)
REMARK    1  A    between atoms: C_2  and  O_3 
REMARK    2  A    between atoms: O_3  and  C_4 
REMARK    3  A    between atoms: C_5  and  C_6 
REMARK    4  A    between atoms: N_7  and  C_9 
REMARK    5  A    between atoms: C_9  and  C_10 
REMARK       I    between atoms: C_10  and  N_11 
REMARK    6  A    between atoms: N_11  and  C_12 
REMARK    7  A    between atoms: C_20  and  C_21 
REMARK    8  A    between atoms: C_21  and  O_22 
REMARK    9  A    between atoms: C_28  and  O_29 
ROOT
HETATM    1  C   UNL     1      40.247 -11.683   2.981  1.00  0.00     0.231 C 
HETATM    2  N   UNL     1      40.680 -12.646   4.110  1.00  0.00    -0.054 N 
HETATM    3  H   UNL     1      40.541 -13.571   3.672  1.00  0.00     0.281 HD
HETATM    4  C   UNL     1      39.856 -12.602   5.363  1.00  0.00     0.239 C 
HETATM    5  C   UNL     1      39.716 -11.182   5.883  1.00  0.00     0.066 C 
HETATM    6  C   UNL     1      39.075 -10.270   4.833  1.00  0.00     0.065 C 
HETATM    7  C   UNL     1      39.935 -10.273   3.555  1.00  0.00     0.055 C 
HETATM    8  C   UNL     1      38.930  -8.839   5.388  1.00  0.00     0.038 C 
HETATM    9  C   UNL     1      38.428  -7.841   4.343  1.00  0.00     0.003 C 
HETATM   10  C   UNL     1      39.259  -7.882   3.066  1.00  0.00     0.001 C 
HETATM   11  C   UNL     1      39.382  -9.296   2.501  1.00  0.00     0.010 C 
ENDROOT
BRANCH   2  12
HETATM   12  C   UNL     1      42.192 -12.616   4.396  1.00  0.00     0.338 C 
BRANCH  12  13
HETATM   13  C   UNL     1      42.916 -13.878   3.914  1.00  0.00     0.248 C 
HETATM   14  N   UNL     1      42.192 -15.033   4.132  1.00  0.00    -0.319 N 
HETATM   15  H   UNL     1      41.172 -14.984   4.130  1.00  0.00     0.169 HD
HETATM   16  O   UNL     1      44.003 -13.778   3.352  1.00  0.00    -0.271 OA
BRANCH  14  17
HETATM   17  C   UNL     1      42.690 -16.322   3.986  1.00  0.00     0.094 A 
HETATM   18  S   UNL     1      42.716 -17.054   2.457  1.00  0.00    -0.075 SA
HETATM   19  C   UNL     1      43.532 -18.414   3.057  1.00  0.00    -0.008 A 
HETATM   20  C   UNL     1      43.789 -18.332   4.415  1.00  0.00    -0.026 A 
HETATM   21  C   UNL     1      43.943 -19.541   2.159  1.00  0.00     0.047 C 
HETATM   22  C   UNL     1      44.491 -19.448   5.141  1.00  0.00     0.041 C 
HETATM   23  C   UNL     1      43.288 -17.094   4.975  1.00  0.00     0.080 A 
HETATM   24  C   UNL     1      45.188 -20.424   4.181  1.00  0.00     0.005 C 
HETATM   25  C   UNL     1      44.298 -20.783   2.985  1.00  0.00     0.005 C 
BRANCH  23  26
HETATM   26  C   UNL     1      43.327 -16.639   6.368  1.00  0.00     0.296 C 
HETATM   27  O   UNL     1      42.395 -16.841   7.144  1.00  0.00    -0.259 OA
BRANCH  26  28
HETATM   28  O   UNL     1      44.493 -16.028   6.709  1.00  0.00    -0.322 OA
HETATM   29  C   UNL     1      44.355 -14.673   7.143  1.00  0.00     0.213 C 
ENDBRANCH  26  28
ENDBRANCH  23  26
ENDBRANCH  14  17
ENDBRANCH  12  13
ENDBRANCH   2  12
BRANCH   1  30
HETATM   30  C   UNL     1      39.247 -12.294   1.998  1.00  0.00     0.006 A 
HETATM   31  C   UNL     1      39.603 -13.451   1.259  1.00  0.00     0.077 A 
HETATM   32  C   UNL     1      38.687 -14.028   0.371  1.00  0.00     0.037 A 
HETATM   33  C   UNL     1      37.422 -13.474   0.195  1.00  0.00     0.003 A 
HETATM   34  C   UNL     1      37.064 -12.333   0.896  1.00  0.00     0.001 A 
HETATM   35  C   UNL     1      37.968 -11.749   1.786  1.00  0.00     0.012 A 
BRANCH  31  36
HETATM   36  O   UNL     1      40.872 -13.923   1.470  1.00  0.00    -0.351 OA
BRANCH  36  37
HETATM   37  C   UNL     1      41.795 -13.998   0.380  1.00  0.00     0.171 C 
HETATM   38  C   UNL     1      42.098 -12.621  -0.185  1.00  0.00     0.034 C 
ENDBRANCH  36  37
ENDBRANCH  31  36
ENDBRANCH   1  30
BRANCH   6  39
HETATM   39  O   UNL     1      37.777 -10.798   4.580  1.00  0.00    -0.389 OA
HETATM   40  H   UNL     1      37.357 -11.070   5.417  1.00  0.00     0.210 HD
ENDBRANCH   6  39
TORSDOF 9
ENDMDL
MODEL 7
REMARK VINA RESULT:      -8.1      2.349      3.914
REMARK  9 active torsions:
REMARK  status: ('A' for Active; 'I' for Inactive)
REMARK    1  A    between atoms: C_2  and  O_3 
REMARK    2  A    between atoms: O_3  and  C_4 
REMARK    3  A    between atoms: C_5  and  C_6 
REMARK    4  A    between atoms: N_7  and  C_9 
REMARK    5  A    between atoms: C_9  and  C_10 
REMARK       I    between atoms: C_10  and  N_11 
REMARK    6  A    between atoms: N_11  and  C_12 
REMARK    7  A    between atoms: C_20  and  C_21 
REMARK    8  A    between atoms: C_21  and  O_22 
REMARK    9  A    between atoms: C_28  and  O_29 
ROOT
HETATM    1  C   UNL     1      43.261 -15.844   3.428  1.00  0.00     0.231 C 
HETATM    2  N   UNL     1      43.131 -15.407   4.905  1.00  0.00    -0.054 N 
HETATM    3  H   UNL     1      43.689 -16.125   5.394  1.00  0.00     0.281 HD
HETATM    4  C   UNL     1      41.745 -15.433   5.478  1.00  0.00     0.239 C 
HETATM    5  C   UNL     1      40.769 -14.672   4.596  1.00  0.00     0.066 C 
HETATM    6  C   UNL     1      40.734 -15.254   3.181  1.00  0.00     0.065 C 
HETATM    7  C   UNL     1      42.144 -15.195   2.565  1.00  0.00     0.055 C 
HETATM    8  C   UNL     1      39.727 -14.476   2.311  1.00  0.00     0.038 C 
HETATM    9  C   UNL     1      39.743 -14.912   0.844  1.00  0.00     0.003 C 
HETATM   10  C   UNL     1      41.150 -14.890   0.256  1.00  0.00     0.001 C 
HETATM   11  C   UNL     1      42.143 -15.683   1.105  1.00  0.00     0.010 C 
ENDROOT
BRANCH   2  12
HETATM   12  C   UNL     1      43.879 -14.101   5.227  1.00  0.00     0.338 C 
BRANCH  12  13
HETATM   13  C   UNL     1      43.823 -13.732   6.713  1.00  0.00     0.248 C 
HETATM   14  N   UNL     1      43.157 -12.546   6.950  1.00  0.00    -0.319 N 
HETATM   15  H   UNL     1      42.410 -12.263   6.313  1.00  0.00     0.169 HD
HETATM   16  O   UNL     1      44.299 -14.495   7.549  1.00  0.00    -0.271 OA
BRANCH  14  17
HETATM   17  C   UNL     1      43.139 -11.875   8.166  1.00  0.00     0.094 A 
HETATM   18  S   UNL     1      44.424 -12.059   9.257  1.00  0.00    -0.075 SA
HETATM   19  C   UNL     1      43.769 -10.905  10.314  1.00  0.00    -0.008 A 
HETATM   20  C   UNL     1      42.575 -10.373   9.857  1.00  0.00    -0.026 A 
HETATM   21  C   UNL     1      44.472 -10.511  11.577  1.00  0.00     0.047 C 
HETATM   22  C   UNL     1      41.827  -9.344  10.661  1.00  0.00     0.041 C 
HETATM   23  C   UNL     1      42.192 -10.948   8.584  1.00  0.00     0.080 A 
HETATM   24  C   UNL     1      42.694  -8.716  11.762  1.00  0.00     0.005 C 
HETATM   25  C   UNL     1      43.512  -9.770  12.517  1.00  0.00     0.005 C 
BRANCH  23  26
HETATM   26  C   UNL     1      40.990 -10.682   7.786  1.00  0.00     0.296 C 
HETATM   27  O   UNL     1      39.863 -10.937   8.205  1.00  0.00    -0.259 OA
BRANCH  26  28
HETATM   28  O   UNL     1      41.252 -10.098   6.586  1.00  0.00    -0.322 OA
HETATM   29  C   UNL     1      41.413  -8.679   6.634  1.00  0.00     0.213 C 
ENDBRANCH  26  28
ENDBRANCH  23  26
ENDBRANCH  14  17
ENDBRANCH  12  13
ENDBRANCH   2  12
BRANCH   1  30
HETATM   30  C   UNL     1      43.528 -17.340   3.248  1.00  0.00     0.006 A 
HETATM   31  C   UNL     1      44.085 -18.089   4.315  1.00  0.00     0.077 A 
HETATM   32  C   UNL     1      44.315 -19.462   4.166  1.00  0.00     0.037 A 
HETATM   33  C   UNL     1      44.009 -20.109   2.971  1.00  0.00     0.003 A 
HETATM   34  C   UNL     1      43.480 -19.387   1.912  1.00  0.00     0.001 A 
HETATM   35  C   UNL     1      43.244 -18.018   2.049  1.00  0.00     0.012 A 
BRANCH  31  36
HETATM   36  O   UNL     1      44.380 -17.379   5.450  1.00  0.00    -0.351 OA
BRANCH  36  37
HETATM   37  C   UNL     1      44.800 -18.065   6.632  1.00  0.00     0.171 C 
HETATM   38  C   UNL     1      43.775 -17.927   7.745  1.00  0.00     0.034 C 
ENDBRANCH  36  37
ENDBRANCH  31  36
ENDBRANCH   1  30
BRANCH   6  39
HETATM   39  O   UNL     1      40.286 -16.600   3.310  1.00  0.00    -0.389 OA
HETATM   40  H   UNL     1      39.648 -16.810   2.603  1.00  0.00     0.210 HD
ENDBRANCH   6  39
TORSDOF 9
ENDMDL
MODEL 8
REMARK VINA RESULT:      -7.9      6.204      9.278
REMARK  9 active torsions:
REMARK  status: ('A' for Active; 'I' for Inactive)
REMARK    1  A    between atoms: C_2  and  O_3 
REMARK    2  A    between atoms: O_3  and  C_4 
REMARK    3  A    between atoms: C_5  and  C_6 
REMARK    4  A    between atoms: N_7  and  C_9 
REMARK    5  A    between atoms: C_9  and  C_10 
REMARK       I    between atoms: C_10  and  N_11 
REMARK    6  A    between atoms: N_11  and  C_12 
REMARK    7  A    between atoms: C_20  and  C_21 
REMARK    8  A    between atoms: C_21  and  O_22 
REMARK    9  A    between atoms: C_28  and  O_29 
ROOT
HETATM    1  C   UNL     1      41.125 -11.919   1.195  1.00  0.00     0.231 C 
HETATM    2  N   UNL     1      40.943 -13.082   2.196  1.00  0.00    -0.054 N 
HETATM    3  H   UNL     1      41.258 -13.896   1.644  1.00  0.00     0.281 HD
HETATM    4  C   UNL     1      39.536 -13.349   2.644  1.00  0.00     0.239 C 
HETATM    5  C   UNL     1      38.869 -12.083   3.153  1.00  0.00     0.066 C 
HETATM    6  C   UNL     1      38.852 -10.996   2.075  1.00  0.00     0.065 C 
HETATM    7  C   UNL     1      40.293 -10.683   1.636  1.00  0.00     0.055 C 
HETATM    8  C   UNL     1      38.157  -9.728   2.610  1.00  0.00     0.038 C 
HETATM    9  C   UNL     1      38.229  -8.551   1.634  1.00  0.00     0.003 C 
HETATM   10  C   UNL     1      39.656  -8.276   1.173  1.00  0.00     0.001 C 
HETATM   11  C   UNL     1      40.335  -9.528   0.619  1.00  0.00     0.010 C 
ENDROOT
BRANCH   2  12
HETATM   12  C   UNL     1      41.939 -13.046   3.369  1.00  0.00     0.338 C 
BRANCH  12  13
HETATM   13  C   UNL     1      42.931 -14.214   3.347  1.00  0.00     0.248 C 
HETATM   14  N   UNL     1      42.315 -15.447   3.424  1.00  0.00    -0.319 N 
HETATM   15  H   UNL     1      41.373 -15.554   3.041  1.00  0.00     0.169 HD
HETATM   16  O   UNL     1      44.131 -13.991   3.216  1.00  0.00    -0.271 OA
BRANCH  14  17
HETATM   17  C   UNL     1      42.973 -16.652   3.633  1.00  0.00     0.094 A 
HETATM   18  S   UNL     1      43.451 -17.099   5.198  1.00  0.00    -0.075 SA
HETATM   19  C   UNL     1      43.991 -18.615   4.663  1.00  0.00    -0.008 A 
HETATM   20  C   UNL     1      43.820 -18.798   3.302  1.00  0.00    -0.026 A 
HETATM   21  C   UNL     1      44.550 -19.629   5.615  1.00  0.00     0.047 C 
HETATM   22  C   UNL     1      44.252 -20.074   2.630  1.00  0.00     0.041 C 
HETATM   23  C   UNL     1      43.220 -17.635   2.682  1.00  0.00     0.080 A 
HETATM   24  C   UNL     1      44.509 -21.208   3.635  1.00  0.00     0.005 C 
HETATM   25  C   UNL     1      45.306 -20.723   4.852  1.00  0.00     0.005 C 
BRANCH  23  26
HETATM   26  C   UNL     1      42.906 -17.413   1.267  1.00  0.00     0.296 C 
HETATM   27  O   UNL     1      43.722 -17.639   0.377  1.00  0.00    -0.259 OA
BRANCH  26  28
HETATM   28  O   UNL     1      41.633 -16.985   1.053  1.00  0.00    -0.322 OA
HETATM   29  C   UNL     1      41.481 -16.081  -0.044  1.00  0.00     0.213 C 
ENDBRANCH  26  28
ENDBRANCH  23  26
ENDBRANCH  14  17
ENDBRANCH  12  13
ENDBRANCH   2  12
BRANCH   1  30
HETATM   30  C   UNL     1      41.049 -12.348  -0.271  1.00  0.00     0.006 A 
HETATM   31  C   UNL     1      42.121 -12.050  -1.149  1.00  0.00     0.077 A 
HETATM   32  C   UNL     1      42.068 -12.455  -2.489  1.00  0.00     0.037 A 
HETATM   33  C   UNL     1      40.963 -13.148  -2.978  1.00  0.00     0.003 A 
HETATM   34  C   UNL     1      39.899 -13.432  -2.137  1.00  0.00     0.001 A 
HETATM   35  C   UNL     1      39.941 -13.035  -0.800  1.00  0.00     0.012 A 
BRANCH  31  36
HETATM   36  O   UNL     1      43.162 -11.347  -0.600  1.00  0.00    -0.351 OA
BRANCH  36  37
HETATM   37  C   UNL     1      43.696 -10.211  -1.285  1.00  0.00     0.171 C 
HETATM   38  C   UNL     1      43.571  -8.950  -0.448  1.00  0.00     0.034 C 
ENDBRANCH  36  37
ENDBRANCH  31  36
ENDBRANCH   1  30
BRANCH   6  39
HETATM   39  O   UNL     1      38.087 -11.516   0.992  1.00  0.00    -0.389 OA
HETATM   40  H   UNL     1      37.508 -12.237   1.305  1.00  0.00     0.210 HD
ENDBRANCH   6  39
TORSDOF 9
ENDMDL
MODEL 9
REMARK VINA RESULT:      -7.8      2.193      3.271
REMARK  9 active torsions:
REMARK  status: ('A' for Active; 'I' for Inactive)
REMARK    1  A    between atoms: C_2  and  O_3 
REMARK    2  A    between atoms: O_3  and  C_4 
REMARK    3  A    between atoms: C_5  and  C_6 
REMARK    4  A    between atoms: N_7  and  C_9 
REMARK    5  A    between atoms: C_9  and  C_10 
REMARK       I    between atoms: C_10  and  N_11 
REMARK    6  A    between atoms: N_11  and  C_12 
REMARK    7  A    between atoms: C_20  and  C_21 
REMARK    8  A    between atoms: C_21  and  O_22 
REMARK    9  A    between atoms: C_28  and  O_29 
ROOT
HETATM    1  C   UNL     1      43.478 -15.898   3.921  1.00  0.00     0.231 C 
HETATM    2  N   UNL     1      43.335 -15.483   5.404  1.00  0.00    -0.054 N 
HETATM    3  H   UNL     1      43.858 -16.230   5.890  1.00  0.00     0.281 HD
HETATM    4  C   UNL     1      41.938 -15.470   5.950  1.00  0.00     0.239 C 
HETATM    5  C   UNL     1      41.007 -14.659   5.066  1.00  0.00     0.066 C 
HETATM    6  C   UNL     1      40.979 -15.213   3.639  1.00  0.00     0.065 C 
HETATM    7  C   UNL     1      42.401 -15.193   3.051  1.00  0.00     0.055 C 
HETATM    8  C   UNL     1      40.017 -14.383   2.765  1.00  0.00     0.038 C 
HETATM    9  C   UNL     1      40.046 -14.792   1.291  1.00  0.00     0.003 C 
HETATM   10  C   UNL     1      41.463 -14.810   0.729  1.00  0.00     0.001 C 
HETATM   11  C   UNL     1      42.411 -15.653   1.581  1.00  0.00     0.010 C 
ENDROOT
BRANCH   2  12
HETATM   12  C   UNL     1      44.123 -14.212   5.765  1.00  0.00     0.338 C 
BRANCH  12  13
HETATM   13  C   UNL     1      43.826 -13.707   7.181  1.00  0.00     0.248 C 
HETATM   14  N   UNL     1      43.323 -12.421   7.203  1.00  0.00    -0.319 N 
HETATM   15  H   UNL     1      42.775 -12.092   6.405  1.00  0.00     0.169 HD
HETATM   16  O   UNL     1      43.995 -14.454   8.141  1.00  0.00    -0.271 OA
BRANCH  14  17
HETATM   17  C   UNL     1      43.166 -11.649   8.346  1.00  0.00     0.094 A 
HETATM   18  S   UNL     1      41.658 -10.959   8.703  1.00  0.00    -0.075 SA
HETATM   19  C   UNL     1      42.217 -10.365  10.190  1.00  0.00    -0.008 A 
HETATM   20  C   UNL     1      43.544 -10.677  10.430  1.00  0.00    -0.026 A 
HETATM   21  C   UNL     1      41.314  -9.620  11.126  1.00  0.00     0.047 C 
HETATM   22  C   UNL     1      44.232 -10.224  11.691  1.00  0.00     0.041 C 
HETATM   23  C   UNL     1      44.116 -11.436   9.337  1.00  0.00     0.080 A 
HETATM   24  C   UNL     1      43.238  -9.763  12.767  1.00  0.00     0.005 C 
HETATM   25  C   UNL     1      42.135  -8.872  12.183  1.00  0.00     0.005 C 
BRANCH  23  26
HETATM   26  C   UNL     1      45.489 -11.928   9.186  1.00  0.00     0.296 C 
HETATM   27  O   UNL     1      45.937 -12.831   9.889  1.00  0.00    -0.259 OA
BRANCH  26  28
HETATM   28  O   UNL     1      46.176 -11.324   8.179  1.00  0.00    -0.322 OA
HETATM   29  C   UNL     1      47.304 -12.058   7.699  1.00  0.00     0.213 C 
ENDBRANCH  26  28
ENDBRANCH  23  26
ENDBRANCH  14  17
ENDBRANCH  12  13
ENDBRANCH   2  12
BRANCH   1  30
HETATM   30  C   UNL     1      43.695 -17.398   3.718  1.00  0.00     0.006 A 
HETATM   31  C   UNL     1      44.285 -18.171   4.750  1.00  0.00     0.077 A 
HETATM   32  C   UNL     1      44.471 -19.548   4.580  1.00  0.00     0.037 A 
HETATM   33  C   UNL     1      44.087 -20.176   3.398  1.00  0.00     0.003 A 
HETATM   34  C   UNL     1      43.524 -19.433   2.372  1.00  0.00     0.001 A 
HETATM   35  C   UNL     1      43.332 -18.059   2.531  1.00  0.00     0.012 A 
BRANCH  31  36
HETATM   36  O   UNL     1      44.657 -17.478   5.873  1.00  0.00    -0.351 OA
BRANCH  36  37
HETATM   37  C   UNL     1      44.880 -18.176   7.100  1.00  0.00     0.171 C 
HETATM   38  C   UNL     1      43.744 -17.946   8.083  1.00  0.00     0.034 C 
ENDBRANCH  36  37
ENDBRANCH  31  36
ENDBRANCH   1  30
BRANCH   6  39
HETATM   39  O   UNL     1      40.481 -16.544   3.734  1.00  0.00    -0.389 OA
HETATM   40  H   UNL     1      39.722 -16.662   3.132  1.00  0.00     0.210 HD
ENDBRANCH   6  39
TORSDOF 9
ENDMDL
MODEL 10
REMARK VINA RESULT:      -7.8      6.004      9.560
REMARK  9 active torsions:
REMARK  status: ('A' for Active; 'I' for Inactive)
REMARK    1  A    between atoms: C_2  and  O_3 
REMARK    2  A    between atoms: O_3  and  C_4 
REMARK    3  A    between atoms: C_5  and  C_6 
REMARK    4  A    between atoms: N_7  and  C_9 
REMARK    5  A    between atoms: C_9  and  C_10 
REMARK       I    between atoms: C_10  and  N_11 
REMARK    6  A    between atoms: N_11  and  C_12 
REMARK    7  A    between atoms: C_20  and  C_21 
REMARK    8  A    between atoms: C_21  and  O_22 
REMARK    9  A    between atoms: C_28  and  O_29 
ROOT
HETATM    1  C   UNL     1      40.040 -13.242  -1.283  1.00  0.00     0.231 C 
HETATM    2  N   UNL     1      41.033 -13.832  -0.256  1.00  0.00    -0.054 N 
HETATM    3  H   UNL     1      41.588 -13.004   0.011  1.00  0.00     0.281 HD
HETATM    4  C   UNL     1      41.981 -14.870  -0.781  1.00  0.00     0.239 C 
HETATM    5  C   UNL     1      41.240 -15.972  -1.518  1.00  0.00     0.066 C 
HETATM    6  C   UNL     1      40.425 -15.406  -2.684  1.00  0.00     0.065 C 
HETATM    7  C   UNL     1      39.419 -14.369  -2.153  1.00  0.00     0.055 C 
HETATM    8  C   UNL     1      39.695 -16.544  -3.425  1.00  0.00     0.038 C 
HETATM    9  C   UNL     1      38.748 -16.037  -4.515  1.00  0.00     0.003 C 
HETATM   10  C   UNL     1      37.784 -14.979  -3.989  1.00  0.00     0.001 C 
HETATM   11  C   UNL     1      38.509 -13.839  -3.277  1.00  0.00     0.010 C 
ENDROOT
BRANCH   2  12
HETATM   12  C   UNL     1      40.371 -14.253   1.067  1.00  0.00     0.338 C 
BRANCH  12  13
HETATM   13  C   UNL     1      41.387 -14.563   2.172  1.00  0.00     0.248 C 
HETATM   14  N   UNL     1      41.333 -15.873   2.605  1.00  0.00    -0.319 N 
HETATM   15  H   UNL     1      41.039 -16.598   1.947  1.00  0.00     0.169 HD
HETATM   16  O   UNL     1      42.170 -13.692   2.540  1.00  0.00    -0.271 OA
BRANCH  14  17
HETATM   17  C   UNL     1      41.986 -16.367   3.726  1.00  0.00     0.094 A 
HETATM   18  S   UNL     1      41.348 -16.089   5.272  1.00  0.00    -0.075 SA
HETATM   19  C   UNL     1      42.536 -17.055   6.000  1.00  0.00    -0.008 A 
HETATM   20  C   UNL     1      43.427 -17.593   5.087  1.00  0.00    -0.026 A 
HETATM   21  C   UNL     1      42.550 -17.300   7.479  1.00  0.00     0.047 C 
HETATM   22  C   UNL     1      44.567 -18.466   5.537  1.00  0.00     0.041 C 
HETATM   23  C   UNL     1      43.110 -17.184   3.735  1.00  0.00     0.080 A 
HETATM   24  C   UNL     1      44.385 -18.973   6.976  1.00  0.00     0.005 C 
HETATM   25  C   UNL     1      43.909 -17.860   7.917  1.00  0.00     0.005 C 
BRANCH  23  26
HETATM   26  C   UNL     1      43.820 -17.505   2.492  1.00  0.00     0.296 C 
HETATM   27  O   UNL     1      44.136 -16.637   1.681  1.00  0.00    -0.259 OA
BRANCH  26  28
HETATM   28  O   UNL     1      44.123 -18.825   2.363  1.00  0.00    -0.322 OA
HETATM   29  C   UNL     1      43.025 -19.657   1.984  1.00  0.00     0.213 C 
ENDBRANCH  26  28
ENDBRANCH  23  26
ENDBRANCH  14  17
ENDBRANCH  12  13
ENDBRANCH   2  12
BRANCH   1  30
HETATM   30  C   UNL     1      40.558 -11.991  -1.994  1.00  0.00     0.006 A 
HETATM   31  C   UNL     1      39.749 -10.828  -2.053  1.00  0.00     0.077 A 
HETATM   32  C   UNL     1      40.222  -9.672  -2.685  1.00  0.00     0.037 A 
HETATM   33  C   UNL     1      41.486  -9.649  -3.271  1.00  0.00     0.003 A 
HETATM   34  C   UNL     1      42.283 -10.783  -3.238  1.00  0.00     0.001 A 
HETATM   35  C   UNL     1      41.822 -11.941  -2.608  1.00  0.00     0.012 A 
BRANCH  31  36
HETATM   36  O   UNL     1      38.511 -10.935  -1.475  1.00  0.00    -0.351 OA
BRANCH  36  37
HETATM   37  C   UNL     1      37.491  -9.984  -1.791  1.00  0.00     0.171 C 
HETATM   38  C   UNL     1      36.172 -10.670  -2.103  1.00  0.00     0.034 C 
ENDBRANCH  36  37
ENDBRANCH  31  36
ENDBRANCH   1  30
BRANCH   6  39
HETATM   39  O   UNL     1      41.360 -14.805  -3.574  1.00  0.00    -0.389 OA
HETATM   40  H   UNL     1      41.773 -14.028  -3.152  1.00  0.00     0.210 HD
ENDBRANCH   6  39
TORSDOF 9
ENDMDL
