MODEL 1
REMARK VINA RESULT:      -8.4      0.000      0.000
REMARK  6 active torsions:
REMARK  status: ('A' for Active; 'I' for Inactive)
REMARK    1  A    between atoms: C_8  and  C_9 
REMARK    2  A    between atoms: C_9  and  C_10 
REMARK    3  A    between atoms: C_10  and  N_11 
REMARK    4  A    between atoms: C_10  and  C_19 
REMARK       I    between atoms: N_11  and  C_12 
REMARK    5  A    between atoms: C_12  and  C_13 
REMARK       I    between atoms: C_19  and  N_20 
REMARK    6  A    between atoms: N_20  and  C_21 
ROOT
HETATM    1  C   UNL     1      42.731 -16.303   2.168  1.00  0.00     0.181 C 
ENDROOT
BRANCH   1   2
HETATM    2  C   UNL     1      43.240 -15.297   3.222  1.00  0.00     0.075 C 
BRANCH   2   3
HETATM    3  C   UNL     1      42.763 -15.609   4.610  1.00  0.00    -0.028 A 
HETATM    4  C   UNL     1      43.392 -16.454   5.584  1.00  0.00    -0.002 A 
HETATM    5  C   UNL     1      44.570 -17.229   5.608  1.00  0.00     0.014 A 
HETATM    6  C   UNL     1      42.586 -16.448   6.723  1.00  0.00     0.042 A 
HETATM    7  C   UNL     1      44.885 -17.979   6.748  1.00  0.00     0.001 A 
HETATM    8  C   UNL     1      44.054 -17.956   7.864  1.00  0.00     0.002 A 
HETATM    9  C   UNL     1      42.890 -17.184   7.875  1.00  0.00     0.030 A 
HETATM   10  N   UNL     1      41.521 -15.620   6.462  1.00  0.00    -0.365 N 
HETATM   11  H   UNL     1      40.779 -15.420   7.120  1.00  0.00     0.165 HD
HETATM   12  C   UNL     1      41.615 -15.111   5.197  1.00  0.00     0.096 A 
ENDBRANCH   2   3
ENDBRANCH   1   2
BRANCH   1  13
HETATM   13  N   UNL     1      42.522 -15.712   0.840  1.00  0.00    -0.343 N 
HETATM   14  C   UNL     1      41.298 -15.359   0.322  1.00  0.00     0.259 C 
HETATM   15  O   UNL     1      40.276 -15.481   0.998  1.00  0.00    -0.267 OA
HETATM   16  H   UNL     1      43.344 -15.511   0.282  1.00  0.00     0.163 HD
BRANCH  14  17
HETATM   17  C   UNL     1      41.300 -14.830  -1.034  1.00  0.00     0.072 A 
HETATM   18  S   UNL     1      41.878 -13.257  -1.404  1.00  0.00    -0.097 SA
HETATM   19  C   UNL     1      41.550 -13.448  -3.070  1.00  0.00     0.050 A 
HETATM   20  C   UNL     1      41.011 -14.683  -3.350  1.00  0.00     0.009 A 
HETATM   21  C   UNL     1      40.867 -15.478  -2.176  1.00  0.00     0.025 A 
ENDBRANCH  14  17
ENDBRANCH   1  13
BRANCH   1  22
HETATM   22  C   UNL     1      43.623 -17.559   2.055  1.00  0.00     0.245 C 
HETATM   23  N   UNL     1      43.207 -18.624   2.834  1.00  0.00    -0.324 N 
HETATM   24  H   UNL     1      42.471 -18.425   3.514  1.00  0.00     0.169 HD
HETATM   25  O   UNL     1      44.620 -17.558   1.335  1.00  0.00    -0.271 OA
BRANCH  23  26
HETATM   26  C   UNL     1      43.710 -19.939   2.820  1.00  0.00     0.052 A 
HETATM   27  C   UNL     1      43.555 -20.848   1.777  1.00  0.00     0.145 A 
HETATM   28  N   UNL     1      44.012 -22.128   1.809  1.00  0.00    -0.271 NA
HETATM   29  C   UNL     1      44.655 -22.517   2.928  1.00  0.00     0.116 A 
HETATM   30  C   UNL     1      44.865 -21.690   4.019  1.00  0.00     0.021 A 
HETATM   31  C   UNL     1      44.384 -20.383   3.959  1.00  0.00     0.032 A 
ENDBRANCH  23  26
ENDBRANCH   1  22
TORSDOF 6
ENDMDL
MODEL 2
REMARK VINA RESULT:      -8.4      2.472      6.498
REMARK  6 active torsions:
REMARK  status: ('A' for Active; 'I' for Inactive)
REMARK    1  A    between atoms: C_8  and  C_9 
REMARK    2  A    between atoms: C_9  and  C_10 
REMARK    3  A    between atoms: C_10  and  N_11 
REMARK    4  A    between atoms: C_10  and  C_19 
REMARK       I    between atoms: N_11  and  C_12 
REMARK    5  A    between atoms: C_12  and  C_13 
REMARK       I    between atoms: C_19  and  N_20 
REMARK    6  A    between atoms: N_20  and  C_21 
ROOT
HETATM    1  C   UNL     1      41.965 -16.681   2.879  1.00  0.00     0.181 C 
ENDROOT
BRANCH   1   2
HETATM    2  C   UNL     1      43.476 -16.966   2.747  1.00  0.00     0.075 C 
BRANCH   2   3
HETATM    3  C   UNL     1      43.922 -18.154   3.547  1.00  0.00    -0.028 A 
HETATM    4  C   UNL     1      44.030 -19.515   3.107  1.00  0.00    -0.002 A 
HETATM    5  C   UNL     1      43.786 -20.185   1.891  1.00  0.00     0.014 A 
HETATM    6  C   UNL     1      44.478 -20.269   4.193  1.00  0.00     0.042 A 
HETATM    7  C   UNL     1      43.976 -21.570   1.810  1.00  0.00     0.001 A 
HETATM    8  C   UNL     1      44.417 -22.291   2.915  1.00  0.00     0.002 A 
HETATM    9  C   UNL     1      44.683 -21.652   4.128  1.00  0.00     0.030 A 
HETATM   10  N   UNL     1      44.654 -19.401   5.245  1.00  0.00    -0.365 N 
HETATM   11  H   UNL     1      44.985 -19.674   6.160  1.00  0.00     0.165 HD
HETATM   12  C   UNL     1      44.322 -18.129   4.870  1.00  0.00     0.096 A 
ENDBRANCH   2   3
ENDBRANCH   1   2
BRANCH   1  13
HETATM   13  N   UNL     1      41.657 -15.461   3.637  1.00  0.00    -0.343 N 
HETATM   14  C   UNL     1      41.235 -15.436   4.946  1.00  0.00     0.259 C 
HETATM   15  O   UNL     1      41.138 -16.481   5.589  1.00  0.00    -0.267 OA
HETATM   16  H   UNL     1      41.808 -14.572   3.175  1.00  0.00     0.163 HD
BRANCH  14  17
HETATM   17  C   UNL     1      40.939 -14.124   5.502  1.00  0.00     0.072 A 
HETATM   18  S   UNL     1      42.156 -12.942   5.764  1.00  0.00    -0.097 SA
HETATM   19  C   UNL     1      41.030 -11.812   6.374  1.00  0.00     0.050 A 
HETATM   20  C   UNL     1      39.748 -12.314   6.383  1.00  0.00     0.009 A 
HETATM   21  C   UNL     1      39.697 -13.647   5.881  1.00  0.00     0.025 A 
ENDBRANCH  14  17
ENDBRANCH   1  13
BRANCH   1  22
HETATM   22  C   UNL     1      41.235 -16.657   1.517  1.00  0.00     0.245 C 
HETATM   23  N   UNL     1      41.126 -15.398   0.952  1.00  0.00    -0.324 N 
HETATM   24  H   UNL     1      41.382 -14.611   1.551  1.00  0.00     0.169 HD
HETATM   25  O   UNL     1      40.788 -17.692   1.027  1.00  0.00    -0.271 OA
BRANCH  23  26
HETATM   26  C   UNL     1      40.667 -15.081  -0.340  1.00  0.00     0.052 A 
HETATM   27  C   UNL     1      39.638 -14.191  -0.632  1.00  0.00     0.145 A 
HETATM   28  N   UNL     1      39.184 -13.937  -1.888  1.00  0.00    -0.271 NA
HETATM   29  C   UNL     1      39.787 -14.596  -2.898  1.00  0.00     0.116 A 
HETATM   30  C   UNL     1      40.822 -15.497  -2.715  1.00  0.00     0.021 A 
HETATM   31  C   UNL     1      41.265 -15.739  -1.416  1.00  0.00     0.032 A 
ENDBRANCH  23  26
ENDBRANCH   1  22
TORSDOF 6
ENDMDL
MODEL 3
REMARK VINA RESULT:      -8.3      3.026      5.953
REMARK  6 active torsions:
REMARK  status: ('A' for Active; 'I' for Inactive)
REMARK    1  A    between atoms: C_8  and  C_9 
REMARK    2  A    between atoms: C_9  and  C_10 
REMARK    3  A    between atoms: C_10  and  N_11 
REMARK    4  A    between atoms: C_10  and  C_19 
REMARK       I    between atoms: N_11  and  C_12 
REMARK    5  A    between atoms: C_12  and  C_13 
REMARK       I    between atoms: C_19  and  N_20 
REMARK    6  A    between atoms: N_20  and  C_21 
ROOT
HETATM    1  C   UNL     1      42.898 -15.627   4.268  1.00  0.00     0.181 C 
ENDROOT
BRANCH   1   2
HETATM    2  C   UNL     1      42.613 -16.762   5.274  1.00  0.00     0.075 C 
BRANCH   2   3
HETATM    3  C   UNL     1      43.499 -17.957   5.079  1.00  0.00    -0.028 A 
HETATM    4  C   UNL     1      43.533 -18.850   3.957  1.00  0.00    -0.002 A 
HETATM    5  C   UNL     1      42.824 -18.938   2.741  1.00  0.00     0.014 A 
HETATM    6  C   UNL     1      44.508 -19.812   4.219  1.00  0.00     0.042 A 
HETATM    7  C   UNL     1      43.098 -19.984   1.852  1.00  0.00     0.001 A 
HETATM    8  C   UNL     1      44.073 -20.931   2.149  1.00  0.00     0.002 A 
HETATM    9  C   UNL     1      44.802 -20.859   3.338  1.00  0.00     0.030 A 
HETATM   10  N   UNL     1      45.060 -19.508   5.441  1.00  0.00    -0.365 N 
HETATM   11  H   UNL     1      45.804 -20.035   5.879  1.00  0.00     0.165 HD
HETATM   12  C   UNL     1      44.462 -18.397   5.968  1.00  0.00     0.096 A 
ENDBRANCH   2   3
ENDBRANCH   1   2
BRANCH   1  13
HETATM   13  N   UNL     1      41.728 -15.233   3.473  1.00  0.00    -0.343 N 
HETATM   14  C   UNL     1      41.652 -15.305   2.101  1.00  0.00     0.259 C 
HETATM   15  O   UNL     1      42.587 -15.770   1.448  1.00  0.00    -0.267 OA
HETATM   16  H   UNL     1      40.903 -14.928   3.974  1.00  0.00     0.163 HD
BRANCH  14  17
HETATM   17  C   UNL     1      40.418 -14.822   1.499  1.00  0.00     0.072 A 
HETATM   18  S   UNL     1      40.402 -13.899   0.052  1.00  0.00    -0.097 SA
HETATM   19  C   UNL     1      38.699 -13.777   0.061  1.00  0.00     0.050 A 
HETATM   20  C   UNL     1      38.141 -14.424   1.140  1.00  0.00     0.009 A 
HETATM   21  C   UNL     1      39.133 -15.025   1.969  1.00  0.00     0.025 A 
ENDBRANCH  14  17
ENDBRANCH   1  13
BRANCH   1  22
HETATM   22  C   UNL     1      43.533 -14.383   4.929  1.00  0.00     0.245 C 
HETATM   23  N   UNL     1      44.031 -14.606   6.200  1.00  0.00    -0.324 N 
HETATM   24  H   UNL     1      43.787 -15.500   6.630  1.00  0.00     0.169 HD
HETATM   25  O   UNL     1      43.552 -13.302   4.343  1.00  0.00    -0.271 OA
BRANCH  23  26
HETATM   26  C   UNL     1      44.803 -13.724   6.980  1.00  0.00     0.052 A 
HETATM   27  C   UNL     1      46.121 -13.363   6.718  1.00  0.00     0.145 A 
HETATM   28  N   UNL     1      46.859 -12.545   7.515  1.00  0.00    -0.271 NA
HETATM   29  C   UNL     1      46.254 -12.061   8.619  1.00  0.00     0.116 A 
HETATM   30  C   UNL     1      44.947 -12.356   8.967  1.00  0.00     0.021 A 
HETATM   31  C   UNL     1      44.215 -13.199   8.133  1.00  0.00     0.032 A 
ENDBRANCH  23  26
ENDBRANCH   1  22
TORSDOF 6
ENDMDL
MODEL 4
REMARK VINA RESULT:      -8.0      1.567      2.065
REMARK  6 active torsions:
REMARK  status: ('A' for Active; 'I' for Inactive)
REMARK    1  A    between atoms: C_8  and  C_9 
REMARK    2  A    between atoms: C_9  and  C_10 
REMARK    3  A    between atoms: C_10  and  N_11 
REMARK    4  A    between atoms: C_10  and  C_19 
REMARK       I    between atoms: N_11  and  C_12 
REMARK    5  A    between atoms: C_12  and  C_13 
REMARK       I    between atoms: C_19  and  N_20 
REMARK    6  A    between atoms: N_20  and  C_21 
ROOT
HETATM    1  C   UNL     1      41.625 -15.936   1.815  1.00  0.00     0.181 C 
ENDROOT
BRANCH   1   2
HETATM    2  C   UNL     1      41.088 -15.282   3.106  1.00  0.00     0.075 C 
BRANCH   2   3
HETATM    3  C   UNL     1      42.168 -14.963   4.097  1.00  0.00    -0.028 A 
HETATM    4  C   UNL     1      42.479 -15.662   5.309  1.00  0.00    -0.002 A 
HETATM    5  C   UNL     1      41.949 -16.793   5.964  1.00  0.00     0.014 A 
HETATM    6  C   UNL     1      43.554 -15.002   5.907  1.00  0.00     0.042 A 
HETATM    7  C   UNL     1      42.491 -17.206   7.187  1.00  0.00     0.001 A 
HETATM    8  C   UNL     1      43.558 -16.520   7.758  1.00  0.00     0.002 A 
HETATM    9  C   UNL     1      44.115 -15.407   7.124  1.00  0.00     0.030 A 
HETATM   10  N   UNL     1      43.897 -13.956   5.083  1.00  0.00    -0.365 N 
HETATM   11  H   UNL     1      44.655 -13.312   5.264  1.00  0.00     0.165 HD
HETATM   12  C   UNL     1      43.072 -13.921   3.994  1.00  0.00     0.096 A 
ENDBRANCH   2   3
ENDBRANCH   1   2
BRANCH   1  13
HETATM   13  N   UNL     1      42.006 -14.970   0.777  1.00  0.00    -0.343 N 
HETATM   14  C   UNL     1      41.129 -14.368  -0.095  1.00  0.00     0.259 C 
HETATM   15  O   UNL     1      39.919 -14.583  -0.010  1.00  0.00    -0.267 OA
HETATM   16  H   UNL     1      42.980 -14.695   0.728  1.00  0.00     0.163 HD
BRANCH  14  17
HETATM   17  C   UNL     1      41.714 -13.473  -1.082  1.00  0.00     0.072 A 
HETATM   18  S   UNL     1      41.651 -13.796  -2.766  1.00  0.00    -0.097 SA
HETATM   19  C   UNL     1      42.494 -12.361  -3.149  1.00  0.00     0.050 A 
HETATM   20  C   UNL     1      42.822 -11.640  -2.023  1.00  0.00     0.009 A 
HETATM   21  C   UNL     1      42.373 -12.283  -0.832  1.00  0.00     0.025 A 
ENDBRANCH  14  17
ENDBRANCH   1  13
BRANCH   1  22
HETATM   22  C   UNL     1      42.788 -16.919   2.078  1.00  0.00     0.245 C 
HETATM   23  N   UNL     1      42.404 -18.110   2.668  1.00  0.00    -0.324 N 
HETATM   24  H   UNL     1      41.444 -18.153   3.014  1.00  0.00     0.169 HD
HETATM   25  O   UNL     1      43.944 -16.614   1.789  1.00  0.00    -0.271 OA
BRANCH  23  26
HETATM   26  C   UNL     1      43.199 -19.253   2.876  1.00  0.00     0.052 A 
HETATM   27  C   UNL     1      44.002 -19.482   3.990  1.00  0.00     0.145 A 
HETATM   28  N   UNL     1      44.795 -20.575   4.144  1.00  0.00    -0.271 NA
HETATM   29  C   UNL     1      44.784 -21.482   3.146  1.00  0.00     0.116 A 
HETATM   30  C   UNL     1      44.018 -21.351   2.000  1.00  0.00     0.021 A 
HETATM   31  C   UNL     1      43.215 -20.219   1.868  1.00  0.00     0.032 A 
ENDBRANCH  23  26
ENDBRANCH   1  22
TORSDOF 6
ENDMDL
MODEL 5
REMARK VINA RESULT:      -7.9      1.672      3.190
REMARK  6 active torsions:
REMARK  status: ('A' for Active; 'I' for Inactive)
REMARK    1  A    between atoms: C_8  and  C_9 
REMARK    2  A    between atoms: C_9  and  C_10 
REMARK    3  A    between atoms: C_10  and  N_11 
REMARK    4  A    between atoms: C_10  and  C_19 
REMARK       I    between atoms: N_11  and  C_12 
REMARK    5  A    between atoms: C_12  and  C_13 
REMARK       I    between atoms: C_19  and  N_20 
REMARK    6  A    between atoms: N_20  and  C_21 
ROOT
HETATM    1  C   UNL     1      42.707 -15.935   2.163  1.00  0.00     0.181 C 
ENDROOT
BRANCH   1   2
HETATM    2  C   UNL     1      43.221 -14.936   3.220  1.00  0.00     0.075 C 
BRANCH   2   3
HETATM    3  C   UNL     1      42.232 -14.684   4.320  1.00  0.00    -0.028 A 
HETATM    4  C   UNL     1      41.183 -13.706   4.348  1.00  0.00    -0.002 A 
HETATM    5  C   UNL     1      40.728 -12.717   3.453  1.00  0.00     0.014 A 
HETATM    6  C   UNL     1      40.525 -13.837   5.572  1.00  0.00     0.042 A 
HETATM    7  C   UNL     1      39.659 -11.889   3.817  1.00  0.00     0.001 A 
HETATM    8  C   UNL     1      39.031 -12.041   5.049  1.00  0.00     0.002 A 
HETATM    9  C   UNL     1      39.449 -13.024   5.949  1.00  0.00     0.030 A 
HETATM   10  N   UNL     1      41.135 -14.863   6.254  1.00  0.00    -0.365 N 
HETATM   11  H   UNL     1      40.855 -15.185   7.170  1.00  0.00     0.165 HD
HETATM   12  C   UNL     1      42.162 -15.379   5.513  1.00  0.00     0.096 A 
ENDBRANCH   2   3
ENDBRANCH   1   2
BRANCH   1  13
HETATM   13  N   UNL     1      42.550 -15.351   0.825  1.00  0.00    -0.343 N 
HETATM   14  C   UNL     1      41.346 -15.001   0.257  1.00  0.00     0.259 C 
HETATM   15  O   UNL     1      40.299 -15.121   0.894  1.00  0.00    -0.267 OA
HETATM   16  H   UNL     1      43.392 -15.152   0.298  1.00  0.00     0.163 HD
BRANCH  14  17
HETATM   17  C   UNL     1      41.401 -14.479  -1.100  1.00  0.00     0.072 A 
HETATM   18  S   UNL     1      40.726 -15.320  -2.435  1.00  0.00    -0.097 SA
HETATM   19  C   UNL     1      41.192 -14.098  -3.535  1.00  0.00     0.050 A 
HETATM   20  C   UNL     1      41.850 -13.064  -2.908  1.00  0.00     0.009 A 
HETATM   21  C   UNL     1      41.971 -13.285  -1.504  1.00  0.00     0.025 A 
ENDBRANCH  14  17
ENDBRANCH   1  13
BRANCH   1  22
HETATM   22  C   UNL     1      43.561 -17.220   2.083  1.00  0.00     0.245 C 
HETATM   23  N   UNL     1      43.149 -18.230   2.934  1.00  0.00    -0.324 N 
HETATM   24  H   UNL     1      42.446 -17.976   3.630  1.00  0.00     0.169 HD
HETATM   25  O   UNL     1      44.529 -17.285   1.327  1.00  0.00    -0.271 OA
BRANCH  23  26
HETATM   26  C   UNL     1      43.617 -19.557   2.971  1.00  0.00     0.052 A 
HETATM   27  C   UNL     1      44.395 -20.108   3.985  1.00  0.00     0.145 A 
HETATM   28  N   UNL     1      44.872 -21.381   3.973  1.00  0.00    -0.271 NA
HETATM   29  C   UNL     1      44.555 -22.140   2.904  1.00  0.00     0.116 A 
HETATM   30  C   UNL     1      43.785 -21.690   1.846  1.00  0.00     0.021 A 
HETATM   31  C   UNL     1      43.311 -20.379   1.884  1.00  0.00     0.032 A 
ENDBRANCH  23  26
ENDBRANCH   1  22
TORSDOF 6
ENDMDL
MODEL 6
REMARK VINA RESULT:      -7.9      3.009      6.870
REMARK  6 active torsions:
REMARK  status: ('A' for Active; 'I' for Inactive)
REMARK    1  A    between atoms: C_8  and  C_9 
REMARK    2  A    between atoms: C_9  and  C_10 
REMARK    3  A    between atoms: C_10  and  N_11 
REMARK    4  A    between atoms: C_10  and  C_19 
REMARK       I    between atoms: N_11  and  C_12 
REMARK    5  A    between atoms: C_12  and  C_13 
REMARK       I    between atoms: C_19  and  N_20 
REMARK    6  A    between atoms: N_20  and  C_21 
ROOT
HETATM    1  C   UNL     1      41.747 -16.681   3.621  1.00  0.00     0.181 C 
ENDROOT
BRANCH   1   2
HETATM    2  C   UNL     1      41.208 -16.331   5.023  1.00  0.00     0.075 C 
BRANCH   2   3
HETATM    3  C   UNL     1      41.663 -14.985   5.509  1.00  0.00    -0.028 A 
HETATM    4  C   UNL     1      40.905 -13.769   5.559  1.00  0.00    -0.002 A 
HETATM    5  C   UNL     1      39.587 -13.410   5.210  1.00  0.00     0.014 A 
HETATM    6  C   UNL     1      41.741 -12.779   6.076  1.00  0.00     0.042 A 
HETATM    7  C   UNL     1      39.163 -12.085   5.369  1.00  0.00     0.001 A 
HETATM    8  C   UNL     1      40.026 -11.120   5.881  1.00  0.00     0.002 A 
HETATM    9  C   UNL     1      41.332 -11.451   6.251  1.00  0.00     0.030 A 
HETATM   10  N   UNL     1      42.952 -13.370   6.348  1.00  0.00    -0.365 N 
HETATM   11  H   UNL     1      43.747 -12.887   6.743  1.00  0.00     0.165 HD
HETATM   12  C   UNL     1      42.918 -14.694   6.011  1.00  0.00     0.096 A 
ENDBRANCH   2   3
ENDBRANCH   1   2
BRANCH   1  13
HETATM   13  N   UNL     1      42.323 -18.029   3.529  1.00  0.00    -0.343 N 
HETATM   14  C   UNL     1      43.475 -18.346   2.847  1.00  0.00     0.259 C 
HETATM   15  O   UNL     1      44.136 -17.464   2.298  1.00  0.00    -0.267 OA
HETATM   16  H   UNL     1      41.860 -18.772   4.040  1.00  0.00     0.163 HD
BRANCH  14  17
HETATM   17  C   UNL     1      43.853 -19.751   2.840  1.00  0.00     0.072 A 
HETATM   18  S   UNL     1      44.683 -20.486   4.150  1.00  0.00    -0.097 SA
HETATM   19  C   UNL     1      44.714 -22.007   3.374  1.00  0.00     0.050 A 
HETATM   20  C   UNL     1      44.106 -21.969   2.140  1.00  0.00     0.009 A 
HETATM   21  C   UNL     1      43.611 -20.667   1.832  1.00  0.00     0.025 A 
ENDBRANCH  14  17
ENDBRANCH   1  13
BRANCH   1  22
HETATM   22  C   UNL     1      40.700 -16.475   2.504  1.00  0.00     0.245 C 
HETATM   23  N   UNL     1      40.450 -15.149   2.197  1.00  0.00    -0.324 N 
HETATM   24  H   UNL     1      40.846 -14.456   2.834  1.00  0.00     0.169 HD
HETATM   25  O   UNL     1      40.147 -17.438   1.977  1.00  0.00    -0.271 OA
BRANCH  23  26
HETATM   26  C   UNL     1      39.682 -14.652   1.127  1.00  0.00     0.052 A 
HETATM   27  C   UNL     1      40.168 -14.360  -0.145  1.00  0.00     0.145 A 
HETATM   28  N   UNL     1      39.412 -13.837  -1.146  1.00  0.00    -0.271 NA
HETATM   29  C   UNL     1      38.114 -13.599  -0.870  1.00  0.00     0.116 A 
HETATM   30  C   UNL     1      37.533 -13.857   0.360  1.00  0.00     0.021 A 
HETATM   31  C   UNL     1      38.332 -14.392   1.369  1.00  0.00     0.032 A 
ENDBRANCH  23  26
ENDBRANCH   1  22
TORSDOF 6
ENDMDL
MODEL 7
REMARK VINA RESULT:      -7.8      2.683      6.214
REMARK  6 active torsions:
REMARK  status: ('A' for Active; 'I' for Inactive)
REMARK    1  A    between atoms: C_8  and  C_9 
REMARK    2  A    between atoms: C_9  and  C_10 
REMARK    3  A    between atoms: C_10  and  N_11 
REMARK    4  A    between atoms: C_10  and  C_19 
REMARK       I    between atoms: N_11  and  C_12 
REMARK    5  A    between atoms: C_12  and  C_13 
REMARK       I    between atoms: C_19  and  N_20 
REMARK    6  A    between atoms: N_20  and  C_21 
ROOT
HETATM    1  C   UNL     1      41.982 -15.644   3.657  1.00  0.00     0.181 C 
ENDROOT
BRANCH   1   2
HETATM    2  C   UNL     1      41.506 -16.982   4.261  1.00  0.00     0.075 C 
BRANCH   2   3
HETATM    3  C   UNL     1      42.634 -17.924   4.565  1.00  0.00    -0.028 A 
HETATM    4  C   UNL     1      43.196 -18.924   3.704  1.00  0.00    -0.002 A 
HETATM    5  C   UNL     1      42.934 -19.358   2.389  1.00  0.00     0.014 A 
HETATM    6  C   UNL     1      44.217 -19.557   4.414  1.00  0.00     0.042 A 
HETATM    7  C   UNL     1      43.678 -20.412   1.844  1.00  0.00     0.001 A 
HETATM    8  C   UNL     1      44.684 -21.026   2.583  1.00  0.00     0.002 A 
HETATM    9  C   UNL     1      44.978 -20.606   3.882  1.00  0.00     0.030 A 
HETATM   10  N   UNL     1      44.288 -18.956   5.648  1.00  0.00    -0.365 N 
HETATM   11  H   UNL     1      44.950 -19.208   6.369  1.00  0.00     0.165 HD
HETATM   12  C   UNL     1      43.342 -17.974   5.751  1.00  0.00     0.096 A 
ENDBRANCH   2   3
ENDBRANCH   1   2
BRANCH   1  13
HETATM   13  N   UNL     1      41.264 -15.257   2.436  1.00  0.00    -0.343 N 
HETATM   14  C   UNL     1      41.683 -15.540   1.156  1.00  0.00     0.259 C 
HETATM   15  O   UNL     1      42.702 -16.204   0.967  1.00  0.00    -0.267 OA
HETATM   16  H   UNL     1      40.374 -14.786   2.545  1.00  0.00     0.163 HD
BRANCH  14  17
HETATM   17  C   UNL     1      40.850 -15.028   0.078  1.00  0.00     0.072 A 
HETATM   18  S   UNL     1      39.484 -14.030   0.368  1.00  0.00    -0.097 SA
HETATM   19  C   UNL     1      39.134 -13.898  -1.298  1.00  0.00     0.050 A 
HETATM   20  C   UNL     1      40.034 -14.597  -2.071  1.00  0.00     0.009 A 
HETATM   21  C   UNL     1      41.022 -15.249  -1.276  1.00  0.00     0.025 A 
ENDBRANCH  14  17
ENDBRANCH   1  13
BRANCH   1  22
HETATM   22  C   UNL     1      41.959 -14.482   4.676  1.00  0.00     0.245 C 
HETATM   23  N   UNL     1      40.894 -13.613   4.523  1.00  0.00    -0.324 N 
HETATM   24  H   UNL     1      40.337 -13.725   3.674  1.00  0.00     0.169 HD
HETATM   25  O   UNL     1      42.847 -14.369   5.519  1.00  0.00    -0.271 OA
BRANCH  23  26
HETATM   26  C   UNL     1      40.514 -12.569   5.388  1.00  0.00     0.052 A 
HETATM   27  C   UNL     1      39.569 -12.670   6.405  1.00  0.00     0.145 A 
HETATM   28  N   UNL     1      39.189 -11.632   7.196  1.00  0.00    -0.271 NA
HETATM   29  C   UNL     1      39.779 -10.442   6.966  1.00  0.00     0.116 A 
HETATM   30  C   UNL     1      40.733 -10.237   5.984  1.00  0.00     0.021 A 
HETATM   31  C   UNL     1      41.103 -11.319   5.186  1.00  0.00     0.032 A 
ENDBRANCH  23  26
ENDBRANCH   1  22
TORSDOF 6
ENDMDL
MODEL 8
REMARK VINA RESULT:      -7.7      2.422      6.118
REMARK  6 active torsions:
REMARK  status: ('A' for Active; 'I' for Inactive)
REMARK    1  A    between atoms: C_8  and  C_9 
REMARK    2  A    between atoms: C_9  and  C_10 
REMARK    3  A    between atoms: C_10  and  N_11 
REMARK    4  A    between atoms: C_10  and  C_19 
REMARK       I    between atoms: N_11  and  C_12 
REMARK    5  A    between atoms: C_12  and  C_13 
REMARK       I    between atoms: C_19  and  N_20 
REMARK    6  A    between atoms: N_20  and  C_21 
ROOT
HETATM    1  C   UNL     1      41.555 -15.459   2.350  1.00  0.00     0.181 C 
ENDROOT
BRANCH   1   2
HETATM    2  C   UNL     1      41.288 -16.960   2.585  1.00  0.00     0.075 C 
BRANCH   2   3
HETATM    3  C   UNL     1      42.419 -17.656   3.285  1.00  0.00    -0.028 A 
HETATM    4  C   UNL     1      43.049 -18.891   2.917  1.00  0.00    -0.002 A 
HETATM    5  C   UNL     1      42.870 -19.821   1.873  1.00  0.00     0.014 A 
HETATM    6  C   UNL     1      44.044 -19.147   3.862  1.00  0.00     0.042 A 
HETATM    7  C   UNL     1      43.666 -20.972   1.824  1.00  0.00     0.001 A 
HETATM    8  C   UNL     1      44.644 -21.200   2.787  1.00  0.00     0.002 A 
HETATM    9  C   UNL     1      44.856 -20.287   3.823  1.00  0.00     0.030 A 
HETATM   10  N   UNL     1      44.033 -18.104   4.757  1.00  0.00    -0.365 N 
HETATM   11  H   UNL     1      44.660 -18.022   5.545  1.00  0.00     0.165 HD
HETATM   12  C   UNL     1      43.061 -17.202   4.422  1.00  0.00     0.096 A 
ENDBRANCH   2   3
ENDBRANCH   1   2
BRANCH   1  13
HETATM   13  N   UNL     1      41.547 -15.071   0.934  1.00  0.00    -0.343 N 
HETATM   14  C   UNL     1      41.945 -13.845   0.453  1.00  0.00     0.259 C 
HETATM   15  O   UNL     1      42.395 -12.992   1.219  1.00  0.00    -0.267 OA
HETATM   16  H   UNL     1      41.267 -15.772   0.258  1.00  0.00     0.163 HD
BRANCH  14  17
HETATM   17  C   UNL     1      41.817 -13.643  -0.982  1.00  0.00     0.072 A 
HETATM   18  S   UNL     1      40.897 -14.696  -1.978  1.00  0.00    -0.097 SA
HETATM   19  C   UNL     1      41.252 -13.795  -3.385  1.00  0.00     0.050 A 
HETATM   20  C   UNL     1      42.054 -12.710  -3.114  1.00  0.00     0.009 A 
HETATM   21  C   UNL     1      42.380 -12.624  -1.728  1.00  0.00     0.025 A 
ENDBRANCH  14  17
ENDBRANCH   1  13
BRANCH   1  22
HETATM   22  C   UNL     1      40.604 -14.545   3.156  1.00  0.00     0.245 C 
HETATM   23  N   UNL     1      41.237 -13.764   4.106  1.00  0.00    -0.324 N 
HETATM   24  H   UNL     1      42.218 -13.984   4.292  1.00  0.00     0.169 HD
HETATM   25  O   UNL     1      39.393 -14.561   2.948  1.00  0.00    -0.271 OA
BRANCH  23  26
HETATM   26  C   UNL     1      40.671 -12.727   4.871  1.00  0.00     0.052 A 
HETATM   27  C   UNL     1      39.773 -12.899   5.920  1.00  0.00     0.145 A 
HETATM   28  N   UNL     1      39.206 -11.876   6.613  1.00  0.00    -0.271 NA
HETATM   29  C   UNL     1      39.554 -10.625   6.247  1.00  0.00     0.116 A 
HETATM   30  C   UNL     1      40.441 -10.347   5.221  1.00  0.00     0.021 A 
HETATM   31  C   UNL     1      41.005 -11.415   4.527  1.00  0.00     0.032 A 
ENDBRANCH  23  26
ENDBRANCH   1  22
TORSDOF 6
ENDMDL
MODEL 9
REMARK VINA RESULT:      -7.5      2.116      6.085
REMARK  6 active torsions:
REMARK  status: ('A' for Active; 'I' for Inactive)
REMARK    1  A    between atoms: C_8  and  C_9 
REMARK    2  A    between atoms: C_9  and  C_10 
REMARK    3  A    between atoms: C_10  and  N_11 
REMARK    4  A    between atoms: C_10  and  C_19 
REMARK       I    between atoms: N_11  and  C_12 
REMARK    5  A    between atoms: C_12  and  C_13 
REMARK       I    between atoms: C_19  and  N_20 
REMARK    6  A    between atoms: N_20  and  C_21 
ROOT
HETATM    1  C   UNL     1      42.468 -15.726   2.080  1.00  0.00     0.181 C 
ENDROOT
BRANCH   1   2
HETATM    2  C   UNL     1      42.120 -14.744   3.217  1.00  0.00     0.075 C 
BRANCH   2   3
HETATM    3  C   UNL     1      41.719 -15.434   4.488  1.00  0.00    -0.028 A 
HETATM    4  C   UNL     1      42.578 -16.025   5.472  1.00  0.00    -0.002 A 
HETATM    5  C   UNL     1      43.974 -16.170   5.609  1.00  0.00     0.014 A 
HETATM    6  C   UNL     1      41.762 -16.552   6.474  1.00  0.00     0.042 A 
HETATM    7  C   UNL     1      44.497 -16.846   6.718  1.00  0.00     0.001 A 
HETATM    8  C   UNL     1      43.653 -17.365   7.695  1.00  0.00     0.002 A 
HETATM    9  C   UNL     1      42.268 -17.223   7.595  1.00  0.00     0.030 A 
HETATM   10  N   UNL     1      40.461 -16.276   6.126  1.00  0.00    -0.365 N 
HETATM   11  H   UNL     1      39.655 -16.534   6.679  1.00  0.00     0.165 HD
HETATM   12  C   UNL     1      40.422 -15.606   4.935  1.00  0.00     0.096 A 
ENDBRANCH   2   3
ENDBRANCH   1   2
BRANCH   1  13
HETATM   13  N   UNL     1      42.853 -17.063   2.551  1.00  0.00    -0.343 N 
HETATM   14  C   UNL     1      43.902 -17.799   2.051  1.00  0.00     0.259 C 
HETATM   15  O   UNL     1      44.633 -17.330   1.178  1.00  0.00    -0.267 OA
HETATM   16  H   UNL     1      42.334 -17.453   3.329  1.00  0.00     0.163 HD
BRANCH  14  17
HETATM   17  C   UNL     1      44.090 -19.124   2.624  1.00  0.00     0.072 A 
HETATM   18  S   UNL     1      43.668 -20.557   1.780  1.00  0.00    -0.097 SA
HETATM   19  C   UNL     1      44.183 -21.555   3.067  1.00  0.00     0.050 A 
HETATM   20  C   UNL     1      44.669 -20.822   4.125  1.00  0.00     0.009 A 
HETATM   21  C   UNL     1      44.614 -19.420   3.869  1.00  0.00     0.025 A 
ENDBRANCH  14  17
ENDBRANCH   1  13
BRANCH   1  22
HETATM   22  C   UNL     1      41.351 -15.839   1.018  1.00  0.00     0.245 C 
HETATM   23  N   UNL     1      41.510 -14.994  -0.066  1.00  0.00    -0.324 N 
HETATM   24  H   UNL     1      42.237 -14.282   0.020  1.00  0.00     0.169 HD
HETATM   25  O   UNL     1      40.410 -16.615   1.177  1.00  0.00    -0.271 OA
BRANCH  23  26
HETATM   26  C   UNL     1      40.757 -14.984  -1.256  1.00  0.00     0.052 A 
HETATM   27  C   UNL     1      41.074 -15.688  -2.414  1.00  0.00     0.145 A 
HETATM   28  N   UNL     1      40.354 -15.623  -3.565  1.00  0.00    -0.271 NA
HETATM   29  C   UNL     1      39.267 -14.825  -3.560  1.00  0.00     0.116 A 
HETATM   30  C   UNL     1      38.864 -14.087  -2.460  1.00  0.00     0.021 A 
HETATM   31  C   UNL     1      39.623 -14.171  -1.294  1.00  0.00     0.032 A 
ENDBRANCH  23  26
ENDBRANCH   1  22
TORSDOF 6
ENDMDL
MODEL 10
REMARK VINA RESULT:      -7.5      3.815      7.550
REMARK  6 active torsions:
REMARK  status: ('A' for Active; 'I' for Inactive)
REMARK    1  A    between atoms: C_8  and  C_9 
REMARK    2  A    between atoms: C_9  and  C_10 
REMARK    3  A    between atoms: C_10  and  N_11 
REMARK    4  A    between atoms: C_10  and  C_19 
REMARK       I    between atoms: N_11  and  C_12 
REMARK    5  A    between atoms: C_12  and  C_13 
REMARK       I    between atoms: C_19  and  N_20 
REMARK    6  A    between atoms: N_20  and  C_21 
ROOT
HETATM    1  C   UNL     1      42.674 -15.675   6.170  1.00  0.00     0.181 C 
ENDROOT
BRANCH   1   2
HETATM    2  C   UNL     1      41.625 -14.732   5.545  1.00  0.00     0.075 C 
BRANCH   2   3
HETATM    3  C   UNL     1      41.934 -14.369   4.122  1.00  0.00    -0.028 A 
HETATM    4  C   UNL     1      41.493 -15.038   2.932  1.00  0.00    -0.002 A 
HETATM    5  C   UNL     1      40.689 -16.166   2.671  1.00  0.00     0.014 A 
HETATM    6  C   UNL     1      42.033 -14.350   1.844  1.00  0.00     0.042 A 
HETATM    7  C   UNL     1      40.473 -16.575   1.350  1.00  0.00     0.001 A 
HETATM    8  C   UNL     1      41.033 -15.870   0.289  1.00  0.00     0.002 A 
HETATM    9  C   UNL     1      41.819 -14.739   0.516  1.00  0.00     0.030 A 
HETATM   10  N   UNL     1      42.756 -13.296   2.348  1.00  0.00    -0.365 N 
HETATM   11  H   UNL     1      43.250 -12.620   1.781  1.00  0.00     0.165 HD
HETATM   12  C   UNL     1      42.706 -13.297   3.714  1.00  0.00     0.096 A 
ENDBRANCH   2   3
ENDBRANCH   1   2
BRANCH   1  13
HETATM   13  N   UNL     1      43.189 -16.687   5.238  1.00  0.00    -0.343 N 
HETATM   14  C   UNL     1      42.617 -17.920   5.023  1.00  0.00     0.259 C 
HETATM   15  O   UNL     1      41.570 -18.228   5.592  1.00  0.00    -0.267 OA
HETATM   16  H   UNL     1      44.000 -16.442   4.682  1.00  0.00     0.163 HD
BRANCH  14  17
HETATM   17  C   UNL     1      43.309 -18.797   4.090  1.00  0.00     0.072 A 
HETATM   18  S   UNL     1      44.568 -19.853   4.585  1.00  0.00    -0.097 SA
HETATM   19  C   UNL     1      44.785 -20.456   3.001  1.00  0.00     0.050 A 
HETATM   20  C   UNL     1      43.920 -19.871   2.104  1.00  0.00     0.009 A 
HETATM   21  C   UNL     1      43.070 -18.914   2.733  1.00  0.00     0.025 A 
ENDBRANCH  14  17
ENDBRANCH   1  13
BRANCH   1  22
HETATM   22  C   UNL     1      43.848 -14.918   6.831  1.00  0.00     0.245 C 
HETATM   23  N   UNL     1      43.550 -13.618   7.199  1.00  0.00    -0.324 N 
HETATM   24  H   UNL     1      42.663 -13.243   6.856  1.00  0.00     0.169 HD
HETATM   25  O   UNL     1      44.941 -15.461   6.979  1.00  0.00    -0.271 OA
BRANCH  23  26
HETATM   26  C   UNL     1      44.348 -12.744   7.961  1.00  0.00     0.052 A 
HETATM   27  C   UNL     1      43.868 -11.770   8.831  1.00  0.00     0.145 A 
HETATM   28  N   UNL     1      44.661 -10.907   9.521  1.00  0.00    -0.271 NA
HETATM   29  C   UNL     1      45.992 -11.024   9.337  1.00  0.00     0.116 A 
HETATM   30  C   UNL     1      46.570 -11.961   8.499  1.00  0.00     0.021 A 
HETATM   31  C   UNL     1      45.732 -12.832   7.803  1.00  0.00     0.032 A 
ENDBRANCH  23  26
ENDBRANCH   1  22
TORSDOF 6
ENDMDL
