MODEL 1
REMARK VINA RESULT:      -9.1      0.000      0.000
REMARK  3 active torsions:
REMARK  status: ('A' for Active; 'I' for Inactive)
REMARK    1  A    between atoms: O_2  and  C_3 
REMARK    2  A    between atoms: C_4  and  N_5 
REMARK       I    between atoms: N_5  and  C_6 
REMARK       I    between atoms: C_6  and  N_7 
REMARK    3  A    between atoms: C_10  and  C_11 
ROOT
HETATM    1  N   UNL     1      40.987 -15.071   1.338  1.00  0.00    -0.306 N 
HETATM    2  C   UNL     1      40.569 -16.041   2.217  1.00  0.00     0.323 C 
HETATM    3  N   UNL     1      41.320 -16.070   3.406  1.00  0.00    -0.334 N 
HETATM    4  C   UNL     1      42.771 -15.863   3.352  1.00  0.00     0.128 C 
HETATM    5  C   UNL     1      43.380 -15.628   4.732  1.00  0.00     0.029 C 
HETATM    6  C   UNL     1      43.005 -16.726   5.732  1.00  0.00     0.024 C 
HETATM    7  C   UNL     1      41.462 -16.761   5.783  1.00  0.00     0.029 C 
HETATM    8  C   UNL     1      40.862 -17.031   4.406  1.00  0.00     0.128 C 
HETATM    9  O   UNL     1      39.621 -16.797   2.020  1.00  0.00    -0.247 OA
HETATM   10  H   UNL     1      41.393 -14.246   1.759  1.00  0.00     0.171 HD
ENDROOT
BRANCH   1  11
HETATM   11  C   UNL     1      40.613 -14.913  -0.011  1.00  0.00     0.072 A 
HETATM   12  C   UNL     1      39.530 -14.053  -0.282  1.00  0.00     0.095 A 
HETATM   13  C   UNL     1      39.101 -13.842  -1.595  1.00  0.00     0.042 A 
HETATM   14  C   UNL     1      39.788 -14.446  -2.648  1.00  0.00     0.045 A 
HETATM   15  C   UNL     1      40.880 -15.265  -2.377  1.00  0.00     0.118 A 
HETATM   16  C   UNL     1      41.298 -15.507  -1.072  1.00  0.00     0.074 A 
HETATM   17  F   UNL     1      41.543 -15.826  -3.397  1.00  0.00    -0.206 F 
BRANCH  12  18
HETATM   18  O   UNL     1      38.885 -13.503   0.802  1.00  0.00    -0.354 OA
HETATM   19  C   UNL     1      37.519 -13.900   0.902  1.00  0.00     0.210 C 
ENDBRANCH  12  18
ENDBRANCH   1  11
BRANCH   6  20
HETATM   20  C   UNL     1      43.617 -18.104   5.509  1.00  0.00    -0.026 A 
HETATM   21  C   UNL     1      43.800 -18.888   4.305  1.00  0.00    -0.001 A 
HETATM   22  C   UNL     1      44.397 -20.098   4.676  1.00  0.00     0.042 A 
HETATM   23  C   UNL     1      43.520 -18.714   2.928  1.00  0.00     0.014 A 
HETATM   24  C   UNL     1      44.697 -21.124   3.770  1.00  0.00     0.030 A 
HETATM   25  N   UNL     1      44.611 -20.051   6.028  1.00  0.00    -0.365 N 
HETATM   26  C   UNL     1      44.392 -20.920   2.425  1.00  0.00     0.002 A 
HETATM   27  C   UNL     1      43.816 -19.729   2.006  1.00  0.00     0.001 A 
HETATM   28  H   UNL     1      45.040 -20.790   6.567  1.00  0.00     0.165 HD
HETATM   29  C   UNL     1      44.181 -18.858   6.531  1.00  0.00     0.096 A 
ENDBRANCH   6  20
TORSDOF 3
ENDMDL
MODEL 2
REMARK VINA RESULT:      -9.0      2.847      7.775
REMARK  3 active torsions:
REMARK  status: ('A' for Active; 'I' for Inactive)
REMARK    1  A    between atoms: O_2  and  C_3 
REMARK    2  A    between atoms: C_4  and  N_5 
REMARK       I    between atoms: N_5  and  C_6 
REMARK       I    between atoms: C_6  and  N_7 
REMARK    3  A    between atoms: C_10  and  C_11 
ROOT
HETATM    1  N   UNL     1      43.241 -18.205   3.469  1.00  0.00    -0.306 N 
HETATM    2  C   UNL     1      43.412 -17.127   2.633  1.00  0.00     0.323 C 
HETATM    3  N   UNL     1      42.588 -16.036   2.963  1.00  0.00    -0.334 N 
HETATM    4  C   UNL     1      41.207 -16.276   3.395  1.00  0.00     0.128 C 
HETATM    5  C   UNL     1      40.557 -15.031   3.994  1.00  0.00     0.029 C 
HETATM    6  C   UNL     1      40.652 -13.816   3.065  1.00  0.00     0.024 C 
HETATM    7  C   UNL     1      42.156 -13.601   2.783  1.00  0.00     0.029 C 
HETATM    8  C   UNL     1      42.791 -14.838   2.153  1.00  0.00     0.128 C 
HETATM    9  O   UNL     1      44.216 -17.086   1.706  1.00  0.00    -0.247 OA
HETATM   10  H   UNL     1      42.966 -17.982   4.416  1.00  0.00     0.171 HD
ENDROOT
BRANCH   1  11
HETATM   11  C   UNL     1      43.731 -19.514   3.296  1.00  0.00     0.072 A 
HETATM   12  C   UNL     1      44.375 -20.111   4.399  1.00  0.00     0.095 A 
HETATM   13  C   UNL     1      44.885 -21.409   4.307  1.00  0.00     0.042 A 
HETATM   14  C   UNL     1      44.706 -22.135   3.130  1.00  0.00     0.045 A 
HETATM   15  C   UNL     1      44.036 -21.554   2.057  1.00  0.00     0.118 A 
HETATM   16  C   UNL     1      43.551 -20.252   2.126  1.00  0.00     0.074 A 
HETATM   17  F   UNL     1      43.855 -22.268   0.938  1.00  0.00    -0.206 F 
BRANCH  12  18
HETATM   18  O   UNL     1      44.535 -19.334   5.523  1.00  0.00    -0.354 OA
HETATM   19  C   UNL     1      43.855 -19.854   6.663  1.00  0.00     0.210 C 
ENDBRANCH  12  18
ENDBRANCH   1  11
BRANCH   6  20
HETATM   20  C   UNL     1      39.815 -13.850   1.792  1.00  0.00    -0.026 A 
HETATM   21  C   UNL     1      39.945 -13.133   0.540  1.00  0.00    -0.001 A 
HETATM   22  C   UNL     1      38.885 -13.529  -0.283  1.00  0.00     0.042 A 
HETATM   23  C   UNL     1      40.844 -12.181   0.004  1.00  0.00     0.014 A 
HETATM   24  C   UNL     1      38.669 -13.016  -1.570  1.00  0.00     0.030 A 
HETATM   25  N   UNL     1      38.161 -14.469   0.403  1.00  0.00    -0.365 N 
HETATM   26  C   UNL     1      39.569 -12.068  -2.056  1.00  0.00     0.002 A 
HETATM   27  C   UNL     1      40.646 -11.658  -1.282  1.00  0.00     0.001 A 
HETATM   28  H   UNL     1      37.341 -14.935   0.043  1.00  0.00     0.165 HD
HETATM   29  C   UNL     1      38.722 -14.692   1.626  1.00  0.00     0.096 A 
ENDBRANCH   6  20
TORSDOF 3
ENDMDL
MODEL 3
REMARK VINA RESULT:      -9.0      2.048      2.969
REMARK  3 active torsions:
REMARK  status: ('A' for Active; 'I' for Inactive)
REMARK    1  A    between atoms: O_2  and  C_3 
REMARK    2  A    between atoms: C_4  and  N_5 
REMARK       I    between atoms: N_5  and  C_6 
REMARK       I    between atoms: C_6  and  N_7 
REMARK    3  A    between atoms: C_10  and  C_11 
ROOT
HETATM    1  N   UNL     1      40.411 -14.337   1.090  1.00  0.00    -0.306 N 
HETATM    2  C   UNL     1      40.186 -15.397   1.935  1.00  0.00     0.323 C 
HETATM    3  N   UNL     1      41.341 -15.807   2.625  1.00  0.00    -0.334 N 
HETATM    4  C   UNL     1      42.631 -15.829   1.930  1.00  0.00     0.128 C 
HETATM    5  C   UNL     1      43.808 -16.005   2.886  1.00  0.00     0.029 C 
HETATM    6  C   UNL     1      43.642 -17.223   3.802  1.00  0.00     0.024 C 
HETATM    7  C   UNL     1      42.311 -17.020   4.558  1.00  0.00     0.029 C 
HETATM    8  C   UNL     1      41.134 -16.879   3.596  1.00  0.00     0.128 C 
HETATM    9  O   UNL     1      39.093 -15.929   2.109  1.00  0.00    -0.247 OA
HETATM   10  H   UNL     1      41.144 -13.701   1.373  1.00  0.00     0.171 HD
ENDROOT
BRANCH   1  11
HETATM   11  C   UNL     1      39.547 -13.827   0.100  1.00  0.00     0.072 A 
HETATM   12  C   UNL     1      39.852 -14.135  -1.240  1.00  0.00     0.095 A 
HETATM   13  C   UNL     1      39.041 -13.669  -2.279  1.00  0.00     0.042 A 
HETATM   14  C   UNL     1      37.892 -12.937  -1.978  1.00  0.00     0.045 A 
HETATM   15  C   UNL     1      37.577 -12.667  -0.650  1.00  0.00     0.118 A 
HETATM   16  C   UNL     1      38.392 -13.100   0.391  1.00  0.00     0.074 A 
HETATM   17  F   UNL     1      36.461 -11.978  -0.372  1.00  0.00    -0.206 F 
BRANCH  12  18
HETATM   18  O   UNL     1      41.009 -14.845  -1.470  1.00  0.00    -0.354 OA
HETATM   19  C   UNL     1      40.881 -15.797  -2.524  1.00  0.00     0.210 C 
ENDBRANCH  12  18
ENDBRANCH   1  11
BRANCH   6  20
HETATM   20  C   UNL     1      43.745 -18.597   3.151  1.00  0.00    -0.026 A 
HETATM   21  C   UNL     1      44.127 -19.886   3.690  1.00  0.00    -0.001 A 
HETATM   22  C   UNL     1      44.072 -20.813   2.643  1.00  0.00     0.042 A 
HETATM   23  C   UNL     1      44.522 -20.380   4.956  1.00  0.00     0.014 A 
HETATM   24  C   UNL     1      44.408 -22.166   2.788  1.00  0.00     0.030 A 
HETATM   25  N   UNL     1      43.640 -20.146   1.527  1.00  0.00    -0.365 N 
HETATM   26  C   UNL     1      44.807 -22.611   4.047  1.00  0.00     0.002 A 
HETATM   27  C   UNL     1      44.859 -21.732   5.120  1.00  0.00     0.001 A 
HETATM   28  H   UNL     1      43.499 -20.573   0.623  1.00  0.00     0.165 HD
HETATM   29  C   UNL     1      43.411 -18.834   1.824  1.00  0.00     0.096 A 
ENDBRANCH   6  20
TORSDOF 3
ENDMDL
MODEL 4
REMARK VINA RESULT:      -9.0      2.879      7.929
REMARK  3 active torsions:
REMARK  status: ('A' for Active; 'I' for Inactive)
REMARK    1  A    between atoms: O_2  and  C_3 
REMARK    2  A    between atoms: C_4  and  N_5 
REMARK       I    between atoms: N_5  and  C_6 
REMARK       I    between atoms: C_6  and  N_7 
REMARK    3  A    between atoms: C_10  and  C_11 
ROOT
HETATM    1  N   UNL     1      42.503 -17.957   2.812  1.00  0.00    -0.306 N 
HETATM    2  C   UNL     1      42.953 -16.732   2.380  1.00  0.00     0.323 C 
HETATM    3  N   UNL     1      41.919 -15.798   2.191  1.00  0.00    -0.334 N 
HETATM    4  C   UNL     1      40.647 -16.234   1.606  1.00  0.00     0.128 C 
HETATM    5  C   UNL     1      39.548 -15.184   1.747  1.00  0.00     0.029 C 
HETATM    6  C   UNL     1      39.975 -13.814   1.207  1.00  0.00     0.024 C 
HETATM    7  C   UNL     1      41.251 -13.419   1.983  1.00  0.00     0.029 C 
HETATM    8  C   UNL     1      42.356 -14.458   1.809  1.00  0.00     0.128 C 
HETATM    9  O   UNL     1      44.135 -16.450   2.199  1.00  0.00    -0.247 OA
HETATM   10  H   UNL     1      41.661 -17.939   3.371  1.00  0.00     0.171 HD
ENDROOT
BRANCH   1  11
HETATM   11  C   UNL     1      43.226 -19.163   2.885  1.00  0.00     0.072 A 
HETATM   12  C   UNL     1      43.917 -19.427   4.084  1.00  0.00     0.095 A 
HETATM   13  C   UNL     1      44.654 -20.605   4.236  1.00  0.00     0.042 A 
HETATM   14  C   UNL     1      44.659 -21.549   3.209  1.00  0.00     0.045 A 
HETATM   15  C   UNL     1      43.945 -21.299   2.041  1.00  0.00     0.118 A 
HETATM   16  C   UNL     1      43.231 -20.117   1.866  1.00  0.00     0.074 A 
HETATM   17  F   UNL     1      43.943 -22.220   1.068  1.00  0.00    -0.206 F 
BRANCH  12  18
HETATM   18  O   UNL     1      43.885 -18.448   5.051  1.00  0.00    -0.354 OA
HETATM   19  C   UNL     1      45.008 -18.492   5.929  1.00  0.00     0.210 C 
ENDBRANCH  12  18
ENDBRANCH   1  11
BRANCH   6  20
HETATM   20  C   UNL     1      40.141 -13.685  -0.302  1.00  0.00    -0.026 A 
HETATM   21  C   UNL     1      41.069 -12.913  -1.101  1.00  0.00    -0.001 A 
HETATM   22  C   UNL     1      40.763 -13.147  -2.447  1.00  0.00     0.042 A 
HETATM   23  C   UNL     1      42.142 -12.028  -0.839  1.00  0.00     0.014 A 
HETATM   24  C   UNL     1      41.439 -12.538  -3.513  1.00  0.00     0.030 A 
HETATM   25  N   UNL     1      39.730 -14.047  -2.481  1.00  0.00    -0.365 N 
HETATM   26  C   UNL     1      42.479 -11.661  -3.213  1.00  0.00     0.002 A 
HETATM   27  C   UNL     1      42.832 -11.412  -1.894  1.00  0.00     0.001 A 
HETATM   28  H   UNL     1      39.309 -14.404  -3.327  1.00  0.00     0.165 HD
HETATM   29  C   UNL     1      39.372 -14.399  -1.213  1.00  0.00     0.096 A 
ENDBRANCH   6  20
TORSDOF 3
ENDMDL
MODEL 5
REMARK VINA RESULT:      -8.7      3.837      4.864
REMARK  3 active torsions:
REMARK  status: ('A' for Active; 'I' for Inactive)
REMARK    1  A    between atoms: O_2  and  C_3 
REMARK    2  A    between atoms: C_4  and  N_5 
REMARK       I    between atoms: N_5  and  C_6 
REMARK       I    between atoms: C_6  and  N_7 
REMARK    3  A    between atoms: C_10  and  C_11 
ROOT
HETATM    1  N   UNL     1      41.712 -13.310   5.829  1.00  0.00    -0.306 N 
HETATM    2  C   UNL     1      41.222 -14.595   5.858  1.00  0.00     0.323 C 
HETATM    3  N   UNL     1      42.187 -15.545   6.239  1.00  0.00    -0.334 N 
HETATM    4  C   UNL     1      43.564 -15.415   5.752  1.00  0.00     0.128 C 
HETATM    5  C   UNL     1      44.534 -16.336   6.487  1.00  0.00     0.029 C 
HETATM    6  C   UNL     1      44.071 -17.797   6.482  1.00  0.00     0.024 C 
HETATM    7  C   UNL     1      42.666 -17.811   7.124  1.00  0.00     0.029 C 
HETATM    8  C   UNL     1      41.693 -16.914   6.363  1.00  0.00     0.128 C 
HETATM    9  O   UNL     1      40.060 -14.902   5.610  1.00  0.00    -0.247 OA
HETATM   10  H   UNL     1      42.458 -13.113   6.481  1.00  0.00     0.171 HD
ENDROOT
BRANCH   1  11
HETATM   11  C   UNL     1      41.095 -12.166   5.286  1.00  0.00     0.072 A 
HETATM   12  C   UNL     1      41.345 -11.882   3.929  1.00  0.00     0.095 A 
HETATM   13  C   UNL     1      40.766 -10.767   3.318  1.00  0.00     0.042 A 
HETATM   14  C   UNL     1      39.892  -9.961   4.046  1.00  0.00     0.045 A 
HETATM   15  C   UNL     1      39.619 -10.267   5.376  1.00  0.00     0.118 A 
HETATM   16  C   UNL     1      40.213 -11.357   6.005  1.00  0.00     0.074 A 
HETATM   17  F   UNL     1      38.765  -9.495   6.061  1.00  0.00    -0.206 F 
BRANCH  12  18
HETATM   18  O   UNL     1      42.230 -12.707   3.272  1.00  0.00    -0.354 OA
HETATM   19  C   UNL     1      41.731 -13.181   2.024  1.00  0.00     0.210 C 
ENDBRANCH  12  18
ENDBRANCH   1  11
BRANCH   6  20
HETATM   20  C   UNL     1      44.115 -18.533   5.148  1.00  0.00    -0.026 A 
HETATM   21  C   UNL     1      44.314 -19.933   4.833  1.00  0.00    -0.001 A 
HETATM   22  C   UNL     1      44.287 -20.058   3.439  1.00  0.00     0.042 A 
HETATM   23  C   UNL     1      44.521 -21.121   5.572  1.00  0.00     0.014 A 
HETATM   24  C   UNL     1      44.476 -21.272   2.765  1.00  0.00     0.030 A 
HETATM   25  N   UNL     1      44.043 -18.813   2.920  1.00  0.00    -0.365 N 
HETATM   26  C   UNL     1      44.693 -22.417   3.530  1.00  0.00     0.002 A 
HETATM   27  C   UNL     1      44.710 -22.346   4.916  1.00  0.00     0.001 A 
HETATM   28  H   UNL     1      43.962 -18.608   1.934  1.00  0.00     0.165 HD
HETATM   29  C   UNL     1      43.907 -17.903   3.928  1.00  0.00     0.096 A 
ENDBRANCH   6  20
TORSDOF 3
ENDMDL
MODEL 6
REMARK VINA RESULT:      -8.6      4.857      7.272
REMARK  3 active torsions:
REMARK  status: ('A' for Active; 'I' for Inactive)
REMARK    1  A    between atoms: O_2  and  C_3 
REMARK    2  A    between atoms: C_4  and  N_5 
REMARK       I    between atoms: N_5  and  C_6 
REMARK       I    between atoms: C_6  and  N_7 
REMARK    3  A    between atoms: C_10  and  C_11 
ROOT
HETATM    1  N   UNL     1      43.654 -13.586   7.389  1.00  0.00    -0.306 N 
HETATM    2  C   UNL     1      43.225 -13.662   6.085  1.00  0.00     0.323 C 
HETATM    3  N   UNL     1      42.381 -14.760   5.844  1.00  0.00    -0.334 N 
HETATM    4  C   UNL     1      42.671 -16.050   6.478  1.00  0.00     0.128 C 
HETATM    5  C   UNL     1      41.512 -17.036   6.356  1.00  0.00     0.029 C 
HETATM    6  C   UNL     1      41.045 -17.214   4.907  1.00  0.00     0.024 C 
HETATM    7  C   UNL     1      40.660 -15.808   4.398  1.00  0.00     0.029 C 
HETATM    8  C   UNL     1      41.835 -14.837   4.491  1.00  0.00     0.128 C 
HETATM    9  O   UNL     1      43.511 -12.849   5.210  1.00  0.00    -0.247 OA
HETATM   10  H   UNL     1      43.017 -13.961   8.079  1.00  0.00     0.171 HD
ENDROOT
BRANCH   1  11
HETATM   11  C   UNL     1      44.666 -12.760   7.916  1.00  0.00     0.072 A 
HETATM   12  C   UNL     1      44.295 -11.855   8.929  1.00  0.00     0.095 A 
HETATM   13  C   UNL     1      45.243 -11.005   9.505  1.00  0.00     0.042 A 
HETATM   14  C   UNL     1      46.577 -11.094   9.108  1.00  0.00     0.045 A 
HETATM   15  C   UNL     1      46.944 -12.016   8.132  1.00  0.00     0.118 A 
HETATM   16  C   UNL     1      46.005 -12.847   7.530  1.00  0.00     0.074 A 
HETATM   17  F   UNL     1      48.231 -12.104   7.770  1.00  0.00    -0.206 F 
BRANCH  12  18
HETATM   18  O   UNL     1      42.961 -11.805   9.263  1.00  0.00    -0.354 OA
HETATM   19  C   UNL     1      42.364 -10.538   8.995  1.00  0.00     0.210 C 
ENDBRANCH  12  18
ENDBRANCH   1  11
BRANCH   6  20
HETATM   20  C   UNL     1      41.990 -17.945   3.960  1.00  0.00    -0.026 A 
HETATM   21  C   UNL     1      43.054 -18.894   4.212  1.00  0.00    -0.001 A 
HETATM   22  C   UNL     1      43.618 -19.232   2.977  1.00  0.00     0.042 A 
HETATM   23  C   UNL     1      43.616 -19.509   5.356  1.00  0.00     0.014 A 
HETATM   24  C   UNL     1      44.701 -20.110   2.833  1.00  0.00     0.030 A 
HETATM   25  N   UNL     1      42.916 -18.563   2.009  1.00  0.00    -0.365 N 
HETATM   26  C   UNL     1      45.236 -20.684   3.985  1.00  0.00     0.002 A 
HETATM   27  C   UNL     1      44.699 -20.393   5.232  1.00  0.00     0.001 A 
HETATM   28  H   UNL     1      43.102 -18.627   1.018  1.00  0.00     0.165 HD
HETATM   29  C   UNL     1      41.925 -17.819   2.578  1.00  0.00     0.096 A 
ENDBRANCH   6  20
TORSDOF 3
ENDMDL
MODEL 7
REMARK VINA RESULT:      -8.6      4.116      7.764
REMARK  3 active torsions:
REMARK  status: ('A' for Active; 'I' for Inactive)
REMARK    1  A    between atoms: O_2  and  C_3 
REMARK    2  A    between atoms: C_4  and  N_5 
REMARK       I    between atoms: N_5  and  C_6 
REMARK       I    between atoms: C_6  and  N_7 
REMARK    3  A    between atoms: C_10  and  C_11 
ROOT
HETATM    1  N   UNL     1      43.143 -16.957   3.089  1.00  0.00    -0.306 N 
HETATM    2  C   UNL     1      41.822 -16.587   3.184  1.00  0.00     0.323 C 
HETATM    3  N   UNL     1      41.640 -15.193   3.211  1.00  0.00    -0.334 N 
HETATM    4  C   UNL     1      42.577 -14.353   3.965  1.00  0.00     0.128 C 
HETATM    5  C   UNL     1      42.417 -12.868   3.648  1.00  0.00     0.029 C 
HETATM    6  C   UNL     1      40.972 -12.387   3.814  1.00  0.00     0.024 C 
HETATM    7  C   UNL     1      40.109 -13.269   2.885  1.00  0.00     0.029 C 
HETATM    8  C   UNL     1      40.248 -14.750   3.230  1.00  0.00     0.128 C 
HETATM    9  O   UNL     1      40.880 -17.374   3.215  1.00  0.00    -0.247 OA
HETATM   10  H   UNL     1      43.743 -16.308   2.597  1.00  0.00     0.171 HD
ENDROOT
BRANCH   1  11
HETATM   11  C   UNL     1      43.691 -18.243   3.260  1.00  0.00     0.072 A 
HETATM   12  C   UNL     1      44.196 -18.563   4.536  1.00  0.00     0.095 A 
HETATM   13  C   UNL     1      44.753 -19.820   4.785  1.00  0.00     0.042 A 
HETATM   14  C   UNL     1      44.758 -20.782   3.775  1.00  0.00     0.045 A 
HETATM   15  C   UNL     1      44.224 -20.473   2.528  1.00  0.00     0.118 A 
HETATM   16  C   UNL     1      43.694 -19.215   2.258  1.00  0.00     0.074 A 
HETATM   17  F   UNL     1      44.219 -21.410   1.570  1.00  0.00    -0.206 F 
BRANCH  12  18
HETATM   18  O   UNL     1      44.177 -17.564   5.482  1.00  0.00    -0.354 OA
HETATM   19  C   UNL     1      45.045 -17.821   6.584  1.00  0.00     0.210 C 
ENDBRANCH  12  18
ENDBRANCH   1  11
BRANCH   6  20
HETATM   20  C   UNL     1      40.424 -12.318   5.235  1.00  0.00    -0.026 A 
HETATM   21  C   UNL     1      40.611 -11.341   6.287  1.00  0.00    -0.001 A 
HETATM   22  C   UNL     1      39.894 -11.783   7.405  1.00  0.00     0.042 A 
HETATM   23  C   UNL     1      41.318 -10.123   6.428  1.00  0.00     0.014 A 
HETATM   24  C   UNL     1      39.868 -11.101   8.629  1.00  0.00     0.030 A 
HETATM   25  N   UNL     1      39.262 -12.947   7.052  1.00  0.00    -0.365 N 
HETATM   26  C   UNL     1      40.589  -9.913   8.731  1.00  0.00     0.002 A 
HETATM   27  C   UNL     1      41.302  -9.425   7.644  1.00  0.00     0.001 A 
HETATM   28  H   UNL     1      38.665 -13.483   7.665  1.00  0.00     0.165 HD
HETATM   29  C   UNL     1      39.544 -13.259   5.754  1.00  0.00     0.096 A 
ENDBRANCH   6  20
TORSDOF 3
ENDMDL
MODEL 8
REMARK VINA RESULT:      -8.6      2.730      7.639
REMARK  3 active torsions:
REMARK  status: ('A' for Active; 'I' for Inactive)
REMARK    1  A    between atoms: O_2  and  C_3 
REMARK    2  A    between atoms: C_4  and  N_5 
REMARK       I    between atoms: N_5  and  C_6 
REMARK       I    between atoms: C_6  and  N_7 
REMARK    3  A    between atoms: C_10  and  C_11 
ROOT
HETATM    1  N   UNL     1      42.029 -17.360   3.828  1.00  0.00    -0.306 N 
HETATM    2  C   UNL     1      42.217 -15.999   3.851  1.00  0.00     0.323 C 
HETATM    3  N   UNL     1      41.150 -15.285   3.276  1.00  0.00    -0.334 N 
HETATM    4  C   UNL     1      40.498 -15.803   2.069  1.00  0.00     0.128 C 
HETATM    5  C   UNL     1      39.190 -15.081   1.755  1.00  0.00     0.029 C 
HETATM    6  C   UNL     1      39.361 -13.559   1.693  1.00  0.00     0.024 C 
HETATM    7  C   UNL     1      39.941 -13.130   3.059  1.00  0.00     0.029 C 
HETATM    8  C   UNL     1      41.266 -13.831   3.350  1.00  0.00     0.128 C 
HETATM    9  O   UNL     1      43.192 -15.439   4.343  1.00  0.00    -0.247 OA
HETATM   10  H   UNL     1      41.067 -17.669   3.870  1.00  0.00     0.171 HD
ENDROOT
BRANCH   1  11
HETATM   11  C   UNL     1      42.976 -18.364   4.109  1.00  0.00     0.072 A 
HETATM   12  C   UNL     1      43.165 -18.710   5.462  1.00  0.00     0.095 A 
HETATM   13  C   UNL     1      44.084 -19.699   5.821  1.00  0.00     0.042 A 
HETATM   14  C   UNL     1      44.779 -20.385   4.826  1.00  0.00     0.045 A 
HETATM   15  C   UNL     1      44.562 -20.065   3.489  1.00  0.00     0.118 A 
HETATM   16  C   UNL     1      43.672 -19.062   3.120  1.00  0.00     0.074 A 
HETATM   17  F   UNL     1      45.223 -20.743   2.541  1.00  0.00    -0.206 F 
BRANCH  12  18
HETATM   18  O   UNL     1      42.461 -17.983   6.395  1.00  0.00    -0.354 OA
HETATM   19  C   UNL     1      43.173 -17.806   7.618  1.00  0.00     0.210 C 
ENDBRANCH  12  18
ENDBRANCH   1  11
BRANCH   6  20
HETATM   20  C   UNL     1      40.151 -12.998   0.517  1.00  0.00    -0.026 A 
HETATM   21  C   UNL     1      40.532 -13.589  -0.750  1.00  0.00    -0.001 A 
HETATM   22  C   UNL     1      41.276 -12.635  -1.452  1.00  0.00     0.042 A 
HETATM   23  C   UNL     1      40.335 -14.836  -1.388  1.00  0.00     0.014 A 
HETATM   24  C   UNL     1      41.841 -12.866  -2.714  1.00  0.00     0.030 A 
HETATM   25  N   UNL     1      41.319 -11.501  -0.683  1.00  0.00    -0.365 N 
HETATM   26  C   UNL     1      41.637 -14.113  -3.302  1.00  0.00     0.002 A 
HETATM   27  C   UNL     1      40.890 -15.086  -2.652  1.00  0.00     0.001 A 
HETATM   28  H   UNL     1      41.786 -10.646  -0.949  1.00  0.00     0.165 HD
HETATM   29  C   UNL     1      40.627 -11.694   0.476  1.00  0.00     0.096 A 
ENDBRANCH   6  20
TORSDOF 3
ENDMDL
MODEL 9
REMARK VINA RESULT:      -8.6      3.366      7.687
REMARK  3 active torsions:
REMARK  status: ('A' for Active; 'I' for Inactive)
REMARK    1  A    between atoms: O_2  and  C_3 
REMARK    2  A    between atoms: C_4  and  N_5 
REMARK       I    between atoms: N_5  and  C_6 
REMARK       I    between atoms: C_6  and  N_7 
REMARK    3  A    between atoms: C_10  and  C_11 
ROOT
HETATM    1  N   UNL     1      41.884 -17.430   4.026  1.00  0.00    -0.306 N 
HETATM    2  C   UNL     1      41.980 -16.097   4.348  1.00  0.00     0.323 C 
HETATM    3  N   UNL     1      41.047 -15.296   3.665  1.00  0.00    -0.334 N 
HETATM    4  C   UNL     1      40.745 -15.576   2.258  1.00  0.00     0.128 C 
HETATM    5  C   UNL     1      39.514 -14.821   1.762  1.00  0.00     0.029 C 
HETATM    6  C   UNL     1      39.605 -13.314   2.029  1.00  0.00     0.024 C 
HETATM    7  C   UNL     1      39.804 -13.153   3.552  1.00  0.00     0.029 C 
HETATM    8  C   UNL     1      41.056 -13.883   4.034  1.00  0.00     0.128 C 
HETATM    9  O   UNL     1      42.769 -15.634   5.167  1.00  0.00    -0.247 OA
HETATM   10  H   UNL     1      40.962 -17.751   3.766  1.00  0.00     0.171 HD
ENDROOT
BRANCH   1  11
HETATM   11  C   UNL     1      42.790 -18.460   4.347  1.00  0.00     0.072 A 
HETATM   12  C   UNL     1      43.541 -19.010   3.289  1.00  0.00     0.095 A 
HETATM   13  C   UNL     1      44.463 -20.032   3.528  1.00  0.00     0.042 A 
HETATM   14  C   UNL     1      44.678 -20.473   4.834  1.00  0.00     0.045 A 
HETATM   15  C   UNL     1      43.960 -19.901   5.880  1.00  0.00     0.118 A 
HETATM   16  C   UNL     1      43.017 -18.903   5.651  1.00  0.00     0.074 A 
HETATM   17  F   UNL     1      44.186 -20.320   7.132  1.00  0.00    -0.206 F 
BRANCH  12  18
HETATM   18  O   UNL     1      43.269 -18.543   2.023  1.00  0.00    -0.354 OA
HETATM   19  C   UNL     1      44.236 -17.607   1.553  1.00  0.00     0.210 C 
ENDBRANCH  12  18
ENDBRANCH   1  11
BRANCH   6  20
HETATM   20  C   UNL     1      40.626 -12.528   1.216  1.00  0.00    -0.026 A 
HETATM   21  C   UNL     1      41.186 -12.758  -0.100  1.00  0.00    -0.001 A 
HETATM   22  C   UNL     1      42.104 -11.733  -0.352  1.00  0.00     0.042 A 
HETATM   23  C   UNL     1      41.024 -13.730  -1.116  1.00  0.00     0.014 A 
HETATM   24  C   UNL     1      42.867 -11.646  -1.525  1.00  0.00     0.030 A 
HETATM   25  N   UNL     1      42.084 -10.890   0.728  1.00  0.00    -0.365 N 
HETATM   26  C   UNL     1      42.689 -12.631  -2.495  1.00  0.00     0.002 A 
HETATM   27  C   UNL     1      41.777 -13.658  -2.297  1.00  0.00     0.001 A 
HETATM   28  H   UNL     1      42.646 -10.055   0.814  1.00  0.00     0.165 HD
HETATM   29  C   UNL     1      41.186 -11.334   1.653  1.00  0.00     0.096 A 
ENDBRANCH   6  20
TORSDOF 3
ENDMDL
MODEL 10
REMARK VINA RESULT:      -8.5      3.503      8.167
REMARK  3 active torsions:
REMARK  status: ('A' for Active; 'I' for Inactive)
REMARK    1  A    between atoms: O_2  and  C_3 
REMARK    2  A    between atoms: C_4  and  N_5 
REMARK       I    between atoms: N_5  and  C_6 
REMARK       I    between atoms: C_6  and  N_7 
REMARK    3  A    between atoms: C_10  and  C_11 
ROOT
HETATM    1  N   UNL     1      42.577 -17.829   2.689  1.00  0.00    -0.306 N 
HETATM    2  C   UNL     1      41.748 -16.793   3.051  1.00  0.00     0.323 C 
HETATM    3  N   UNL     1      41.205 -16.110   1.948  1.00  0.00    -0.334 N 
HETATM    4  C   UNL     1      42.039 -15.856   0.770  1.00  0.00     0.128 C 
HETATM    5  C   UNL     1      41.226 -15.383  -0.432  1.00  0.00     0.029 C 
HETATM    6  C   UNL     1      40.339 -14.177  -0.101  1.00  0.00     0.024 C 
HETATM    7  C   UNL     1      39.433 -14.613   1.072  1.00  0.00     0.029 C 
HETATM    8  C   UNL     1      40.254 -15.053   2.281  1.00  0.00     0.128 C 
HETATM    9  O   UNL     1      41.472 -16.495   4.209  1.00  0.00    -0.247 OA
HETATM   10  H   UNL     1      42.355 -18.278   1.811  1.00  0.00     0.171 HD
ENDROOT
BRANCH   1  11
HETATM   11  C   UNL     1      43.447 -18.565   3.518  1.00  0.00     0.072 A 
HETATM   12  C   UNL     1      43.823 -19.849   3.076  1.00  0.00     0.095 A 
HETATM   13  C   UNL     1      44.686 -20.639   3.840  1.00  0.00     0.042 A 
HETATM   14  C   UNL     1      45.219 -20.127   5.023  1.00  0.00     0.045 A 
HETATM   15  C   UNL     1      44.872 -18.845   5.436  1.00  0.00     0.118 A 
HETATM   16  C   UNL     1      43.990 -18.060   4.699  1.00  0.00     0.074 A 
HETATM   17  F   UNL     1      45.403 -18.357   6.566  1.00  0.00    -0.206 F 
BRANCH  12  18
HETATM   18  O   UNL     1      43.249 -20.300   1.909  1.00  0.00    -0.354 OA
HETATM   19  C   UNL     1      43.605 -21.644   1.595  1.00  0.00     0.210 C 
ENDBRANCH  12  18
ENDBRANCH   1  11
BRANCH   6  20
HETATM   20  C   UNL     1      41.044 -12.851   0.162  1.00  0.00    -0.026 A 
HETATM   21  C   UNL     1      41.774 -11.964  -0.719  1.00  0.00    -0.001 A 
HETATM   22  C   UNL     1      42.236 -10.891   0.052  1.00  0.00     0.042 A 
HETATM   23  C   UNL     1      42.106 -11.946  -2.095  1.00  0.00     0.014 A 
HETATM   24  C   UNL     1      43.013  -9.844  -0.462  1.00  0.00     0.030 A 
HETATM   25  N   UNL     1      41.782 -11.081   1.331  1.00  0.00    -0.365 N 
HETATM   26  C   UNL     1      43.332  -9.871  -1.819  1.00  0.00     0.002 A 
HETATM   27  C   UNL     1      42.881 -10.905  -2.628  1.00  0.00     0.001 A 
HETATM   28  H   UNL     1      41.959 -10.452   2.101  1.00  0.00     0.165 HD
HETATM   29  C   UNL     1      41.045 -12.226   1.402  1.00  0.00     0.096 A 
ENDBRANCH   6  20
TORSDOF 3
ENDMDL
