MODEL 1
REMARK VINA RESULT:      -9.5      0.000      0.000
REMARK  5 active torsions:
REMARK  status: ('A' for Active; 'I' for Inactive)
REMARK    1  A    between atoms: C_7  and  C_8 
REMARK    2  A    between atoms: C_16  and  C_17 
REMARK    3  A    between atoms: C_19  and  O_20 
REMARK    4  A    between atoms: C_24  and  C_25 
REMARK       I    between atoms: C_25  and  N_26 
REMARK    5  A    between atoms: N_26  and  C_27 
ROOT
HETATM    1  C   UNL     1      38.951 -12.260   3.612  1.00  0.00     0.070 C 
HETATM    2  C   UNL     1      39.692 -13.320   2.836  1.00  0.00     0.037 C 
HETATM    3  N   UNL     1      40.829 -13.840   3.463  1.00  0.00    -0.192 N 
HETATM    4  C   UNL     1      41.412 -14.985   3.051  1.00  0.00     0.726 A 
HETATM    5  N   UNL     1      41.086 -15.490   1.827  1.00  0.00    -0.083 N 
HETATM    6  N   UNL     1      41.645 -16.695   1.617  1.00  0.00    -0.135 NA
HETATM    7  C   UNL     1      42.352 -16.857   2.752  1.00  0.00     0.199 A 
HETATM    8  N   UNL     1      42.234 -15.806   3.650  1.00  0.00    -0.041 NA
HETATM    9  C   UNL     1      40.156 -14.843   0.901  1.00  0.00     0.202 C 
HETATM   10  C   UNL     1      39.313 -13.791   1.617  1.00  0.00     0.062 C 
HETATM   11  H   UNL     1      40.971 -13.568   4.433  1.00  0.00     0.184 HD
ENDROOT
BRANCH  10  12
HETATM   12  C   UNL     1      37.959 -13.479   1.058  1.00  0.00     0.256 C 
HETATM   13  N   UNL     1      37.789 -12.175   0.646  1.00  0.00    -0.323 N 
HETATM   14  H   UNL     1      38.519 -11.503   0.842  1.00  0.00     0.169 HD
HETATM   15  O   UNL     1      37.137 -14.381   0.948  1.00  0.00    -0.267 OA
BRANCH  13  16
HETATM   16  C   UNL     1      36.686 -11.639  -0.058  1.00  0.00     0.035 A 
HETATM   17  C   UNL     1      35.479 -11.268   0.537  1.00  0.00     0.029 A 
HETATM   18  C   UNL     1      34.429 -10.768  -0.240  1.00  0.00     0.002 A 
HETATM   19  C   UNL     1      34.573 -10.644  -1.619  1.00  0.00     0.000 A 
HETATM   20  C   UNL     1      35.772 -11.011  -2.223  1.00  0.00     0.002 A 
HETATM   21  C   UNL     1      36.825 -11.500  -1.447  1.00  0.00     0.029 A 
ENDBRANCH  13  16
ENDBRANCH  10  12
BRANCH   9  22
HETATM   22  C   UNL     1      40.949 -14.287  -0.285  1.00  0.00    -0.025 A 
HETATM   23  C   UNL     1      41.069 -14.991  -1.499  1.00  0.00     0.046 A 
HETATM   24  C   UNL     1      41.820 -14.458  -2.544  1.00  0.00     0.066 A 
HETATM   25  C   UNL     1      42.442 -13.226  -2.419  1.00  0.00     0.036 A 
HETATM   26  C   UNL     1      42.310 -12.504  -1.234  1.00  0.00     0.003 A 
HETATM   27  C   UNL     1      41.567 -13.028  -0.174  1.00  0.00     0.010 A 
BRANCH  24  28
HETATM   28  O   UNL     1      41.970 -15.127  -3.723  1.00  0.00    -0.361 OA
HETATM   29  H   UNL     1      42.507 -14.591  -4.329  1.00  0.00     0.217 HD
ENDBRANCH  24  28
ENDBRANCH   9  22
BRANCH   7  30
HETATM   30  C   UNL     1      43.138 -18.051   3.047  1.00  0.00     0.016 A 
HETATM   31  C   UNL     1      43.124 -19.151   2.176  1.00  0.00     0.039 A 
HETATM   32  C   UNL     1      43.860 -20.296   2.481  1.00  0.00     0.035 A 
HETATM   33 CL   UNL     1      43.830 -21.640   1.407  1.00  0.00    -0.084 Cl
HETATM   34  C   UNL     1      44.616 -20.363   3.649  1.00  0.00     0.024 A 
HETATM   35  C   UNL     1      44.640 -19.274   4.521  1.00  0.00     0.003 A 
HETATM   36  C   UNL     1      43.906 -18.124   4.219  1.00  0.00     0.015 A 
ENDBRANCH   7  30
TORSDOF 5
ENDMDL
MODEL 2
REMARK VINA RESULT:      -9.5      2.890      5.186
REMARK  5 active torsions:
REMARK  status: ('A' for Active; 'I' for Inactive)
REMARK    1  A    between atoms: C_7  and  C_8 
REMARK    2  A    between atoms: C_16  and  C_17 
REMARK    3  A    between atoms: C_19  and  O_20 
REMARK    4  A    between atoms: C_24  and  C_25 
REMARK       I    between atoms: C_25  and  N_26 
REMARK    5  A    between atoms: N_26  and  C_27 
ROOT
HETATM    1  C   UNL     1      39.397 -13.971  -0.690  1.00  0.00     0.070 C 
HETATM    2  C   UNL     1      40.269 -14.344   0.483  1.00  0.00     0.037 C 
HETATM    3  N   UNL     1      40.251 -15.696   0.840  1.00  0.00    -0.192 N 
HETATM    4  C   UNL     1      41.187 -16.235   1.649  1.00  0.00     0.726 A 
HETATM    5  N   UNL     1      41.988 -15.406   2.377  1.00  0.00    -0.083 N 
HETATM    6  N   UNL     1      42.952 -16.083   3.027  1.00  0.00    -0.135 NA
HETATM    7  C   UNL     1      42.655 -17.352   2.686  1.00  0.00     0.199 A 
HETATM    8  N   UNL     1      41.559 -17.473   1.843  1.00  0.00    -0.041 NA
HETATM    9  C   UNL     1      41.874 -13.947   2.366  1.00  0.00     0.202 C 
HETATM   10  C   UNL     1      41.055 -13.471   1.169  1.00  0.00     0.062 C 
HETATM   11  H   UNL     1      39.774 -16.324   0.198  1.00  0.00     0.184 HD
ENDROOT
BRANCH  10  12
HETATM   12  C   UNL     1      41.325 -12.097   0.637  1.00  0.00     0.256 C 
HETATM   13  N   UNL     1      42.319 -12.030  -0.316  1.00  0.00    -0.323 N 
HETATM   14  H   UNL     1      42.866 -12.858  -0.509  1.00  0.00     0.169 HD
HETATM   15  O   UNL     1      40.632 -11.162   1.020  1.00  0.00    -0.267 OA
BRANCH  13  16
HETATM   16  C   UNL     1      42.677 -10.908  -1.098  1.00  0.00     0.035 A 
HETATM   17  C   UNL     1      43.356  -9.791  -0.607  1.00  0.00     0.029 A 
HETATM   18  C   UNL     1      43.648  -8.712  -1.448  1.00  0.00     0.002 A 
HETATM   19  C   UNL     1      43.257  -8.736  -2.783  1.00  0.00     0.000 A 
HETATM   20  C   UNL     1      42.579  -9.844  -3.284  1.00  0.00     0.002 A 
HETATM   21  C   UNL     1      42.296 -10.927  -2.448  1.00  0.00     0.029 A 
ENDBRANCH  13  16
ENDBRANCH  10  12
BRANCH   9  22
HETATM   22  C   UNL     1      41.311 -13.487   3.713  1.00  0.00    -0.025 A 
HETATM   23  C   UNL     1      42.145 -13.040   4.757  1.00  0.00     0.046 A 
HETATM   24  C   UNL     1      41.592 -12.652   5.975  1.00  0.00     0.066 A 
HETATM   25  C   UNL     1      40.220 -12.680   6.176  1.00  0.00     0.036 A 
HETATM   26  C   UNL     1      39.380 -13.093   5.144  1.00  0.00     0.003 A 
HETATM   27  C   UNL     1      39.920 -13.492   3.919  1.00  0.00     0.010 A 
BRANCH  24  28
HETATM   28  O   UNL     1      42.375 -12.234   7.010  1.00  0.00    -0.361 OA
HETATM   29  H   UNL     1      43.309 -12.303   6.752  1.00  0.00     0.217 HD
ENDBRANCH  24  28
ENDBRANCH   9  22
BRANCH   7  30
HETATM   30  C   UNL     1      43.439 -18.505   3.118  1.00  0.00     0.016 A 
HETATM   31  C   UNL     1      43.604 -19.615   2.277  1.00  0.00     0.039 A 
HETATM   32  C   UNL     1      44.335 -20.721   2.710  1.00  0.00     0.035 A 
HETATM   33 CL   UNL     1      44.525 -22.079   1.670  1.00  0.00    -0.084 Cl
HETATM   34  C   UNL     1      44.910 -20.738   3.979  1.00  0.00     0.024 A 
HETATM   35  C   UNL     1      44.755 -19.638   4.823  1.00  0.00     0.003 A 
HETATM   36  C   UNL     1      44.025 -18.527   4.393  1.00  0.00     0.015 A 
ENDBRANCH   7  30
TORSDOF 5
ENDMDL
MODEL 3
REMARK VINA RESULT:      -8.7      4.880      8.672
REMARK  5 active torsions:
REMARK  status: ('A' for Active; 'I' for Inactive)
REMARK    1  A    between atoms: C_7  and  C_8 
REMARK    2  A    between atoms: C_16  and  C_17 
REMARK    3  A    between atoms: C_19  and  O_20 
REMARK    4  A    between atoms: C_24  and  C_25 
REMARK       I    between atoms: C_25  and  N_26 
REMARK    5  A    between atoms: N_26  and  C_27 
ROOT
HETATM    1  C   UNL     1      38.989  -9.878   6.046  1.00  0.00     0.070 C 
HETATM    2  C   UNL     1      39.922 -10.777   5.272  1.00  0.00     0.037 C 
HETATM    3  N   UNL     1      39.455 -11.195   4.022  1.00  0.00    -0.192 N 
HETATM    4  C   UNL     1      40.275 -11.735   3.097  1.00  0.00     0.726 A 
HETATM    5  N   UNL     1      41.511 -12.166   3.479  1.00  0.00    -0.083 N 
HETATM    6  N   UNL     1      42.254 -12.554   2.427  1.00  0.00    -0.135 NA
HETATM    7  C   UNL     1      41.385 -12.377   1.413  1.00  0.00     0.199 A 
HETATM    8  N   UNL     1      40.149 -11.883   1.804  1.00  0.00    -0.041 NA
HETATM    9  C   UNL     1      42.002 -12.111   4.856  1.00  0.00     0.202 C 
HETATM   10  C   UNL     1      41.151 -11.168   5.704  1.00  0.00     0.062 C 
HETATM   11  H   UNL     1      38.606 -10.746   3.687  1.00  0.00     0.184 HD
ENDROOT
BRANCH  10  12
HETATM   12  C   UNL     1      41.798 -10.511   6.884  1.00  0.00     0.256 C 
HETATM   13  N   UNL     1      42.116 -11.363   7.919  1.00  0.00    -0.323 N 
HETATM   14  H   UNL     1      41.802 -12.323   7.874  1.00  0.00     0.169 HD
HETATM   15  O   UNL     1      42.052  -9.313   6.834  1.00  0.00    -0.267 OA
BRANCH  13  16
HETATM   16  C   UNL     1      42.866 -11.055   9.077  1.00  0.00     0.035 A 
HETATM   17  C   UNL     1      44.229 -11.319   9.224  1.00  0.00     0.029 A 
HETATM   18  C   UNL     1      44.889 -11.003  10.417  1.00  0.00     0.002 A 
HETATM   19  C   UNL     1      44.190 -10.431  11.476  1.00  0.00     0.000 A 
HETATM   20  C   UNL     1      42.831 -10.163  11.341  1.00  0.00     0.002 A 
HETATM   21  C   UNL     1      42.173 -10.468  10.146  1.00  0.00     0.029 A 
ENDBRANCH  13  16
ENDBRANCH  10  12
BRANCH   9  22
HETATM   22  C   UNL     1      42.072 -13.536   5.411  1.00  0.00    -0.025 A 
HETATM   23  C   UNL     1      40.922 -14.335   5.567  1.00  0.00     0.046 A 
HETATM   24  C   UNL     1      41.029 -15.617   6.099  1.00  0.00     0.066 A 
HETATM   25  C   UNL     1      42.262 -16.136   6.465  1.00  0.00     0.036 A 
HETATM   26  C   UNL     1      43.412 -15.370   6.291  1.00  0.00     0.003 A 
HETATM   27  C   UNL     1      43.320 -14.079   5.766  1.00  0.00     0.010 A 
BRANCH  24  28
HETATM   28  O   UNL     1      39.931 -16.405   6.279  1.00  0.00    -0.361 OA
HETATM   29  H   UNL     1      39.152 -15.957   5.913  1.00  0.00     0.217 HD
ENDBRANCH  24  28
ENDBRANCH   9  22
BRANCH   7  30
HETATM   30  C   UNL     1      41.718 -12.631   0.015  1.00  0.00     0.016 A 
HETATM   31  C   UNL     1      41.272 -13.795  -0.628  1.00  0.00     0.039 A 
HETATM   32  C   UNL     1      41.618 -14.038  -1.957  1.00  0.00     0.035 A 
HETATM   33 CL   UNL     1      41.069 -15.473  -2.732  1.00  0.00    -0.084 Cl
HETATM   34  C   UNL     1      42.406 -13.132  -2.662  1.00  0.00     0.024 A 
HETATM   35  C   UNL     1      42.853 -11.970  -2.034  1.00  0.00     0.003 A 
HETATM   36  C   UNL     1      42.508 -11.720  -0.703  1.00  0.00     0.015 A 
ENDBRANCH   7  30
TORSDOF 5
ENDMDL
MODEL 4
REMARK VINA RESULT:      -8.6      4.224      8.824
REMARK  5 active torsions:
REMARK  status: ('A' for Active; 'I' for Inactive)
REMARK    1  A    between atoms: C_7  and  C_8 
REMARK    2  A    between atoms: C_16  and  C_17 
REMARK    3  A    between atoms: C_19  and  O_20 
REMARK    4  A    between atoms: C_24  and  C_25 
REMARK       I    between atoms: C_25  and  N_26 
REMARK    5  A    between atoms: N_26  and  C_27 
ROOT
HETATM    1  C   UNL     1      40.580 -17.175   6.615  1.00  0.00     0.070 C 
HETATM    2  C   UNL     1      40.748 -15.889   5.843  1.00  0.00     0.037 C 
HETATM    3  N   UNL     1      39.941 -14.827   6.260  1.00  0.00    -0.192 N 
HETATM    4  C   UNL     1      40.186 -13.553   5.886  1.00  0.00     0.726 A 
HETATM    5  N   UNL     1      41.039 -13.321   4.848  1.00  0.00    -0.083 N 
HETATM    6  N   UNL     1      41.282 -12.009   4.682  1.00  0.00    -0.135 NA
HETATM    7  C   UNL     1      40.498 -11.475   5.639  1.00  0.00     0.199 A 
HETATM    8  N   UNL     1      39.800 -12.410   6.390  1.00  0.00    -0.041 NA
HETATM    9  C   UNL     1      41.690 -14.381   4.078  1.00  0.00     0.202 C 
HETATM   10  C   UNL     1      41.624 -15.715   4.817  1.00  0.00     0.062 C 
HETATM   11  H   UNL     1      39.427 -14.966   7.127  1.00  0.00     0.184 HD
ENDROOT
BRANCH  10  12
HETATM   12  C   UNL     1      42.698 -16.722   4.542  1.00  0.00     0.256 C 
HETATM   13  N   UNL     1      42.263 -17.884   3.942  1.00  0.00    -0.323 N 
HETATM   14  H   UNL     1      41.269 -18.032   3.831  1.00  0.00     0.169 HD
HETATM   15  O   UNL     1      43.862 -16.438   4.801  1.00  0.00    -0.267 OA
BRANCH  13  16
HETATM   16  C   UNL     1      43.062 -18.930   3.428  1.00  0.00     0.035 A 
HETATM   17  C   UNL     1      42.991 -19.403   2.116  1.00  0.00     0.029 A 
HETATM   18  C   UNL     1      43.804 -20.462   1.698  1.00  0.00     0.002 A 
HETATM   19  C   UNL     1      44.689 -21.062   2.589  1.00  0.00     0.000 A 
HETATM   20  C   UNL     1      44.769 -20.599   3.899  1.00  0.00     0.002 A 
HETATM   21  C   UNL     1      43.965 -19.535   4.315  1.00  0.00     0.029 A 
ENDBRANCH  13  16
ENDBRANCH  10  12
BRANCH   9  22
HETATM   22  C   UNL     1      41.070 -14.426   2.679  1.00  0.00    -0.025 A 
HETATM   23  C   UNL     1      41.858 -14.429   1.512  1.00  0.00     0.046 A 
HETATM   24  C   UNL     1      41.251 -14.447   0.258  1.00  0.00     0.066 A 
HETATM   25  C   UNL     1      39.870 -14.481   0.136  1.00  0.00     0.036 A 
HETATM   26  C   UNL     1      39.077 -14.507   1.281  1.00  0.00     0.003 A 
HETATM   27  C   UNL     1      39.671 -14.482   2.545  1.00  0.00     0.010 A 
BRANCH  24  28
HETATM   28  O   UNL     1      41.989 -14.430  -0.888  1.00  0.00    -0.361 OA
HETATM   29  H   UNL     1      41.667 -15.125  -1.486  1.00  0.00     0.217 HD
ENDBRANCH  24  28
ENDBRANCH   9  22
BRANCH   7  30
HETATM   30  C   UNL     1      40.419 -10.042   5.907  1.00  0.00     0.016 A 
HETATM   31  C   UNL     1      39.179  -9.417   6.103  1.00  0.00     0.039 A 
HETATM   32  C   UNL     1      39.115  -8.043   6.335  1.00  0.00     0.035 A 
HETATM   33 CL   UNL     1      37.587  -7.287   6.568  1.00  0.00    -0.084 Cl
HETATM   34  C   UNL     1      40.277  -7.276   6.374  1.00  0.00     0.024 A 
HETATM   35  C   UNL     1      41.516  -7.887   6.183  1.00  0.00     0.003 A 
HETATM   36  C   UNL     1      41.586  -9.264   5.954  1.00  0.00     0.015 A 
ENDBRANCH   7  30
TORSDOF 5
ENDMDL
MODEL 5
REMARK VINA RESULT:      -8.1      2.815      3.756
REMARK  5 active torsions:
REMARK  status: ('A' for Active; 'I' for Inactive)
REMARK    1  A    between atoms: C_7  and  C_8 
REMARK    2  A    between atoms: C_16  and  C_17 
REMARK    3  A    between atoms: C_19  and  O_20 
REMARK    4  A    between atoms: C_24  and  C_25 
REMARK       I    between atoms: C_25  and  N_26 
REMARK    5  A    between atoms: N_26  and  C_27 
ROOT
HETATM    1  C   UNL     1      42.493 -12.581   6.298  1.00  0.00     0.070 C 
HETATM    2  C   UNL     1      42.339 -13.579   5.177  1.00  0.00     0.037 C 
HETATM    3  N   UNL     1      43.363 -14.525   5.069  1.00  0.00    -0.192 N 
HETATM    4  C   UNL     1      43.225 -15.648   4.333  1.00  0.00     0.726 A 
HETATM    5  N   UNL     1      42.201 -15.729   3.437  1.00  0.00    -0.083 N 
HETATM    6  N   UNL     1      42.117 -16.950   2.881  1.00  0.00    -0.135 NA
HETATM    7  C   UNL     1      43.166 -17.572   3.455  1.00  0.00     0.199 A 
HETATM    8  N   UNL     1      43.874 -16.782   4.349  1.00  0.00    -0.041 NA
HETATM    9  C   UNL     1      41.247 -14.647   3.191  1.00  0.00     0.202 C 
HETATM   10  C   UNL     1      41.287 -13.616   4.315  1.00  0.00     0.062 C 
HETATM   11  H   UNL     1      44.035 -14.548   5.833  1.00  0.00     0.184 HD
ENDROOT
BRANCH  10  12
HETATM   12  C   UNL     1      40.046 -12.820   4.581  1.00  0.00     0.256 C 
HETATM   13  N   UNL     1      40.045 -11.551   4.043  1.00  0.00    -0.323 N 
HETATM   14  H   UNL     1      40.893 -11.202   3.617  1.00  0.00     0.169 HD
HETATM   15  O   UNL     1      39.118 -13.347   5.184  1.00  0.00    -0.267 OA
BRANCH  13  16
HETATM   16  C   UNL     1      38.961 -10.645   3.998  1.00  0.00     0.035 A 
HETATM   17  C   UNL     1      37.984 -10.637   3.002  1.00  0.00     0.029 A 
HETATM   18  C   UNL     1      36.958  -9.685   3.022  1.00  0.00     0.002 A 
HETATM   19  C   UNL     1      36.906  -8.730   4.032  1.00  0.00     0.000 A 
HETATM   20  C   UNL     1      37.875  -8.728   5.031  1.00  0.00     0.002 A 
HETATM   21  C   UNL     1      38.893  -9.684   5.018  1.00  0.00     0.029 A 
ENDBRANCH  13  16
ENDBRANCH  10  12
BRANCH   9  22
HETATM   22  C   UNL     1      41.521 -14.054   1.807  1.00  0.00    -0.025 A 
HETATM   23  C   UNL     1      42.140 -12.799   1.641  1.00  0.00     0.046 A 
HETATM   24  C   UNL     1      42.349 -12.286   0.363  1.00  0.00     0.066 A 
HETATM   25  C   UNL     1      41.972 -13.002  -0.763  1.00  0.00     0.036 A 
HETATM   26  C   UNL     1      41.384 -14.257  -0.617  1.00  0.00     0.003 A 
HETATM   27  C   UNL     1      41.162 -14.781   0.659  1.00  0.00     0.010 A 
BRANCH  24  28
HETATM   28  O   UNL     1      42.928 -11.066   0.174  1.00  0.00    -0.361 OA
HETATM   29  H   UNL     1      43.161 -10.964  -0.764  1.00  0.00     0.217 HD
ENDBRANCH  24  28
ENDBRANCH   9  22
BRANCH   7  30
HETATM   30  C   UNL     1      43.508 -18.969   3.206  1.00  0.00     0.016 A 
HETATM   31  C   UNL     1      44.153 -19.736   4.188  1.00  0.00     0.039 A 
HETATM   32  C   UNL     1      44.495 -21.062   3.928  1.00  0.00     0.035 A 
HETATM   33 CL   UNL     1      45.292 -21.990   5.140  1.00  0.00    -0.084 Cl
HETATM   34  C   UNL     1      44.204 -21.642   2.696  1.00  0.00     0.024 A 
HETATM   35  C   UNL     1      43.561 -20.891   1.713  1.00  0.00     0.003 A 
HETATM   36  C   UNL     1      43.213 -19.562   1.968  1.00  0.00     0.015 A 
ENDBRANCH   7  30
TORSDOF 5
ENDMDL
MODEL 6
REMARK VINA RESULT:      -8.1      2.128      2.963
REMARK  5 active torsions:
REMARK  status: ('A' for Active; 'I' for Inactive)
REMARK    1  A    between atoms: C_7  and  C_8 
REMARK    2  A    between atoms: C_16  and  C_17 
REMARK    3  A    between atoms: C_19  and  O_20 
REMARK    4  A    between atoms: C_24  and  C_25 
REMARK       I    between atoms: C_25  and  N_26 
REMARK    5  A    between atoms: N_26  and  C_27 
ROOT
HETATM    1  C   UNL     1      36.753 -12.646   0.713  1.00  0.00     0.070 C 
HETATM    2  C   UNL     1      38.087 -13.329   0.535  1.00  0.00     0.037 C 
HETATM    3  N   UNL     1      38.715 -13.738   1.715  1.00  0.00    -0.192 N 
HETATM    4  C   UNL     1      39.739 -14.617   1.713  1.00  0.00     0.726 A 
HETATM    5  N   UNL     1      40.379 -14.883   0.539  1.00  0.00    -0.083 N 
HETATM    6  N   UNL     1      41.283 -15.870   0.672  1.00  0.00    -0.135 NA
HETATM    7  C   UNL     1      41.180 -16.142   1.988  1.00  0.00     0.199 A 
HETATM    8  N   UNL     1      40.240 -15.371   2.656  1.00  0.00    -0.041 NA
HETATM    9  C   UNL     1      40.045 -14.242  -0.734  1.00  0.00     0.202 C 
HETATM   10  C   UNL     1      38.674 -13.574  -0.667  1.00  0.00     0.062 C 
HETATM   11  H   UNL     1      38.160 -13.673   2.566  1.00  0.00     0.184 HD
ENDROOT
BRANCH  10  12
HETATM   12  C   UNL     1      37.906 -13.422  -1.944  1.00  0.00     0.256 C 
HETATM   13  N   UNL     1      37.613 -12.121  -2.292  1.00  0.00    -0.323 N 
HETATM   14  H   UNL     1      37.823 -11.381  -1.634  1.00  0.00     0.169 HD
HETATM   15  O   UNL     1      37.649 -14.419  -2.608  1.00  0.00    -0.267 OA
BRANCH  13  16
HETATM   16  C   UNL     1      37.046 -11.669  -3.505  1.00  0.00     0.035 A 
HETATM   17  C   UNL     1      37.768 -11.052  -4.529  1.00  0.00     0.029 A 
HETATM   18  C   UNL     1      37.120 -10.613  -5.689  1.00  0.00     0.002 A 
HETATM   19  C   UNL     1      35.745 -10.778  -5.831  1.00  0.00     0.000 A 
HETATM   20  C   UNL     1      35.015 -11.391  -4.817  1.00  0.00     0.002 A 
HETATM   21  C   UNL     1      35.662 -11.840  -3.663  1.00  0.00     0.029 A 
ENDBRANCH  13  16
ENDBRANCH  10  12
BRANCH   9  22
HETATM   22  C   UNL     1      41.174 -13.281  -1.113  1.00  0.00    -0.025 A 
HETATM   23  C   UNL     1      41.635 -12.284  -0.231  1.00  0.00     0.046 A 
HETATM   24  C   UNL     1      42.649 -11.415  -0.627  1.00  0.00     0.066 A 
HETATM   25  C   UNL     1      43.234 -11.526  -1.879  1.00  0.00     0.036 A 
HETATM   26  C   UNL     1      42.809 -12.524  -2.753  1.00  0.00     0.003 A 
HETATM   27  C   UNL     1      41.788 -13.399  -2.373  1.00  0.00     0.010 A 
BRANCH  24  28
HETATM   28  O   UNL     1      43.101 -10.428   0.199  1.00  0.00    -0.361 OA
HETATM   29  H   UNL     1      43.977 -10.672   0.540  1.00  0.00     0.217 HD
ENDBRANCH  24  28
ENDBRANCH   9  22
BRANCH   7  30
HETATM   30  C   UNL     1      41.949 -17.189   2.655  1.00  0.00     0.016 A 
HETATM   31  C   UNL     1      42.419 -18.300   1.939  1.00  0.00     0.039 A 
HETATM   32  C   UNL     1      43.131 -19.305   2.593  1.00  0.00     0.035 A 
HETATM   33 CL   UNL     1      43.696 -20.665   1.703  1.00  0.00    -0.084 Cl
HETATM   34  C   UNL     1      43.385 -19.220   3.959  1.00  0.00     0.024 A 
HETATM   35  C   UNL     1      42.925 -18.118   4.681  1.00  0.00     0.003 A 
HETATM   36  C   UNL     1      42.213 -17.107   4.030  1.00  0.00     0.015 A 
ENDBRANCH   7  30
TORSDOF 5
ENDMDL
MODEL 7
REMARK VINA RESULT:      -8.1      3.407      9.069
REMARK  5 active torsions:
REMARK  status: ('A' for Active; 'I' for Inactive)
REMARK    1  A    between atoms: C_7  and  C_8 
REMARK    2  A    between atoms: C_16  and  C_17 
REMARK    3  A    between atoms: C_19  and  O_20 
REMARK    4  A    between atoms: C_24  and  C_25 
REMARK       I    between atoms: C_25  and  N_26 
REMARK    5  A    between atoms: N_26  and  C_27 
ROOT
HETATM    1  C   UNL     1      44.133 -17.369   1.304  1.00  0.00     0.070 C 
HETATM    2  C   UNL     1      42.905 -16.506   1.460  1.00  0.00     0.037 C 
HETATM    3  N   UNL     1      42.677 -15.592   0.427  1.00  0.00    -0.192 N 
HETATM    4  C   UNL     1      41.486 -14.978   0.265  1.00  0.00     0.726 A 
HETATM    5  N   UNL     1      40.583 -15.006   1.286  1.00  0.00    -0.083 N 
HETATM    6  N   UNL     1      39.403 -14.471   0.928  1.00  0.00    -0.135 NA
HETATM    7  C   UNL     1      39.665 -14.084  -0.336  1.00  0.00     0.199 A 
HETATM    8  N   UNL     1      40.951 -14.377  -0.765  1.00  0.00    -0.041 NA
HETATM    9  C   UNL     1      40.839 -15.639   2.581  1.00  0.00     0.202 C 
HETATM   10  C   UNL     1      42.034 -16.585   2.502  1.00  0.00     0.062 C 
HETATM   11  H   UNL     1      43.267 -15.688  -0.397  1.00  0.00     0.184 HD
ENDROOT
BRANCH  10  12
HETATM   12  C   UNL     1      42.081 -17.736   3.459  1.00  0.00     0.256 C 
HETATM   13  N   UNL     1      43.329 -18.294   3.633  1.00  0.00    -0.323 N 
HETATM   14  H   UNL     1      44.088 -17.983   3.043  1.00  0.00     0.169 HD
HETATM   15  O   UNL     1      41.059 -18.059   4.053  1.00  0.00    -0.267 OA
BRANCH  13  16
HETATM   16  C   UNL     1      43.700 -19.276   4.580  1.00  0.00     0.035 A 
HETATM   17  C   UNL     1      44.367 -20.461   4.264  1.00  0.00     0.029 A 
HETATM   18  C   UNL     1      44.674 -21.391   5.264  1.00  0.00     0.002 A 
HETATM   19  C   UNL     1      44.309 -21.148   6.585  1.00  0.00     0.000 A 
HETATM   20  C   UNL     1      43.645 -19.969   6.912  1.00  0.00     0.002 A 
HETATM   21  C   UNL     1      43.347 -19.036   5.917  1.00  0.00     0.029 A 
ENDBRANCH  13  16
ENDBRANCH  10  12
BRANCH   9  22
HETATM   22  C   UNL     1      40.994 -14.545   3.641  1.00  0.00    -0.025 A 
HETATM   23  C   UNL     1      40.234 -14.542   4.827  1.00  0.00     0.046 A 
HETATM   24  C   UNL     1      40.391 -13.514   5.754  1.00  0.00     0.066 A 
HETATM   25  C   UNL     1      41.304 -12.493   5.539  1.00  0.00     0.036 A 
HETATM   26  C   UNL     1      42.083 -12.497   4.384  1.00  0.00     0.003 A 
HETATM   27  C   UNL     1      41.932 -13.517   3.441  1.00  0.00     0.010 A 
BRANCH  24  28
HETATM   28  O   UNL     1      39.655 -13.474   6.901  1.00  0.00    -0.361 OA
HETATM   29  H   UNL     1      38.933 -14.122   6.842  1.00  0.00     0.217 HD
ENDBRANCH  24  28
ENDBRANCH   9  22
BRANCH   7  30
HETATM   30  C   UNL     1      38.675 -13.457  -1.207  1.00  0.00     0.016 A 
HETATM   31  C   UNL     1      38.174 -14.135  -2.328  1.00  0.00     0.039 A 
HETATM   32  C   UNL     1      37.246 -13.515  -3.165  1.00  0.00     0.035 A 
HETATM   33 CL   UNL     1      36.645 -14.356  -4.541  1.00  0.00    -0.084 Cl
HETATM   34  C   UNL     1      36.806 -12.221  -2.901  1.00  0.00     0.024 A 
HETATM   35  C   UNL     1      37.295 -11.538  -1.787  1.00  0.00     0.003 A 
HETATM   36  C   UNL     1      38.222 -12.155  -0.944  1.00  0.00     0.015 A 
ENDBRANCH   7  30
TORSDOF 5
ENDMDL
MODEL 8
REMARK VINA RESULT:      -7.9      3.645      8.828
REMARK  5 active torsions:
REMARK  status: ('A' for Active; 'I' for Inactive)
REMARK    1  A    between atoms: C_7  and  C_8 
REMARK    2  A    between atoms: C_16  and  C_17 
REMARK    3  A    between atoms: C_19  and  O_20 
REMARK    4  A    between atoms: C_24  and  C_25 
REMARK       I    between atoms: C_25  and  N_26 
REMARK    5  A    between atoms: N_26  and  C_27 
ROOT
HETATM    1  C   UNL     1      43.943 -16.956   1.427  1.00  0.00     0.070 C 
HETATM    2  C   UNL     1      42.684 -16.126   1.375  1.00  0.00     0.037 C 
HETATM    3  N   UNL     1      42.469 -15.433   0.180  1.00  0.00    -0.192 N 
HETATM    4  C   UNL     1      41.268 -14.906  -0.135  1.00  0.00     0.726 A 
HETATM    5  N   UNL     1      40.326 -14.775   0.842  1.00  0.00    -0.083 N 
HETATM    6  N   UNL     1      39.145 -14.362   0.349  1.00  0.00    -0.135 NA
HETATM    7  C   UNL     1      39.446 -14.211  -0.956  1.00  0.00     0.199 A 
HETATM    8  N   UNL     1      40.756 -14.530  -1.278  1.00  0.00    -0.041 NA
HETATM    9  C   UNL     1      40.549 -15.142   2.241  1.00  0.00     0.202 C 
HETATM   10  C   UNL     1      41.775 -16.040   2.383  1.00  0.00     0.062 C 
HETATM   11  H   UNL     1      43.095 -15.660  -0.590  1.00  0.00     0.184 HD
ENDROOT
BRANCH  10  12
HETATM   12  C   UNL     1      41.819 -16.987   3.543  1.00  0.00     0.256 C 
HETATM   13  N   UNL     1      42.951 -16.895   4.323  1.00  0.00    -0.323 N 
HETATM   14  H   UNL     1      43.708 -16.300   4.016  1.00  0.00     0.169 HD
HETATM   15  O   UNL     1      40.856 -17.715   3.755  1.00  0.00    -0.267 OA
BRANCH  13  16
HETATM   16  C   UNL     1      43.193 -17.543   5.556  1.00  0.00     0.035 A 
HETATM   17  C   UNL     1      43.068 -16.930   6.805  1.00  0.00     0.029 A 
HETATM   18  C   UNL     1      43.352 -17.641   7.976  1.00  0.00     0.002 A 
HETATM   19  C   UNL     1      43.770 -18.967   7.909  1.00  0.00     0.000 A 
HETATM   20  C   UNL     1      43.897 -19.588   6.670  1.00  0.00     0.002 A 
HETATM   21  C   UNL     1      43.604 -18.883   5.501  1.00  0.00     0.029 A 
ENDBRANCH  13  16
ENDBRANCH  10  12
BRANCH   9  22
HETATM   22  C   UNL     1      40.628 -13.863   3.079  1.00  0.00    -0.025 A 
HETATM   23  C   UNL     1      39.481 -13.261   3.633  1.00  0.00     0.046 A 
HETATM   24  C   UNL     1      39.596 -12.084   4.369  1.00  0.00     0.066 A 
HETATM   25  C   UNL     1      40.834 -11.497   4.586  1.00  0.00     0.036 A 
HETATM   26  C   UNL     1      41.981 -12.095   4.068  1.00  0.00     0.003 A 
HETATM   27  C   UNL     1      41.880 -13.272   3.321  1.00  0.00     0.010 A 
BRANCH  24  28
HETATM   28  O   UNL     1      38.502 -11.469   4.900  1.00  0.00    -0.361 OA
HETATM   29  H   UNL     1      37.743 -11.597   4.308  1.00  0.00     0.217 HD
ENDBRANCH  24  28
ENDBRANCH   9  22
BRANCH   7  30
HETATM   30  C   UNL     1      38.472 -13.797  -1.962  1.00  0.00     0.016 A 
HETATM   31  C   UNL     1      37.906 -12.515  -1.927  1.00  0.00     0.039 A 
HETATM   32  C   UNL     1      36.959 -12.140  -2.880  1.00  0.00     0.035 A 
HETATM   33 CL   UNL     1      36.268 -10.565  -2.822  1.00  0.00    -0.084 Cl
HETATM   34  C   UNL     1      36.565 -13.030  -3.875  1.00  0.00     0.024 A 
HETATM   35  C   UNL     1      37.122 -14.307  -3.922  1.00  0.00     0.003 A 
HETATM   36  C   UNL     1      38.073 -14.687  -2.972  1.00  0.00     0.015 A 
ENDBRANCH   7  30
TORSDOF 5
ENDMDL
MODEL 9
REMARK VINA RESULT:      -7.8      3.732      8.534
REMARK  5 active torsions:
REMARK  status: ('A' for Active; 'I' for Inactive)
REMARK    1  A    between atoms: C_7  and  C_8 
REMARK    2  A    between atoms: C_16  and  C_17 
REMARK    3  A    between atoms: C_19  and  O_20 
REMARK    4  A    between atoms: C_24  and  C_25 
REMARK       I    between atoms: C_25  and  N_26 
REMARK    5  A    between atoms: N_26  and  C_27 
ROOT
HETATM    1  C   UNL     1      40.260 -16.905   1.973  1.00  0.00     0.070 C 
HETATM    2  C   UNL     1      40.054 -15.444   1.655  1.00  0.00     0.037 C 
HETATM    3  N   UNL     1      38.836 -15.127   1.046  1.00  0.00    -0.192 N 
HETATM    4  C   UNL     1      38.378 -13.860   0.981  1.00  0.00     0.726 A 
HETATM    5  N   UNL     1      39.238 -12.832   1.233  1.00  0.00    -0.083 N 
HETATM    6  N   UNL     1      38.607 -11.645   1.260  1.00  0.00    -0.135 NA
HETATM    7  C   UNL     1      37.345 -12.013   0.966  1.00  0.00     0.199 A 
HETATM    8  N   UNL     1      37.180 -13.378   0.777  1.00  0.00    -0.041 NA
HETATM    9  C   UNL     1      40.656 -13.015   1.542  1.00  0.00     0.202 C 
HETATM   10  C   UNL     1      40.949 -14.460   1.938  1.00  0.00     0.062 C 
HETATM   11  H   UNL     1      38.146 -15.874   1.005  1.00  0.00     0.184 HD
ENDROOT
BRANCH  10  12
HETATM   12  C   UNL     1      42.114 -14.716   2.844  1.00  0.00     0.256 C 
HETATM   13  N   UNL     1      41.870 -14.489   4.181  1.00  0.00    -0.323 N 
HETATM   14  H   UNL     1      40.990 -14.070   4.452  1.00  0.00     0.169 HD
HETATM   15  O   UNL     1      43.155 -15.153   2.367  1.00  0.00    -0.267 OA
BRANCH  13  16
HETATM   16  C   UNL     1      42.721 -14.793   5.268  1.00  0.00     0.035 A 
HETATM   17  C   UNL     1      43.764 -13.973   5.703  1.00  0.00     0.029 A 
HETATM   18  C   UNL     1      44.575 -14.365   6.774  1.00  0.00     0.002 A 
HETATM   19  C   UNL     1      44.356 -15.582   7.412  1.00  0.00     0.000 A 
HETATM   20  C   UNL     1      43.319 -16.407   6.987  1.00  0.00     0.002 A 
HETATM   21  C   UNL     1      42.502 -16.013   5.925  1.00  0.00     0.029 A 
ENDBRANCH  13  16
ENDBRANCH  10  12
BRANCH   9  22
HETATM   22  C   UNL     1      41.486 -12.529   0.350  1.00  0.00    -0.025 A 
HETATM   23  C   UNL     1      41.721 -13.341  -0.777  1.00  0.00     0.046 A 
HETATM   24  C   UNL     1      42.502 -12.867  -1.829  1.00  0.00     0.066 A 
HETATM   25  C   UNL     1      43.044 -11.590  -1.795  1.00  0.00     0.036 A 
HETATM   26  C   UNL     1      42.798 -10.766  -0.700  1.00  0.00     0.003 A 
HETATM   27  C   UNL     1      42.023 -11.229   0.365  1.00  0.00     0.010 A 
BRANCH  24  28
HETATM   28  O   UNL     1      42.762 -13.637  -2.923  1.00  0.00    -0.361 OA
HETATM   29  H   UNL     1      42.000 -13.607  -3.525  1.00  0.00     0.217 HD
ENDBRANCH  24  28
ENDBRANCH   9  22
BRANCH   7  30
HETATM   30  C   UNL     1      36.228 -11.075   0.899  1.00  0.00     0.016 A 
HETATM   31  C   UNL     1      35.169 -11.284   0.003  1.00  0.00     0.039 A 
HETATM   32  C   UNL     1      34.120 -10.367  -0.068  1.00  0.00     0.035 A 
HETATM   33 CL   UNL     1      32.830 -10.633  -1.176  1.00  0.00    -0.084 Cl
HETATM   34  C   UNL     1      34.110  -9.237   0.745  1.00  0.00     0.024 A 
HETATM   35  C   UNL     1      35.156  -9.020   1.642  1.00  0.00     0.003 A 
HETATM   36  C   UNL     1      36.208  -9.937   1.719  1.00  0.00     0.015 A 
ENDBRANCH   7  30
TORSDOF 5
ENDMDL
MODEL 10
REMARK VINA RESULT:      -7.8      4.405      8.985
REMARK  5 active torsions:
REMARK  status: ('A' for Active; 'I' for Inactive)
REMARK    1  A    between atoms: C_7  and  C_8 
REMARK    2  A    between atoms: C_16  and  C_17 
REMARK    3  A    between atoms: C_19  and  O_20 
REMARK    4  A    between atoms: C_24  and  C_25 
REMARK       I    between atoms: C_25  and  N_26 
REMARK    5  A    between atoms: N_26  and  C_27 
ROOT
HETATM    1  C   UNL     1      40.440 -16.848   6.865  1.00  0.00     0.070 C 
HETATM    2  C   UNL     1      40.872 -15.823   5.845  1.00  0.00     0.037 C 
HETATM    3  N   UNL     1      40.076 -14.676   5.772  1.00  0.00    -0.192 N 
HETATM    4  C   UNL     1      40.493 -13.555   5.147  1.00  0.00     0.726 A 
HETATM    5  N   UNL     1      41.569 -13.625   4.312  1.00  0.00    -0.083 N 
HETATM    6  N   UNL     1      41.941 -12.411   3.871  1.00  0.00    -0.135 NA
HETATM    7  C   UNL     1      41.009 -11.626   4.446  1.00  0.00     0.199 A 
HETATM    8  N   UNL     1      40.095 -12.313   5.231  1.00  0.00    -0.041 NA
HETATM    9  C   UNL     1      42.291 -14.863   4.018  1.00  0.00     0.202 C 
HETATM   10  C   UNL     1      41.963 -15.946   5.042  1.00  0.00     0.062 C 
HETATM   11  H   UNL     1      39.375 -14.568   6.501  1.00  0.00     0.184 HD
ENDROOT
BRANCH  10  12
HETATM   12  C   UNL     1      42.991 -17.005   5.297  1.00  0.00     0.256 C 
HETATM   13  N   UNL     1      42.675 -18.250   4.798  1.00  0.00    -0.323 N 
HETATM   14  H   UNL     1      41.755 -18.400   4.407  1.00  0.00     0.169 HD
HETATM   15  O   UNL     1      44.037 -16.698   5.856  1.00  0.00    -0.267 OA
BRANCH  13  16
HETATM   16  C   UNL     1      43.513 -19.388   4.750  1.00  0.00     0.035 A 
HETATM   17  C   UNL     1      44.180 -19.825   3.604  1.00  0.00     0.029 A 
HETATM   18  C   UNL     1      44.972 -20.978   3.640  1.00  0.00     0.002 A 
HETATM   19  C   UNL     1      45.096 -21.708   4.818  1.00  0.00     0.000 A 
HETATM   20  C   UNL     1      44.436 -21.282   5.967  1.00  0.00     0.002 A 
HETATM   21  C   UNL     1      43.654 -20.125   5.935  1.00  0.00     0.029 A 
ENDBRANCH  13  16
ENDBRANCH  10  12
BRANCH   9  22
HETATM   22  C   UNL     1      41.992 -15.277   2.575  1.00  0.00    -0.025 A 
HETATM   23  C   UNL     1      40.874 -14.784   1.872  1.00  0.00     0.046 A 
HETATM   24  C   UNL     1      40.627 -15.206   0.568  1.00  0.00     0.066 A 
HETATM   25  C   UNL     1      41.479 -16.098  -0.066  1.00  0.00     0.036 A 
HETATM   26  C   UNL     1      42.603 -16.574   0.605  1.00  0.00     0.003 A 
HETATM   27  C   UNL     1      42.860 -16.166   1.916  1.00  0.00     0.010 A 
BRANCH  24  28
HETATM   28  O   UNL     1      39.543 -14.760  -0.129  1.00  0.00    -0.361 OA
HETATM   29  H   UNL     1      38.878 -15.467  -0.174  1.00  0.00     0.217 HD
ENDBRANCH  24  28
ENDBRANCH   9  22
BRANCH   7  30
HETATM   30  C   UNL     1      40.983 -10.173   4.306  1.00  0.00     0.016 A 
HETATM   31  C   UNL     1      40.485  -9.575   3.139  1.00  0.00     0.039 A 
HETATM   32  C   UNL     1      40.487  -8.187   3.007  1.00  0.00     0.035 A 
HETATM   33 CL   UNL     1      39.878  -7.466   1.568  1.00  0.00    -0.084 Cl
HETATM   34  C   UNL     1      40.982  -7.379   4.027  1.00  0.00     0.024 A 
HETATM   35  C   UNL     1      41.477  -7.962   5.193  1.00  0.00     0.003 A 
HETATM   36  C   UNL     1      41.475  -9.352   5.332  1.00  0.00     0.015 A 
ENDBRANCH   7  30
TORSDOF 5
ENDMDL
