MODEL 1
REMARK VINA RESULT:      -8.8      0.000      0.000
REMARK  8 active torsions:
REMARK  status: ('A' for Active; 'I' for Inactive)
REMARK    1  A    between atoms: C_2  and  N_3 
REMARK    2  A    between atoms: C_11  and  C_12 
REMARK    3  A    between atoms: C_14  and  O_15 
REMARK    4  A    between atoms: O_15  and  C_16 
REMARK    5  A    between atoms: C_18  and  O_19 
REMARK    6  A    between atoms: O_19  and  C_20 
REMARK    7  A    between atoms: C_20  and  C_21 
REMARK    8  A    between atoms: C_31  and  O_32 
ROOT
HETATM    1  N   UNL     1      42.493  -9.206  12.648  1.00  0.00    -0.067 N 
HETATM    2  H   UNL     1      42.701  -8.520  13.383  1.00  0.00     0.280 HD
HETATM    3  C   UNL     1      43.836  -9.851  12.296  1.00  0.00     0.281 C 
HETATM    4  C   UNL     1      43.749 -10.566  10.992  1.00  0.00     0.018 A 
HETATM    5  C   UNL     1      42.786 -10.337  10.024  1.00  0.00    -0.024 A 
HETATM    6  C   UNL     1      42.974 -11.203   8.900  1.00  0.00     0.057 A 
HETATM    7  C   UNL     1      44.051 -12.038   9.076  1.00  0.00     0.087 A 
HETATM    8  N   UNL     1      44.390 -12.972   8.174  1.00  0.00    -0.357 N 
HETATM    9  C   UNL     1      43.762 -12.924   6.862  1.00  0.00     0.243 C 
HETATM   10  N   UNL     1      42.533 -12.127   6.714  1.00  0.00    -0.235 NA
HETATM   11  C   UNL     1      42.225 -11.351   7.681  1.00  0.00     0.173 C 
HETATM   12  S   UNL     1      44.858 -11.777  10.546  1.00  0.00    -0.074 SA
HETATM   13  C   UNL     1      41.691  -9.331  10.229  1.00  0.00     0.068 C 
HETATM   14  C   UNL     1      41.961  -8.425  11.445  1.00  0.00     0.240 C 
HETATM   15  H   UNL     1      45.268 -13.480   8.223  1.00  0.00     0.162 HD
ENDROOT
BRANCH   9  16
HETATM   16  C   UNL     1      43.479 -14.345   6.391  1.00  0.00    -0.012 A 
HETATM   17  C   UNL     1      42.349 -14.636   5.596  1.00  0.00     0.050 A 
HETATM   18  C   UNL     1      42.134 -15.921   5.091  1.00  0.00     0.103 A 
HETATM   19  C   UNL     1      43.078 -16.915   5.375  1.00  0.00     0.112 A 
HETATM   20  C   UNL     1      44.210 -16.647   6.148  1.00  0.00     0.041 A 
HETATM   21  C   UNL     1      44.404 -15.367   6.661  1.00  0.00     0.014 A 
BRANCH  18  22
HETATM   22  O   UNL     1      41.079 -16.291   4.300  1.00  0.00    -0.349 OA
BRANCH  22  23
HETATM   23  C   UNL     1      41.048 -15.765   2.975  1.00  0.00     0.171 C 
HETATM   24  C   UNL     1      40.730 -16.904   2.023  1.00  0.00     0.034 C 
ENDBRANCH  22  23
ENDBRANCH  18  22
BRANCH  19  25
HETATM   25  O   UNL     1      42.941 -18.166   4.753  1.00  0.00    -0.272 OA
BRANCH  25  26
HETATM   26  C   UNL     1      43.750 -18.398   3.659  1.00  0.00     0.298 C 
HETATM   27  O   UNL     1      44.119 -17.583   2.827  1.00  0.00    -0.259 OA
BRANCH  26  28
HETATM   28  C   UNL     1      44.069 -19.852   3.587  1.00  0.00     0.039 A 
HETATM   29  C   UNL     1      44.482 -20.497   4.760  1.00  0.00     0.017 A 
HETATM   30  C   UNL     1      44.828 -21.851   4.736  1.00  0.00     0.001 A 
HETATM   31  C   UNL     1      44.757 -22.566   3.542  1.00  0.00     0.000 A 
HETATM   32  C   UNL     1      44.336 -21.936   2.372  1.00  0.00     0.001 A 
HETATM   33  C   UNL     1      43.991 -20.582   2.391  1.00  0.00     0.017 A 
ENDBRANCH  26  28
ENDBRANCH  25  26
ENDBRANCH  19  25
ENDBRANCH   9  16
BRANCH  11  34
HETATM   34  O   UNL     1      41.110 -10.609   7.566  1.00  0.00    -0.344 OA
HETATM   35  H   UNL     1      40.852 -10.363   8.473  1.00  0.00     0.219 HD
ENDBRANCH  11  34
BRANCH   1  36
HETATM   36  C   UNL     1      41.533 -10.211  13.250  1.00  0.00     0.231 C 
HETATM   37  C   UNL     1      41.552 -10.144  14.766  1.00  0.00     0.034 C 
ENDBRANCH   1  36
TORSDOF 8
ENDMDL
MODEL 2
REMARK VINA RESULT:      -8.6      3.161     10.275
REMARK  8 active torsions:
REMARK  status: ('A' for Active; 'I' for Inactive)
REMARK    1  A    between atoms: C_2  and  N_3 
REMARK    2  A    between atoms: C_11  and  C_12 
REMARK    3  A    between atoms: C_14  and  O_15 
REMARK    4  A    between atoms: O_15  and  C_16 
REMARK    5  A    between atoms: C_18  and  O_19 
REMARK    6  A    between atoms: O_19  and  C_20 
REMARK    7  A    between atoms: C_20  and  C_21 
REMARK    8  A    between atoms: C_31  and  O_32 
ROOT
HETATM    1  N   UNL     1      43.477 -18.569   3.983  1.00  0.00    -0.067 N 
HETATM    2  H   UNL     1      43.467 -19.528   3.615  1.00  0.00     0.280 HD
HETATM    3  C   UNL     1      42.095 -18.354   4.608  1.00  0.00     0.281 C 
HETATM    4  C   UNL     1      41.837 -16.903   4.822  1.00  0.00     0.018 A 
HETATM    5  C   UNL     1      42.501 -15.874   4.176  1.00  0.00    -0.024 A 
HETATM    6  C   UNL     1      42.028 -14.599   4.622  1.00  0.00     0.057 A 
HETATM    7  C   UNL     1      41.047 -14.726   5.576  1.00  0.00     0.087 A 
HETATM    8  N   UNL     1      40.489 -13.664   6.177  1.00  0.00    -0.357 N 
HETATM    9  C   UNL     1      40.740 -12.344   5.619  1.00  0.00     0.243 C 
HETATM   10  N   UNL     1      41.875 -12.191   4.693  1.00  0.00    -0.235 NA
HETATM   11  C   UNL     1      42.424 -13.263   4.266  1.00  0.00     0.173 C 
HETATM   12  S   UNL     1      40.662 -16.343   5.919  1.00  0.00    -0.074 SA
HETATM   13  C   UNL     1      43.600 -16.148   3.190  1.00  0.00     0.068 C 
HETATM   14  C   UNL     1      43.657 -17.633   2.787  1.00  0.00     0.240 C 
HETATM   15  H   UNL     1      39.662 -13.745   6.762  1.00  0.00     0.162 HD
ENDROOT
BRANCH   9  16
HETATM   16  C   UNL     1      40.902 -11.343   6.755  1.00  0.00    -0.012 A 
HETATM   17  C   UNL     1      42.075 -11.318   7.541  1.00  0.00     0.050 A 
HETATM   18  C   UNL     1      42.263 -10.346   8.527  1.00  0.00     0.103 A 
HETATM   19  C   UNL     1      41.267  -9.380   8.707  1.00  0.00     0.112 A 
HETATM   20  C   UNL     1      40.104  -9.376   7.933  1.00  0.00     0.041 A 
HETATM   21  C   UNL     1      39.921 -10.361   6.966  1.00  0.00     0.014 A 
BRANCH  18  22
HETATM   22  O   UNL     1      43.371 -10.234   9.322  1.00  0.00    -0.349 OA
BRANCH  22  23
HETATM   23  C   UNL     1      43.701 -11.359  10.136  1.00  0.00     0.171 C 
HETATM   24  C   UNL     1      45.014 -11.065  10.839  1.00  0.00     0.034 C 
ENDBRANCH  22  23
ENDBRANCH  18  22
BRANCH  19  25
HETATM   25  O   UNL     1      41.514  -8.320   9.594  1.00  0.00    -0.272 OA
BRANCH  25  26
HETATM   26  C   UNL     1      40.695  -8.245  10.703  1.00  0.00     0.298 C 
HETATM   27  O   UNL     1      39.651  -7.619  10.809  1.00  0.00    -0.259 OA
BRANCH  26  28
HETATM   28  C   UNL     1      41.319  -9.004  11.823  1.00  0.00     0.039 A 
HETATM   29  C   UNL     1      42.487  -8.489  12.400  1.00  0.00     0.017 A 
HETATM   30  C   UNL     1      43.130  -9.183  13.429  1.00  0.00     0.001 A 
HETATM   31  C   UNL     1      42.606 -10.390  13.888  1.00  0.00     0.000 A 
HETATM   32  C   UNL     1      41.437 -10.904  13.327  1.00  0.00     0.001 A 
HETATM   33  C   UNL     1      40.792 -10.214  12.298  1.00  0.00     0.017 A 
ENDBRANCH  26  28
ENDBRANCH  25  26
ENDBRANCH  19  25
ENDBRANCH   9  16
BRANCH  11  34
HETATM   34  O   UNL     1      43.458 -13.149   3.415  1.00  0.00    -0.344 OA
HETATM   35  H   UNL     1      43.305 -12.332   2.906  1.00  0.00     0.219 HD
ENDBRANCH  11  34
BRANCH   1  36
HETATM   36  C   UNL     1      44.574 -18.516   5.026  1.00  0.00     0.231 C 
HETATM   37  C   UNL     1      44.272 -19.447   6.185  1.00  0.00     0.034 C 
ENDBRANCH   1  36
TORSDOF 8
ENDMDL
MODEL 3
REMARK VINA RESULT:      -8.6      2.306      2.866
REMARK  8 active torsions:
REMARK  status: ('A' for Active; 'I' for Inactive)
REMARK    1  A    between atoms: C_2  and  N_3 
REMARK    2  A    between atoms: C_11  and  C_12 
REMARK    3  A    between atoms: C_14  and  O_15 
REMARK    4  A    between atoms: O_15  and  C_16 
REMARK    5  A    between atoms: C_18  and  O_19 
REMARK    6  A    between atoms: O_19  and  C_20 
REMARK    7  A    between atoms: C_20  and  C_21 
REMARK    8  A    between atoms: C_31  and  O_32 
ROOT
HETATM    1  N   UNL     1      40.487  -7.755  10.452  1.00  0.00    -0.067 N 
HETATM    2  H   UNL     1      40.354  -6.807  10.825  1.00  0.00     0.280 HD
HETATM    3  C   UNL     1      40.848  -7.569   8.975  1.00  0.00     0.281 C 
HETATM    4  C   UNL     1      40.681  -8.847   8.229  1.00  0.00     0.018 A 
HETATM    5  C   UNL     1      39.911  -9.918   8.651  1.00  0.00    -0.024 A 
HETATM    6  C   UNL     1      39.978 -10.998   7.714  1.00  0.00     0.057 A 
HETATM    7  C   UNL     1      40.791 -10.696   6.648  1.00  0.00     0.087 A 
HETATM    8  N   UNL     1      41.046 -11.577   5.668  1.00  0.00    -0.357 N 
HETATM    9  C   UNL     1      40.235 -12.783   5.597  1.00  0.00     0.243 C 
HETATM   10  N   UNL     1      39.464 -13.169   6.791  1.00  0.00    -0.235 NA
HETATM   11  C   UNL     1      39.378 -12.305   7.728  1.00  0.00     0.173 C 
HETATM   12  S   UNL     1      41.445  -9.132   6.736  1.00  0.00    -0.074 SA
HETATM   13  C   UNL     1      39.176  -9.888   9.960  1.00  0.00     0.068 C 
HETATM   14  C   UNL     1      39.142  -8.474  10.570  1.00  0.00     0.240 C 
HETATM   15  H   UNL     1      41.513 -11.309   4.807  1.00  0.00     0.162 HD
ENDROOT
BRANCH   9  16
HETATM   16  C   UNL     1      41.118 -13.955   5.190  1.00  0.00    -0.012 A 
HETATM   17  C   UNL     1      40.593 -15.043   4.459  1.00  0.00     0.050 A 
HETATM   18  C   UNL     1      41.419 -16.077   4.010  1.00  0.00     0.103 A 
HETATM   19  C   UNL     1      42.789 -16.001   4.285  1.00  0.00     0.112 A 
HETATM   20  C   UNL     1      43.334 -14.929   4.994  1.00  0.00     0.041 A 
HETATM   21  C   UNL     1      42.498 -13.913   5.452  1.00  0.00     0.014 A 
BRANCH  18  22
HETATM   22  O   UNL     1      41.002 -17.159   3.283  1.00  0.00    -0.349 OA
BRANCH  22  23
HETATM   23  C   UNL     1      40.290 -16.893   2.076  1.00  0.00     0.171 C 
HETATM   24  C   UNL     1      41.248 -17.075   0.913  1.00  0.00     0.034 C 
ENDBRANCH  22  23
ENDBRANCH  18  22
BRANCH  19  25
HETATM   25  O   UNL     1      43.641 -16.961   3.714  1.00  0.00    -0.272 OA
BRANCH  25  26
HETATM   26  C   UNL     1      44.043 -17.992   4.539  1.00  0.00     0.298 C 
HETATM   27  O   UNL     1      44.385 -17.911   5.709  1.00  0.00    -0.259 OA
BRANCH  26  28
HETATM   28  C   UNL     1      44.073 -19.260   3.758  1.00  0.00     0.039 A 
HETATM   29  C   UNL     1      44.669 -20.384   4.345  1.00  0.00     0.017 A 
HETATM   30  C   UNL     1      44.755 -21.586   3.638  1.00  0.00     0.001 A 
HETATM   31  C   UNL     1      44.241 -21.672   2.345  1.00  0.00     0.000 A 
HETATM   32  C   UNL     1      43.637 -20.562   1.757  1.00  0.00     0.001 A 
HETATM   33  C   UNL     1      43.550 -19.358   2.460  1.00  0.00     0.017 A 
ENDBRANCH  26  28
ENDBRANCH  25  26
ENDBRANCH  19  25
ENDBRANCH   9  16
BRANCH  11  34
HETATM   34  O   UNL     1      38.675 -12.632   8.827  1.00  0.00    -0.344 OA
HETATM   35  H   UNL     1      38.593 -13.603   8.820  1.00  0.00     0.219 HD
ENDBRANCH  11  34
BRANCH   1  36
HETATM   36  C   UNL     1      41.629  -8.373  11.231  1.00  0.00     0.231 C 
HETATM   37  C   UNL     1      41.471  -8.125  12.720  1.00  0.00     0.034 C 
ENDBRANCH   1  36
TORSDOF 8
ENDMDL
MODEL 4
REMARK VINA RESULT:      -8.4      7.025     11.199
REMARK  8 active torsions:
REMARK  status: ('A' for Active; 'I' for Inactive)
REMARK    1  A    between atoms: C_2  and  N_3 
REMARK    2  A    between atoms: C_11  and  C_12 
REMARK    3  A    between atoms: C_14  and  O_15 
REMARK    4  A    between atoms: O_15  and  C_16 
REMARK    5  A    between atoms: C_18  and  O_19 
REMARK    6  A    between atoms: O_19  and  C_20 
REMARK    7  A    between atoms: C_20  and  C_21 
REMARK    8  A    between atoms: C_31  and  O_32 
ROOT
HETATM    1  N   UNL     1      33.855 -11.786  -4.833  1.00  0.00    -0.067 N 
HETATM    2  H   UNL     1      33.224 -11.146  -5.330  1.00  0.00     0.280 HD
HETATM    3  C   UNL     1      34.821 -10.890  -4.053  1.00  0.00     0.281 C 
HETATM    4  C   UNL     1      36.016 -11.663  -3.613  1.00  0.00     0.018 A 
HETATM    5  C   UNL     1      36.436 -12.859  -4.170  1.00  0.00    -0.024 A 
HETATM    6  C   UNL     1      37.605 -13.350  -3.505  1.00  0.00     0.057 A 
HETATM    7  C   UNL     1      38.000 -12.514  -2.488  1.00  0.00     0.087 A 
HETATM    8  N   UNL     1      39.044 -12.796  -1.692  1.00  0.00    -0.357 N 
HETATM    9  C   UNL     1      39.936 -13.878  -2.081  1.00  0.00     0.243 C 
HETATM   10  N   UNL     1      39.453 -14.844  -3.082  1.00  0.00    -0.235 NA
HETATM   11  C   UNL     1      38.380 -14.545  -3.707  1.00  0.00     0.173 C 
HETATM   12  S   UNL     1      37.016 -11.140  -2.339  1.00  0.00    -0.074 SA
HETATM   13  C   UNL     1      35.677 -13.515  -5.286  1.00  0.00     0.068 C 
HETATM   14  C   UNL     1      34.623 -12.573  -5.897  1.00  0.00     0.240 C 
HETATM   15  H   UNL     1      39.433 -12.115  -1.047  1.00  0.00     0.162 HD
ENDROOT
BRANCH   9  16
HETATM   16  C   UNL     1      40.366 -14.642  -0.836  1.00  0.00    -0.012 A 
HETATM   17  C   UNL     1      39.768 -14.389   0.417  1.00  0.00     0.050 A 
HETATM   18  C   UNL     1      40.099 -15.148   1.542  1.00  0.00     0.103 A 
HETATM   19  C   UNL     1      41.028 -16.184   1.396  1.00  0.00     0.112 A 
HETATM   20  C   UNL     1      41.624 -16.462   0.164  1.00  0.00     0.041 A 
HETATM   21  C   UNL     1      41.299 -15.687  -0.946  1.00  0.00     0.014 A 
BRANCH  18  22
HETATM   22  O   UNL     1      39.559 -14.985   2.789  1.00  0.00    -0.349 OA
BRANCH  22  23
HETATM   23  C   UNL     1      40.009 -13.865   3.549  1.00  0.00     0.171 C 
HETATM   24  C   UNL     1      40.062 -14.276   5.010  1.00  0.00     0.034 C 
ENDBRANCH  22  23
ENDBRANCH  18  22
BRANCH  19  25
HETATM   25  O   UNL     1      41.257 -17.038   2.487  1.00  0.00    -0.272 OA
BRANCH  25  26
HETATM   26  C   UNL     1      42.492 -16.939   3.095  1.00  0.00     0.298 C 
HETATM   27  O   UNL     1      43.030 -15.925   3.514  1.00  0.00    -0.259 OA
BRANCH  26  28
HETATM   28  C   UNL     1      43.138 -18.281   3.111  1.00  0.00     0.039 A 
HETATM   29  C   UNL     1      43.817 -18.675   4.271  1.00  0.00     0.017 A 
HETATM   30  C   UNL     1      44.471 -19.908   4.322  1.00  0.00     0.001 A 
HETATM   31  C   UNL     1      44.445 -20.756   3.216  1.00  0.00     0.000 A 
HETATM   32  C   UNL     1      43.763 -20.378   2.060  1.00  0.00     0.001 A 
HETATM   33  C   UNL     1      43.108 -19.144   2.005  1.00  0.00     0.017 A 
ENDBRANCH  26  28
ENDBRANCH  25  26
ENDBRANCH  19  25
ENDBRANCH   9  16
BRANCH  11  34
HETATM   34  O   UNL     1      37.923 -15.409  -4.629  1.00  0.00    -0.344 OA
HETATM   35  H   UNL     1      38.350 -16.264  -4.438  1.00  0.00     0.219 HD
ENDBRANCH  11  34
BRANCH   1  36
HETATM   36  C   UNL     1      32.992 -12.615  -3.905  1.00  0.00     0.231 C 
HETATM   37  C   UNL     1      32.305 -11.741  -2.873  1.00  0.00     0.034 C 
ENDBRANCH   1  36
TORSDOF 8
ENDMDL
MODEL 5
REMARK VINA RESULT:      -8.4      2.265      3.398
REMARK  8 active torsions:
REMARK  status: ('A' for Active; 'I' for Inactive)
REMARK    1  A    between atoms: C_2  and  N_3 
REMARK    2  A    between atoms: C_11  and  C_12 
REMARK    3  A    between atoms: C_14  and  O_15 
REMARK    4  A    between atoms: O_15  and  C_16 
REMARK    5  A    between atoms: C_18  and  O_19 
REMARK    6  A    between atoms: O_19  and  C_20 
REMARK    7  A    between atoms: C_20  and  C_21 
REMARK    8  A    between atoms: C_31  and  O_32 
ROOT
HETATM    1  N   UNL     1      41.065  -8.301  10.545  1.00  0.00    -0.067 N 
HETATM    2  H   UNL     1      41.079  -7.375  10.989  1.00  0.00     0.280 HD
HETATM    3  C   UNL     1      41.228  -8.041   9.045  1.00  0.00     0.281 C 
HETATM    4  C   UNL     1      40.834  -9.242   8.258  1.00  0.00     0.018 A 
HETATM    5  C   UNL     1      40.033 -10.270   8.726  1.00  0.00    -0.024 A 
HETATM    6  C   UNL     1      39.862 -11.282   7.728  1.00  0.00     0.057 A 
HETATM    7  C   UNL     1      40.538 -10.974   6.572  1.00  0.00     0.087 A 
HETATM    8  N   UNL     1      40.565 -11.801   5.514  1.00  0.00    -0.357 N 
HETATM    9  C   UNL     1      39.640 -12.925   5.494  1.00  0.00     0.243 C 
HETATM   10  N   UNL     1      39.015 -13.327   6.765  1.00  0.00    -0.235 NA
HETATM   11  C   UNL     1      39.147 -12.530   7.754  1.00  0.00     0.173 C 
HETATM   12  S   UNL     1      41.345  -9.483   6.653  1.00  0.00    -0.074 SA
HETATM   13  C   UNL     1      39.499 -10.272  10.130  1.00  0.00     0.068 C 
HETATM   14  C   UNL     1      39.689  -8.909  10.820  1.00  0.00     0.240 C 
HETATM   15  H   UNL     1      40.928 -11.513   4.610  1.00  0.00     0.162 HD
ENDROOT
BRANCH   9  16
HETATM   16  C   UNL     1      40.340 -14.136   4.892  1.00  0.00    -0.012 A 
HETATM   17  C   UNL     1      41.119 -14.999   5.692  1.00  0.00     0.050 A 
HETATM   18  C   UNL     1      41.690 -16.158   5.160  1.00  0.00     0.103 A 
HETATM   19  C   UNL     1      41.456 -16.457   3.814  1.00  0.00     0.112 A 
HETATM   20  C   UNL     1      40.678 -15.626   3.005  1.00  0.00     0.041 A 
HETATM   21  C   UNL     1      40.129 -14.465   3.543  1.00  0.00     0.014 A 
BRANCH  18  22
HETATM   22  O   UNL     1      42.444 -17.059   5.863  1.00  0.00    -0.349 OA
BRANCH  22  23
HETATM   23  C   UNL     1      43.365 -16.530   6.816  1.00  0.00     0.171 C 
HETATM   24  C   UNL     1      44.671 -17.292   6.683  1.00  0.00     0.034 C 
ENDBRANCH  22  23
ENDBRANCH  18  22
BRANCH  19  25
HETATM   25  O   UNL     1      41.907 -17.689   3.314  1.00  0.00    -0.272 OA
BRANCH  25  26
HETATM   26  C   UNL     1      43.224 -17.740   2.904  1.00  0.00     0.298 C 
HETATM   27  O   UNL     1      43.921 -16.805   2.539  1.00  0.00    -0.259 OA
BRANCH  26  28
HETATM   28  C   UNL     1      43.679 -19.159   2.897  1.00  0.00     0.039 A 
HETATM   29  C   UNL     1      43.322 -19.963   1.806  1.00  0.00     0.017 A 
HETATM   30  C   UNL     1      43.694 -21.309   1.772  1.00  0.00     0.001 A 
HETATM   31  C   UNL     1      44.428 -21.857   2.823  1.00  0.00     0.000 A 
HETATM   32  C   UNL     1      44.797 -21.062   3.907  1.00  0.00     0.001 A 
HETATM   33  C   UNL     1      44.426 -19.715   3.946  1.00  0.00     0.017 A 
ENDBRANCH  26  28
ENDBRANCH  25  26
ENDBRANCH  19  25
ENDBRANCH   9  16
BRANCH  11  34
HETATM   34  O   UNL     1      38.581 -12.874   8.924  1.00  0.00    -0.344 OA
HETATM   35  H   UNL     1      38.069 -13.684   8.752  1.00  0.00     0.219 HD
ENDBRANCH  11  34
BRANCH   1  36
HETATM   36  C   UNL     1      42.243  -9.070  11.108  1.00  0.00     0.231 C 
HETATM   37  C   UNL     1      42.317  -8.928  12.616  1.00  0.00     0.034 C 
ENDBRANCH   1  36
TORSDOF 8
ENDMDL
MODEL 6
REMARK VINA RESULT:      -8.1      5.716      8.560
REMARK  8 active torsions:
REMARK  status: ('A' for Active; 'I' for Inactive)
REMARK    1  A    between atoms: C_2  and  N_3 
REMARK    2  A    between atoms: C_11  and  C_12 
REMARK    3  A    between atoms: C_14  and  O_15 
REMARK    4  A    between atoms: O_15  and  C_16 
REMARK    5  A    between atoms: C_18  and  O_19 
REMARK    6  A    between atoms: O_19  and  C_20 
REMARK    7  A    between atoms: C_20  and  C_21 
REMARK    8  A    between atoms: C_31  and  O_32 
ROOT
HETATM    1  N   UNL     1      41.786  -8.551  -2.419  1.00  0.00    -0.067 N 
HETATM    2  H   UNL     1      41.890  -7.815  -3.128  1.00  0.00     0.280 HD
HETATM    3  C   UNL     1      42.389  -9.813  -3.044  1.00  0.00     0.281 C 
HETATM    4  C   UNL     1      41.955 -11.026  -2.298  1.00  0.00     0.018 A 
HETATM    5  C   UNL     1      40.851 -11.094  -1.466  1.00  0.00    -0.024 A 
HETATM    6  C   UNL     1      40.725 -12.398  -0.887  1.00  0.00     0.057 A 
HETATM    7  C   UNL     1      41.731 -13.237  -1.301  1.00  0.00     0.087 A 
HETATM    8  N   UNL     1      41.847 -14.496  -0.850  1.00  0.00    -0.357 N 
HETATM    9  C   UNL     1      40.733 -15.068  -0.109  1.00  0.00     0.243 C 
HETATM   10  N   UNL     1      39.724 -14.148   0.440  1.00  0.00    -0.235 NA
HETATM   11  C   UNL     1      39.767 -12.935   0.042  1.00  0.00     0.173 C 
HETATM   12  S   UNL     1      42.801 -12.500  -2.393  1.00  0.00    -0.074 SA
HETATM   13  C   UNL     1      39.983  -9.895  -1.214  1.00  0.00     0.068 C 
HETATM   14  C   UNL     1      40.286  -8.749  -2.197  1.00  0.00     0.240 C 
HETATM   15  H   UNL     1      42.489 -15.164  -1.267  1.00  0.00     0.162 HD
ENDROOT
BRANCH   9  16
HETATM   16  C   UNL     1      41.276 -15.927   1.025  1.00  0.00    -0.012 A 
HETATM   17  C   UNL     1      40.905 -15.682   2.365  1.00  0.00     0.050 A 
HETATM   18  C   UNL     1      41.332 -16.521   3.397  1.00  0.00     0.103 A 
HETATM   19  C   UNL     1      42.124 -17.627   3.071  1.00  0.00     0.112 A 
HETATM   20  C   UNL     1      42.494 -17.898   1.752  1.00  0.00     0.041 A 
HETATM   21  C   UNL     1      42.076 -17.044   0.734  1.00  0.00     0.014 A 
BRANCH  18  22
HETATM   22  O   UNL     1      41.009 -16.371   4.719  1.00  0.00    -0.349 OA
BRANCH  22  23
HETATM   23  C   UNL     1      41.210 -15.081   5.293  1.00  0.00     0.171 C 
HETATM   24  C   UNL     1      42.691 -14.919   5.583  1.00  0.00     0.034 C 
ENDBRANCH  22  23
ENDBRANCH  18  22
BRANCH  19  25
HETATM   25  O   UNL     1      42.436 -18.550   4.083  1.00  0.00    -0.272 OA
BRANCH  25  26
HETATM   26  C   UNL     1      43.774 -18.700   4.385  1.00  0.00     0.298 C 
HETATM   27  O   UNL     1      44.565 -17.822   4.696  1.00  0.00    -0.259 OA
BRANCH  26  28
HETATM   28  C   UNL     1      44.159 -20.129   4.205  1.00  0.00     0.039 A 
HETATM   29  C   UNL     1      44.205 -20.641   2.902  1.00  0.00     0.017 A 
HETATM   30  C   UNL     1      44.524 -21.983   2.683  1.00  0.00     0.001 A 
HETATM   31  C   UNL     1      44.803 -22.818   3.765  1.00  0.00     0.000 A 
HETATM   32  C   UNL     1      44.770 -22.314   5.064  1.00  0.00     0.001 A 
HETATM   33  C   UNL     1      44.450 -20.972   5.287  1.00  0.00     0.017 A 
ENDBRANCH  26  28
ENDBRANCH  25  26
ENDBRANCH  19  25
ENDBRANCH   9  16
BRANCH  11  34
HETATM   34  O   UNL     1      38.853 -12.077   0.526  1.00  0.00    -0.344 OA
HETATM   35  H   UNL     1      38.016 -12.285   0.074  1.00  0.00     0.219 HD
ENDBRANCH  11  34
BRANCH   1  36
HETATM   36  C   UNL     1      42.572  -8.100  -1.206  1.00  0.00     0.231 C 
HETATM   37  C   UNL     1      44.060  -8.320  -1.406  1.00  0.00     0.034 C 
ENDBRANCH   1  36
TORSDOF 8
ENDMDL
MODEL 7
REMARK VINA RESULT:      -7.7      5.843      9.928
REMARK  8 active torsions:
REMARK  status: ('A' for Active; 'I' for Inactive)
REMARK    1  A    between atoms: C_2  and  N_3 
REMARK    2  A    between atoms: C_11  and  C_12 
REMARK    3  A    between atoms: C_14  and  O_15 
REMARK    4  A    between atoms: O_15  and  C_16 
REMARK    5  A    between atoms: C_18  and  O_19 
REMARK    6  A    between atoms: O_19  and  C_20 
REMARK    7  A    between atoms: C_20  and  C_21 
REMARK    8  A    between atoms: C_31  and  O_32 
ROOT
HETATM    1  N   UNL     1      44.587 -19.278   6.177  1.00  0.00    -0.067 N 
HETATM    2  H   UNL     1      44.830 -19.919   6.942  1.00  0.00     0.280 HD
HETATM    3  C   UNL     1      43.113 -18.920   6.391  1.00  0.00     0.281 C 
HETATM    4  C   UNL     1      42.533 -18.326   5.155  1.00  0.00     0.018 A 
HETATM    5  C   UNL     1      43.060 -18.467   3.883  1.00  0.00    -0.024 A 
HETATM    6  C   UNL     1      42.274 -17.757   2.921  1.00  0.00     0.057 A 
HETATM    7  C   UNL     1      41.208 -17.117   3.508  1.00  0.00     0.087 A 
HETATM    8  N   UNL     1      40.360 -16.347   2.809  1.00  0.00    -0.357 N 
HETATM    9  C   UNL     1      40.416 -16.403   1.355  1.00  0.00     0.243 C 
HETATM   10  N   UNL     1      41.620 -16.977   0.732  1.00  0.00    -0.235 NA
HETATM   11  C   UNL     1      42.434 -17.591   1.501  1.00  0.00     0.173 C 
HETATM   12  S   UNL     1      41.118 -17.381   5.182  1.00  0.00    -0.074 SA
HETATM   13  C   UNL     1      44.326 -19.237   3.640  1.00  0.00     0.068 C 
HETATM   14  C   UNL     1      44.747 -20.059   4.872  1.00  0.00     0.240 C 
HETATM   15  H   UNL     1      39.490 -16.003   3.203  1.00  0.00     0.162 HD
ENDROOT
BRANCH   9  16
HETATM   16  C   UNL     1      40.197 -15.005   0.793  1.00  0.00    -0.012 A 
HETATM   17  C   UNL     1      40.481 -14.711  -0.559  1.00  0.00     0.050 A 
HETATM   18  C   UNL     1      40.199 -13.454  -1.099  1.00  0.00     0.103 A 
HETATM   19  C   UNL     1      39.609 -12.492  -0.273  1.00  0.00     0.112 A 
HETATM   20  C   UNL     1      39.306 -12.762   1.064  1.00  0.00     0.041 A 
HETATM   21  C   UNL     1      39.608 -14.014   1.595  1.00  0.00     0.014 A 
BRANCH  18  22
HETATM   22  O   UNL     1      40.424 -13.087  -2.398  1.00  0.00    -0.349 OA
BRANCH  22  23
HETATM   23  C   UNL     1      41.556 -13.663  -3.048  1.00  0.00     0.171 C 
HETATM   24  C   UNL     1      42.786 -12.869  -2.646  1.00  0.00     0.034 C 
ENDBRANCH  22  23
ENDBRANCH  18  22
BRANCH  19  25
HETATM   25  O   UNL     1      39.194 -11.279  -0.847  1.00  0.00    -0.272 OA
BRANCH  25  26
HETATM   26  C   UNL     1      39.709 -10.128  -0.287  1.00  0.00     0.298 C 
HETATM   27  O   UNL     1      39.164  -9.391   0.523  1.00  0.00    -0.259 OA
BRANCH  26  28
HETATM   28  C   UNL     1      41.048  -9.852  -0.880  1.00  0.00     0.039 A 
HETATM   29  C   UNL     1      42.172  -9.948  -0.048  1.00  0.00     0.017 A 
HETATM   30  C   UNL     1      43.445  -9.664  -0.548  1.00  0.00     0.001 A 
HETATM   31  C   UNL     1      43.602  -9.288  -1.881  1.00  0.00     0.000 A 
HETATM   32  C   UNL     1      42.491  -9.201  -2.719  1.00  0.00     0.001 A 
HETATM   33  C   UNL     1      41.215  -9.483  -2.223  1.00  0.00     0.017 A 
ENDBRANCH  26  28
ENDBRANCH  25  26
ENDBRANCH  19  25
ENDBRANCH   9  16
BRANCH  11  34
HETATM   34  O   UNL     1      43.539 -18.128   0.954  1.00  0.00    -0.344 OA
HETATM   35  H   UNL     1      44.261 -17.972   1.589  1.00  0.00     0.219 HD
ENDBRANCH  11  34
BRANCH   1  36
HETATM   36  C   UNL     1      45.482 -18.065   6.327  1.00  0.00     0.231 C 
HETATM   37  C   UNL     1      44.733 -16.909   6.963  1.00  0.00     0.034 C 
ENDBRANCH   1  36
TORSDOF 8
ENDMDL
MODEL 8
REMARK VINA RESULT:      -7.6      5.772      9.379
REMARK  8 active torsions:
REMARK  status: ('A' for Active; 'I' for Inactive)
REMARK    1  A    between atoms: C_2  and  N_3 
REMARK    2  A    between atoms: C_11  and  C_12 
REMARK    3  A    between atoms: C_14  and  O_15 
REMARK    4  A    between atoms: O_15  and  C_16 
REMARK    5  A    between atoms: C_18  and  O_19 
REMARK    6  A    between atoms: O_19  and  C_20 
REMARK    7  A    between atoms: C_20  and  C_21 
REMARK    8  A    between atoms: C_31  and  O_32 
ROOT
HETATM    1  N   UNL     1      39.017 -10.176  -4.324  1.00  0.00    -0.067 N 
HETATM    2  H   UNL     1      38.560  -9.678  -5.097  1.00  0.00     0.280 HD
HETATM    3  C   UNL     1      38.168 -11.428  -4.082  1.00  0.00     0.281 C 
HETATM    4  C   UNL     1      38.482 -12.025  -2.754  1.00  0.00     0.018 A 
HETATM    5  C   UNL     1      39.090 -11.355  -1.706  1.00  0.00    -0.024 A 
HETATM    6  C   UNL     1      39.265 -12.220  -0.578  1.00  0.00     0.057 A 
HETATM    7  C   UNL     1      38.792 -13.486  -0.830  1.00  0.00     0.087 A 
HETATM    8  N   UNL     1      38.895 -14.481   0.065  1.00  0.00    -0.357 N 
HETATM    9  C   UNL     1      39.277 -14.146   1.428  1.00  0.00     0.243 C 
HETATM   10  N   UNL     1      39.900 -12.834   1.668  1.00  0.00    -0.235 NA
HETATM   11  C   UNL     1      39.859 -11.989   0.711  1.00  0.00     0.173 C 
HETATM   12  S   UNL     1      38.115 -13.644  -2.378  1.00  0.00    -0.074 SA
HETATM   13  C   UNL     1      39.527  -9.925  -1.837  1.00  0.00     0.068 C 
HETATM   14  C   UNL     1      38.951  -9.260  -3.101  1.00  0.00     0.240 C 
HETATM   15  H   UNL     1      38.412 -15.367  -0.053  1.00  0.00     0.162 HD
ENDROOT
BRANCH   9  16
HETATM   16  C   UNL     1      40.201 -15.229   1.968  1.00  0.00    -0.012 A 
HETATM   17  C   UNL     1      40.580 -15.251   3.328  1.00  0.00     0.050 A 
HETATM   18  C   UNL     1      41.357 -16.292   3.844  1.00  0.00     0.103 A 
HETATM   19  C   UNL     1      41.737 -17.328   2.984  1.00  0.00     0.112 A 
HETATM   20  C   UNL     1      41.364 -17.335   1.639  1.00  0.00     0.041 A 
HETATM   21  C   UNL     1      40.604 -16.284   1.132  1.00  0.00     0.014 A 
BRANCH  18  22
HETATM   22  O   UNL     1      41.756 -16.404   5.149  1.00  0.00    -0.349 OA
BRANCH  22  23
HETATM   23  C   UNL     1      42.857 -15.596   5.562  1.00  0.00     0.171 C 
HETATM   24  C   UNL     1      43.894 -16.501   6.201  1.00  0.00     0.034 C 
ENDBRANCH  22  23
ENDBRANCH  18  22
BRANCH  19  25
HETATM   25  O   UNL     1      42.394 -18.443   3.529  1.00  0.00    -0.272 OA
BRANCH  25  26
HETATM   26  C   UNL     1      43.706 -18.632   3.142  1.00  0.00     0.298 C 
HETATM   27  O   UNL     1      44.423 -17.839   2.550  1.00  0.00    -0.259 OA
BRANCH  26  28
HETATM   28  C   UNL     1      44.125 -20.017   3.496  1.00  0.00     0.039 A 
HETATM   29  C   UNL     1      44.109 -20.990   2.489  1.00  0.00     0.017 A 
HETATM   30  C   UNL     1      44.458 -22.312   2.779  1.00  0.00     0.001 A 
HETATM   31  C   UNL     1      44.829 -22.665   4.075  1.00  0.00     0.000 A 
HETATM   32  C   UNL     1      44.859 -21.701   5.082  1.00  0.00     0.001 A 
HETATM   33  C   UNL     1      44.509 -20.379   4.796  1.00  0.00     0.017 A 
ENDBRANCH  26  28
ENDBRANCH  25  26
ENDBRANCH  19  25
ENDBRANCH   9  16
BRANCH  11  34
HETATM   34  O   UNL     1      40.418 -10.782   0.908  1.00  0.00    -0.344 OA
HETATM   35  H   UNL     1      40.641 -10.736   1.856  1.00  0.00     0.219 HD
ENDBRANCH  11  34
BRANCH   1  36
HETATM   36  C   UNL     1      40.410 -10.531  -4.800  1.00  0.00     0.231 C 
HETATM   37  C   UNL     1      41.204  -9.285  -5.142  1.00  0.00     0.034 C 
ENDBRANCH   1  36
TORSDOF 8
ENDMDL
MODEL 9
REMARK VINA RESULT:      -7.6      3.226     10.216
REMARK  8 active torsions:
REMARK  status: ('A' for Active; 'I' for Inactive)
REMARK    1  A    between atoms: C_2  and  N_3 
REMARK    2  A    between atoms: C_11  and  C_12 
REMARK    3  A    between atoms: C_14  and  O_15 
REMARK    4  A    between atoms: O_15  and  C_16 
REMARK    5  A    between atoms: C_18  and  O_19 
REMARK    6  A    between atoms: O_19  and  C_20 
REMARK    7  A    between atoms: C_20  and  C_21 
REMARK    8  A    between atoms: C_31  and  O_32 
ROOT
HETATM    1  N   UNL     1      43.468 -18.520   4.278  1.00  0.00    -0.067 N 
HETATM    2  H   UNL     1      43.435 -19.503   3.982  1.00  0.00     0.280 HD
HETATM    3  C   UNL     1      42.101 -18.233   4.905  1.00  0.00     0.281 C 
HETATM    4  C   UNL     1      41.872 -16.765   5.014  1.00  0.00     0.018 A 
HETATM    5  C   UNL     1      42.544 -15.800   4.282  1.00  0.00    -0.024 A 
HETATM    6  C   UNL     1      42.101 -14.487   4.639  1.00  0.00     0.057 A 
HETATM    7  C   UNL     1      41.133 -14.523   5.613  1.00  0.00     0.087 A 
HETATM    8  N   UNL     1      40.604 -13.409   6.142  1.00  0.00    -0.357 N 
HETATM    9  C   UNL     1      40.870 -12.139   5.482  1.00  0.00     0.243 C 
HETATM   10  N   UNL     1      41.992 -12.077   4.531  1.00  0.00    -0.235 NA
HETATM   11  C   UNL     1      42.514 -13.188   4.177  1.00  0.00     0.173 C 
HETATM   12  S   UNL     1      40.725 -16.103   6.083  1.00  0.00    -0.074 SA
HETATM   13  C   UNL     1      43.622 -16.167   3.304  1.00  0.00     0.068 C 
HETATM   14  C   UNL     1      43.646 -17.679   3.013  1.00  0.00     0.240 C 
HETATM   15  H   UNL     1      39.785 -13.430   6.742  1.00  0.00     0.162 HD
ENDROOT
BRANCH   9  16
HETATM   16  C   UNL     1      41.068 -11.060   6.537  1.00  0.00    -0.012 A 
HETATM   17  C   UNL     1      40.339  -9.852   6.489  1.00  0.00     0.050 A 
HETATM   18  C   UNL     1      40.454  -8.897   7.503  1.00  0.00     0.103 A 
HETATM   19  C   UNL     1      41.298  -9.174   8.584  1.00  0.00     0.112 A 
HETATM   20  C   UNL     1      42.019 -10.367   8.661  1.00  0.00     0.041 A 
HETATM   21  C   UNL     1      41.909 -11.303   7.636  1.00  0.00     0.014 A 
BRANCH  18  22
HETATM   22  O   UNL     1      39.776  -7.709   7.547  1.00  0.00    -0.349 OA
BRANCH  22  23
HETATM   23  C   UNL     1      38.351  -7.776   7.540  1.00  0.00     0.171 C 
HETATM   24  C   UNL     1      37.863  -7.311   6.180  1.00  0.00     0.034 C 
ENDBRANCH  22  23
ENDBRANCH  18  22
BRANCH  19  25
HETATM   25  O   UNL     1      41.307  -8.285   9.671  1.00  0.00    -0.272 OA
BRANCH  25  26
HETATM   26  C   UNL     1      40.468  -8.595  10.723  1.00  0.00     0.298 C 
HETATM   27  O   UNL     1      39.262  -8.406  10.786  1.00  0.00    -0.259 OA
BRANCH  26  28
HETATM   28  C   UNL     1      41.276  -9.147  11.846  1.00  0.00     0.039 A 
HETATM   29  C   UNL     1      40.711 -10.161  12.631  1.00  0.00     0.017 A 
HETATM   30  C   UNL     1      41.414 -10.685  13.718  1.00  0.00     0.001 A 
HETATM   31  C   UNL     1      42.686 -10.203  14.024  1.00  0.00     0.000 A 
HETATM   32  C   UNL     1      43.261  -9.202  13.242  1.00  0.00     0.001 A 
HETATM   33  C   UNL     1      42.560  -8.674  12.154  1.00  0.00     0.017 A 
ENDBRANCH  26  28
ENDBRANCH  25  26
ENDBRANCH  19  25
ENDBRANCH   9  16
BRANCH  11  34
HETATM   34  O   UNL     1      43.537 -13.158   3.305  1.00  0.00    -0.344 OA
HETATM   35  H   UNL     1      43.924 -12.266   3.370  1.00  0.00     0.219 HD
ENDBRANCH  11  34
BRANCH   1  36
HETATM   36  C   UNL     1      44.583 -18.410   5.297  1.00  0.00     0.231 C 
HETATM   37  C   UNL     1      44.227 -19.142   6.577  1.00  0.00     0.034 C 
ENDBRANCH   1  36
TORSDOF 8
ENDMDL
MODEL 10
REMARK VINA RESULT:      -7.6      5.759     10.047
REMARK  8 active torsions:
REMARK  status: ('A' for Active; 'I' for Inactive)
REMARK    1  A    between atoms: C_2  and  N_3 
REMARK    2  A    between atoms: C_11  and  C_12 
REMARK    3  A    between atoms: C_14  and  O_15 
REMARK    4  A    between atoms: O_15  and  C_16 
REMARK    5  A    between atoms: C_18  and  O_19 
REMARK    6  A    between atoms: O_19  and  C_20 
REMARK    7  A    between atoms: C_20  and  C_21 
REMARK    8  A    between atoms: C_31  and  O_32 
ROOT
HETATM    1  N   UNL     1      44.414 -19.288   6.365  1.00  0.00    -0.067 N 
HETATM    2  H   UNL     1      44.546 -19.905   7.175  1.00  0.00     0.280 HD
HETATM    3  C   UNL     1      42.979 -18.765   6.475  1.00  0.00     0.281 C 
HETATM    4  C   UNL     1      42.531 -18.187   5.177  1.00  0.00     0.018 A 
HETATM    5  C   UNL     1      43.105 -18.459   3.947  1.00  0.00    -0.024 A 
HETATM    6  C   UNL     1      42.450 -17.727   2.904  1.00  0.00     0.057 A 
HETATM    7  C   UNL     1      41.432 -16.945   3.394  1.00  0.00     0.087 A 
HETATM    8  N   UNL     1      40.710 -16.132   2.607  1.00  0.00    -0.357 N 
HETATM    9  C   UNL     1      40.833 -16.279   1.165  1.00  0.00     0.243 C 
HETATM   10  N   UNL     1      41.998 -17.013   0.643  1.00  0.00    -0.235 NA
HETATM   11  C   UNL     1      42.701 -17.664   1.489  1.00  0.00     0.173 C 
HETATM   12  S   UNL     1      41.228 -17.097   5.072  1.00  0.00    -0.074 SA
HETATM   13  C   UNL     1      44.290 -19.371   3.818  1.00  0.00     0.068 C 
HETATM   14  C   UNL     1      44.555 -20.158   5.114  1.00  0.00     0.240 C 
HETATM   15  H   UNL     1      39.863 -15.675   2.932  1.00  0.00     0.162 HD
ENDROOT
BRANCH   9  16
HETATM   16  C   UNL     1      40.797 -14.902   0.517  1.00  0.00    -0.012 A 
HETATM   17  C   UNL     1      40.395 -13.764   1.249  1.00  0.00     0.050 A 
HETATM   18  C   UNL     1      40.444 -12.487   0.683  1.00  0.00     0.103 A 
HETATM   19  C   UNL     1      40.920 -12.357  -0.626  1.00  0.00     0.112 A 
HETATM   20  C   UNL     1      41.336 -13.466  -1.366  1.00  0.00     0.041 A 
HETATM   21  C   UNL     1      41.266 -14.736  -0.797  1.00  0.00     0.014 A 
BRANCH  18  22
HETATM   22  O   UNL     1      40.092 -11.328   1.322  1.00  0.00    -0.349 OA
BRANCH  22  23
HETATM   23  C   UNL     1      39.904 -11.398   2.734  1.00  0.00     0.171 C 
HETATM   24  C   UNL     1      38.433 -11.162   3.027  1.00  0.00     0.034 C 
ENDBRANCH  22  23
ENDBRANCH  18  22
BRANCH  19  25
HETATM   25  O   UNL     1      41.106 -11.066  -1.146  1.00  0.00    -0.272 OA
BRANCH  25  26
HETATM   26  C   UNL     1      42.398 -10.724  -1.491  1.00  0.00     0.298 C 
HETATM   27  O   UNL     1      43.386 -10.748  -0.771  1.00  0.00    -0.259 OA
BRANCH  26  28
HETATM   28  C   UNL     1      42.415 -10.233  -2.897  1.00  0.00     0.039 A 
HETATM   29  C   UNL     1      42.450  -8.849  -3.113  1.00  0.00     0.017 A 
HETATM   30  C   UNL     1      42.430  -8.337  -4.413  1.00  0.00     0.001 A 
HETATM   31  C   UNL     1      42.380  -9.206  -5.503  1.00  0.00     0.000 A 
HETATM   32  C   UNL     1      42.356 -10.585  -5.298  1.00  0.00     0.001 A 
HETATM   33  C   UNL     1      42.375 -11.100  -3.999  1.00  0.00     0.017 A 
ENDBRANCH  26  28
ENDBRANCH  25  26
ENDBRANCH  19  25
ENDBRANCH   9  16
BRANCH  11  34
HETATM   34  O   UNL     1      43.766 -18.346   1.036  1.00  0.00    -0.344 OA
HETATM   35  H   UNL     1      44.552 -17.845   1.321  1.00  0.00     0.219 HD
ENDBRANCH  11  34
BRANCH   1  36
HETATM   36  C   UNL     1      45.427 -18.170   6.500  1.00  0.00     0.231 C 
HETATM   37  C   UNL     1      44.764 -16.886   6.963  1.00  0.00     0.034 C 
ENDBRANCH   1  36
TORSDOF 8
ENDMDL
