MODEL 1
REMARK VINA RESULT:      -8.7      0.000      0.000
REMARK  8 active torsions:
REMARK  status: ('A' for Active; 'I' for Inactive)
REMARK    1  A    between atoms: O_2  and  C_3 
REMARK    2  A    between atoms: C_5  and  O_6 
REMARK    3  A    between atoms: C_8  and  C_9 
REMARK    4  A    between atoms: N_10  and  C_12 
REMARK    5  A    between atoms: C_12  and  C_13 
REMARK       I    between atoms: C_13  and  N_14 
REMARK    6  A    between atoms: N_14  and  C_15 
REMARK    7  A    between atoms: C_16  and  C_17 
REMARK    8  A    between atoms: C_17  and  C_18 
ROOT
HETATM    1  C   UNL     1      43.409 -14.973   3.471  1.00  0.00     0.338 C 
ENDROOT
BRANCH   1   2
HETATM    2  N   UNL     1      42.814 -15.239   4.853  1.00  0.00    -0.054 N 
HETATM    3  C   UNL     1      42.387 -16.658   5.242  1.00  0.00     0.224 C 
HETATM    4  C   UNL     1      40.862 -16.555   5.242  1.00  0.00     0.040 C 
HETATM    5  C   UNL     1      40.634 -15.200   5.882  1.00  0.00     0.030 C 
HETATM    6  C   UNL     1      41.660 -14.309   5.205  1.00  0.00     0.236 C 
HETATM    7  H   UNL     1      43.590 -15.041   5.496  1.00  0.00     0.281 HD
BRANCH   3   8
HETATM    8  C   UNL     1      43.050 -17.812   4.529  1.00  0.00     0.006 A 
HETATM    9  C   UNL     1      44.067 -18.555   5.171  1.00  0.00     0.079 A 
HETATM   10  C   UNL     1      44.709 -19.608   4.504  1.00  0.00     0.074 A 
HETATM   11  C   UNL     1      44.321 -19.962   3.213  1.00  0.00     0.070 A 
HETATM   12  C   UNL     1      43.264 -19.286   2.607  1.00  0.00     0.037 A 
HETATM   13  C   UNL     1      42.634 -18.221   3.253  1.00  0.00     0.015 A 
BRANCH   9  14
HETATM   14  O   UNL     1      44.383 -18.137   6.444  1.00  0.00    -0.355 OA
HETATM   15  C   UNL     1      44.008 -18.994   7.525  1.00  0.00     0.210 C 
ENDBRANCH   9  14
BRANCH  11  16
HETATM   16  O   UNL     1      44.876 -20.945   2.446  1.00  0.00    -0.356 OA
HETATM   17  C   UNL     1      43.988 -21.801   1.735  1.00  0.00     0.210 C 
ENDBRANCH  11  16
ENDBRANCH   3   8
ENDBRANCH   1   2
BRANCH   1  18
HETATM   18  C   UNL     1      42.544 -14.209   2.464  1.00  0.00     0.248 C 
HETATM   19  N   UNL     1      41.500 -14.945   1.951  1.00  0.00    -0.325 N 
HETATM   20  H   UNL     1      41.562 -15.944   2.114  1.00  0.00     0.169 HD
HETATM   21  O   UNL     1      42.858 -13.057   2.195  1.00  0.00    -0.271 OA
BRANCH  19  22
HETATM   22  C   UNL     1      40.431 -14.597   1.083  1.00  0.00     0.041 A 
HETATM   23  C   UNL     1      40.460 -14.264  -0.286  1.00  0.00    -0.027 A 
HETATM   24  C   UNL     1      39.231 -13.929  -0.920  1.00  0.00     0.010 A 
HETATM   25  C   UNL     1      38.017 -13.910  -0.239  1.00  0.00     0.001 A 
HETATM   26  C   UNL     1      37.992 -14.230   1.103  1.00  0.00     0.002 A 
HETATM   27  C   UNL     1      39.181 -14.568   1.748  1.00  0.00     0.030 A 
BRANCH  23  28
HETATM   28  C   UNL     1      41.668 -14.193  -1.199  1.00  0.00     0.079 C 
BRANCH  28  29
HETATM   29  C   UNL     1      41.985 -12.845  -1.819  1.00  0.00    -0.054 A 
HETATM   30  C   UNL     1      42.482 -11.819  -0.998  1.00  0.00     0.007 A 
HETATM   31  C   UNL     1      42.899 -10.603  -1.539  1.00  0.00     0.001 A 
HETATM   32  C   UNL     1      42.838 -10.399  -2.914  1.00  0.00     0.000 A 
HETATM   33  C   UNL     1      42.356 -11.408  -3.745  1.00  0.00     0.001 A 
HETATM   34  C   UNL     1      41.937 -12.626  -3.202  1.00  0.00     0.007 A 
ENDBRANCH  28  29
ENDBRANCH  23  28
ENDBRANCH  19  22
ENDBRANCH   1  18
TORSDOF 8
ENDMDL
MODEL 2
REMARK VINA RESULT:      -8.5      2.258      8.191
REMARK  8 active torsions:
REMARK  status: ('A' for Active; 'I' for Inactive)
REMARK    1  A    between atoms: O_2  and  C_3 
REMARK    2  A    between atoms: C_5  and  O_6 
REMARK    3  A    between atoms: C_8  and  C_9 
REMARK    4  A    between atoms: N_10  and  C_12 
REMARK    5  A    between atoms: C_12  and  C_13 
REMARK       I    between atoms: C_13  and  N_14 
REMARK    6  A    between atoms: N_14  and  C_15 
REMARK    7  A    between atoms: C_16  and  C_17 
REMARK    8  A    between atoms: C_17  and  C_18 
ROOT
HETATM    1  C   UNL     1      41.317 -16.329   0.138  1.00  0.00     0.338 C 
ENDROOT
BRANCH   1   2
HETATM    2  N   UNL     1      40.104 -15.560   0.659  1.00  0.00    -0.054 N 
HETATM    3  C   UNL     1      39.961 -14.064   0.364  1.00  0.00     0.224 C 
HETATM    4  C   UNL     1      40.223 -13.431   1.731  1.00  0.00     0.040 C 
HETATM    5  C   UNL     1      39.486 -14.371   2.664  1.00  0.00     0.030 C 
HETATM    6  C   UNL     1      39.862 -15.749   2.152  1.00  0.00     0.236 C 
HETATM    7  H   UNL     1      39.313 -15.978   0.154  1.00  0.00     0.281 HD
BRANCH   3   8
HETATM    8  C   UNL     1      40.669 -13.516  -0.852  1.00  0.00     0.006 A 
HETATM    9  C   UNL     1      40.106 -13.683  -2.138  1.00  0.00     0.079 A 
HETATM   10  C   UNL     1      40.773 -13.205  -3.274  1.00  0.00     0.074 A 
HETATM   11  C   UNL     1      41.981 -12.521  -3.144  1.00  0.00     0.070 A 
HETATM   12  C   UNL     1      42.499 -12.284  -1.874  1.00  0.00     0.037 A 
HETATM   13  C   UNL     1      41.855 -12.775  -0.737  1.00  0.00     0.015 A 
BRANCH   9  14
HETATM   14  O   UNL     1      38.912 -14.366  -2.170  1.00  0.00    -0.355 OA
HETATM   15  C   UNL     1      38.558 -15.006  -3.399  1.00  0.00     0.210 C 
ENDBRANCH   9  14
BRANCH  11  16
HETATM   16  O   UNL     1      42.741 -12.028  -4.165  1.00  0.00    -0.356 OA
HETATM   17  C   UNL     1      42.304 -10.822  -4.784  1.00  0.00     0.210 C 
ENDBRANCH  11  16
ENDBRANCH   3   8
ENDBRANCH   1   2
BRANCH   1  18
HETATM   18  C   UNL     1      42.402 -16.708   1.150  1.00  0.00     0.248 C 
HETATM   19  N   UNL     1      42.185 -17.912   1.779  1.00  0.00    -0.325 N 
HETATM   20  H   UNL     1      41.248 -18.284   1.677  1.00  0.00     0.169 HD
HETATM   21  O   UNL     1      43.326 -15.923   1.322  1.00  0.00    -0.271 OA
BRANCH  19  22
HETATM   22  C   UNL     1      42.974 -18.661   2.693  1.00  0.00     0.041 A 
HETATM   23  C   UNL     1      43.018 -18.598   4.101  1.00  0.00    -0.027 A 
HETATM   24  C   UNL     1      43.927 -19.454   4.781  1.00  0.00     0.010 A 
HETATM   25  C   UNL     1      44.773 -20.334   4.112  1.00  0.00     0.001 A 
HETATM   26  C   UNL     1      44.733 -20.390   2.734  1.00  0.00     0.002 A 
HETATM   27  C   UNL     1      43.847 -19.566   2.041  1.00  0.00     0.030 A 
BRANCH  23  28
HETATM   28  C   UNL     1      42.213 -17.695   5.015  1.00  0.00     0.079 C 
BRANCH  28  29
HETATM   29  C   UNL     1      42.852 -16.381   5.421  1.00  0.00    -0.054 A 
HETATM   30  C   UNL     1      43.613 -16.331   6.601  1.00  0.00     0.007 A 
HETATM   31  C   UNL     1      44.317 -15.180   6.956  1.00  0.00     0.001 A 
HETATM   32  C   UNL     1      44.282 -14.063   6.126  1.00  0.00     0.000 A 
HETATM   33  C   UNL     1      43.541 -14.098   4.947  1.00  0.00     0.001 A 
HETATM   34  C   UNL     1      42.834 -15.250   4.593  1.00  0.00     0.007 A 
ENDBRANCH  28  29
ENDBRANCH  23  28
ENDBRANCH  19  22
ENDBRANCH   1  18
TORSDOF 8
ENDMDL
MODEL 3
REMARK VINA RESULT:      -8.5      2.254      7.956
REMARK  8 active torsions:
REMARK  status: ('A' for Active; 'I' for Inactive)
REMARK    1  A    between atoms: O_2  and  C_3 
REMARK    2  A    between atoms: C_5  and  O_6 
REMARK    3  A    between atoms: C_8  and  C_9 
REMARK    4  A    between atoms: N_10  and  C_12 
REMARK    5  A    between atoms: C_12  and  C_13 
REMARK       I    between atoms: C_13  and  N_14 
REMARK    6  A    between atoms: N_14  and  C_15 
REMARK    7  A    between atoms: C_16  and  C_17 
REMARK    8  A    between atoms: C_17  and  C_18 
ROOT
HETATM    1  C   UNL     1      40.283 -15.072   1.045  1.00  0.00     0.338 C 
ENDROOT
BRANCH   1   2
HETATM    2  N   UNL     1      41.498 -14.241   0.635  1.00  0.00    -0.054 N 
HETATM    3  C   UNL     1      41.667 -12.816   1.171  1.00  0.00     0.224 C 
HETATM    4  C   UNL     1      41.390 -11.962  -0.067  1.00  0.00     0.040 C 
HETATM    5  C   UNL     1      42.098 -12.742  -1.156  1.00  0.00     0.030 C 
HETATM    6  C   UNL     1      41.711 -14.182  -0.873  1.00  0.00     0.236 C 
HETATM    7  H   UNL     1      42.291 -14.745   1.048  1.00  0.00     0.281 HD
BRANCH   3   8
HETATM    8  C   UNL     1      40.988 -12.470   2.475  1.00  0.00     0.006 A 
HETATM    9  C   UNL     1      41.652 -12.692   3.703  1.00  0.00     0.079 A 
HETATM   10  C   UNL     1      41.016 -12.403   4.918  1.00  0.00     0.074 A 
HETATM   11  C   UNL     1      39.735 -11.852   4.928  1.00  0.00     0.070 A 
HETATM   12  C   UNL     1      39.110 -11.556   3.719  1.00  0.00     0.037 A 
HETATM   13  C   UNL     1      39.724 -11.861   2.504  1.00  0.00     0.015 A 
BRANCH   9  14
HETATM   14  O   UNL     1      42.912 -13.235   3.598  1.00  0.00    -0.355 OA
HETATM   15  C   UNL     1      43.584 -13.566   4.815  1.00  0.00     0.210 C 
ENDBRANCH   9  14
BRANCH  11  16
HETATM   16  O   UNL     1      38.997 -11.547   6.035  1.00  0.00    -0.356 OA
HETATM   17  C   UNL     1      39.678 -11.506   7.285  1.00  0.00     0.210 C 
ENDBRANCH  11  16
ENDBRANCH   3   8
ENDBRANCH   1   2
BRANCH   1  18
HETATM   18  C   UNL     1      40.497 -16.166   2.095  1.00  0.00     0.248 C 
HETATM   19  N   UNL     1      41.442 -15.853   3.045  1.00  0.00    -0.325 N 
HETATM   20  H   UNL     1      42.034 -15.064   2.814  1.00  0.00     0.169 HD
HETATM   21  O   UNL     1      39.847 -17.198   1.989  1.00  0.00    -0.271 OA
BRANCH  19  22
HETATM   22  C   UNL     1      41.866 -16.531   4.220  1.00  0.00     0.041 A 
HETATM   23  C   UNL     1      42.923 -17.446   4.395  1.00  0.00    -0.027 A 
HETATM   24  C   UNL     1      43.120 -18.003   5.688  1.00  0.00     0.010 A 
HETATM   25  C   UNL     1      42.307 -17.685   6.773  1.00  0.00     0.001 A 
HETATM   26  C   UNL     1      41.268 -16.794   6.598  1.00  0.00     0.002 A 
HETATM   27  C   UNL     1      41.056 -16.229   5.341  1.00  0.00     0.030 A 
BRANCH  23  28
HETATM   28  C   UNL     1      43.899 -17.949   3.348  1.00  0.00     0.079 C 
BRANCH  28  29
HETATM   29  C   UNL     1      43.990 -19.451   3.157  1.00  0.00    -0.054 A 
HETATM   30  C   UNL     1      43.491 -20.017   1.972  1.00  0.00     0.007 A 
HETATM   31  C   UNL     1      43.657 -21.375   1.697  1.00  0.00     0.001 A 
HETATM   32  C   UNL     1      44.340 -22.185   2.599  1.00  0.00     0.000 A 
HETATM   33  C   UNL     1      44.852 -21.639   3.775  1.00  0.00     0.001 A 
HETATM   34  C   UNL     1      44.682 -20.279   4.050  1.00  0.00     0.007 A 
ENDBRANCH  28  29
ENDBRANCH  23  28
ENDBRANCH  19  22
ENDBRANCH   1  18
TORSDOF 8
ENDMDL
MODEL 4
REMARK VINA RESULT:      -8.3      2.313      8.096
REMARK  8 active torsions:
REMARK  status: ('A' for Active; 'I' for Inactive)
REMARK    1  A    between atoms: O_2  and  C_3 
REMARK    2  A    between atoms: C_5  and  O_6 
REMARK    3  A    between atoms: C_8  and  C_9 
REMARK    4  A    between atoms: N_10  and  C_12 
REMARK    5  A    between atoms: C_12  and  C_13 
REMARK       I    between atoms: C_13  and  N_14 
REMARK    6  A    between atoms: N_14  and  C_15 
REMARK    7  A    between atoms: C_16  and  C_17 
REMARK    8  A    between atoms: C_17  and  C_18 
ROOT
HETATM    1  C   UNL     1      42.461 -16.289   0.950  1.00  0.00     0.338 C 
ENDROOT
BRANCH   1   2
HETATM    2  N   UNL     1      41.936 -15.291   1.980  1.00  0.00    -0.054 N 
HETATM    3  C   UNL     1      41.197 -14.031   1.518  1.00  0.00     0.224 C 
HETATM    4  C   UNL     1      42.210 -12.925   1.818  1.00  0.00     0.040 C 
HETATM    5  C   UNL     1      42.766 -13.359   3.160  1.00  0.00     0.030 C 
HETATM    6  C   UNL     1      42.990 -14.850   2.988  1.00  0.00     0.236 C 
HETATM    7  H   UNL     1      41.213 -15.817   2.486  1.00  0.00     0.281 HD
BRANCH   3   8
HETATM    8  C   UNL     1      40.521 -14.067   0.168  1.00  0.00     0.006 A 
HETATM    9  C   UNL     1      39.119 -13.910   0.072  1.00  0.00     0.079 A 
HETATM   10  C   UNL     1      38.480 -13.974  -1.174  1.00  0.00     0.074 A 
HETATM   11  C   UNL     1      39.226 -14.152  -2.338  1.00  0.00     0.070 A 
HETATM   12  C   UNL     1      40.615 -14.225  -2.256  1.00  0.00     0.037 A 
HETATM   13  C   UNL     1      41.259 -14.186  -1.019  1.00  0.00     0.015 A 
BRANCH   9  14
HETATM   14  O   UNL     1      38.465 -13.737   1.270  1.00  0.00    -0.355 OA
HETATM   15  C   UNL     1      37.996 -12.422   1.575  1.00  0.00     0.210 C 
ENDBRANCH   9  14
BRANCH  11  16
HETATM   16  O   UNL     1      38.730 -14.255  -3.606  1.00  0.00    -0.356 OA
HETATM   17  C   UNL     1      37.872 -15.356  -3.886  1.00  0.00     0.210 C 
ENDBRANCH  11  16
ENDBRANCH   3   8
ENDBRANCH   1   2
BRANCH   1  18
HETATM   18  C   UNL     1      43.502 -17.309   1.420  1.00  0.00     0.248 C 
HETATM   19  N   UNL     1      42.968 -18.383   2.095  1.00  0.00    -0.325 N 
HETATM   20  H   UNL     1      42.009 -18.261   2.399  1.00  0.00     0.169 HD
HETATM   21  O   UNL     1      44.680 -17.079   1.181  1.00  0.00    -0.271 OA
BRANCH  19  22
HETATM   22  C   UNL     1      43.558 -19.570   2.605  1.00  0.00     0.041 A 
HETATM   23  C   UNL     1      44.285 -19.772   3.796  1.00  0.00    -0.027 A 
HETATM   24  C   UNL     1      44.792 -21.074   4.059  1.00  0.00     0.010 A 
HETATM   25  C   UNL     1      44.605 -22.142   3.186  1.00  0.00     0.001 A 
HETATM   26  C   UNL     1      43.898 -21.942   2.018  1.00  0.00     0.002 A 
HETATM   27  C   UNL     1      43.385 -20.676   1.737  1.00  0.00     0.030 A 
BRANCH  23  28
HETATM   28  C   UNL     1      44.627 -18.746   4.859  1.00  0.00     0.079 C 
BRANCH  28  29
HETATM   29  C   UNL     1      43.481 -17.923   5.416  1.00  0.00    -0.054 A 
HETATM   30  C   UNL     1      43.770 -16.722   6.086  1.00  0.00     0.007 A 
HETATM   31  C   UNL     1      42.748 -15.872   6.512  1.00  0.00     0.001 A 
HETATM   32  C   UNL     1      41.421 -16.204   6.260  1.00  0.00     0.000 A 
HETATM   33  C   UNL     1      41.116 -17.386   5.587  1.00  0.00     0.001 A 
HETATM   34  C   UNL     1      42.140 -18.238   5.163  1.00  0.00     0.007 A 
ENDBRANCH  28  29
ENDBRANCH  23  28
ENDBRANCH  19  22
ENDBRANCH   1  18
TORSDOF 8
ENDMDL
MODEL 5
REMARK VINA RESULT:      -8.3      2.374      7.531
REMARK  8 active torsions:
REMARK  status: ('A' for Active; 'I' for Inactive)
REMARK    1  A    between atoms: O_2  and  C_3 
REMARK    2  A    between atoms: C_5  and  O_6 
REMARK    3  A    between atoms: C_8  and  C_9 
REMARK    4  A    between atoms: N_10  and  C_12 
REMARK    5  A    between atoms: C_12  and  C_13 
REMARK       I    between atoms: C_13  and  N_14 
REMARK    6  A    between atoms: N_14  and  C_15 
REMARK    7  A    between atoms: C_16  and  C_17 
REMARK    8  A    between atoms: C_17  and  C_18 
ROOT
HETATM    1  C   UNL     1      42.076 -13.123   3.663  1.00  0.00     0.338 C 
ENDROOT
BRANCH   1   2
HETATM    2  N   UNL     1      40.569 -13.105   3.913  1.00  0.00    -0.054 N 
HETATM    3  C   UNL     1      39.599 -12.968   2.736  1.00  0.00     0.224 C 
HETATM    4  C   UNL     1      39.061 -11.548   2.914  1.00  0.00     0.040 C 
HETATM    5  C   UNL     1      38.875 -11.465   4.416  1.00  0.00     0.030 C 
HETATM    6  C   UNL     1      40.142 -12.092   4.968  1.00  0.00     0.236 C 
HETATM    7  H   UNL     1      40.369 -14.045   4.276  1.00  0.00     0.281 HD
BRANCH   3   8
HETATM    8  C   UNL     1      40.079 -13.411   1.374  1.00  0.00     0.006 A 
HETATM    9  C   UNL     1      40.410 -14.766   1.143  1.00  0.00     0.079 A 
HETATM   10  C   UNL     1      40.885 -15.179  -0.109  1.00  0.00     0.074 A 
HETATM   11  C   UNL     1      40.998 -14.264  -1.155  1.00  0.00     0.070 A 
HETATM   12  C   UNL     1      40.596 -12.945  -0.955  1.00  0.00     0.037 A 
HETATM   13  C   UNL     1      40.143 -12.519   0.294  1.00  0.00     0.015 A 
BRANCH   9  14
HETATM   14  O   UNL     1      40.265 -15.598   2.229  1.00  0.00    -0.355 OA
HETATM   15  C   UNL     1      40.411 -17.002   2.002  1.00  0.00     0.210 C 
ENDBRANCH   9  14
BRANCH  11  16
HETATM   16  O   UNL     1      41.467 -14.527  -2.410  1.00  0.00    -0.356 OA
HETATM   17  C   UNL     1      40.627 -14.189  -3.508  1.00  0.00     0.210 C 
ENDBRANCH  11  16
ENDBRANCH   3   8
ENDBRANCH   1   2
BRANCH   1  18
HETATM   18  C   UNL     1      42.928 -14.044   4.541  1.00  0.00     0.248 C 
HETATM   19  N   UNL     1      42.346 -15.263   4.804  1.00  0.00    -0.325 N 
HETATM   20  H   UNL     1      41.357 -15.318   4.590  1.00  0.00     0.169 HD
HETATM   21  O   UNL     1      44.006 -13.623   4.938  1.00  0.00    -0.271 OA
BRANCH  19  22
HETATM   22  C   UNL     1      42.825 -16.416   5.481  1.00  0.00     0.041 A 
HETATM   23  C   UNL     1      43.473 -17.556   4.965  1.00  0.00    -0.027 A 
HETATM   24  C   UNL     1      43.832 -18.591   5.871  1.00  0.00     0.010 A 
HETATM   25  C   UNL     1      43.558 -18.523   7.234  1.00  0.00     0.001 A 
HETATM   26  C   UNL     1      42.918 -17.409   7.737  1.00  0.00     0.002 A 
HETATM   27  C   UNL     1      42.560 -16.376   6.872  1.00  0.00     0.030 A 
BRANCH  23  28
HETATM   28  C   UNL     1      43.833 -17.844   3.520  1.00  0.00     0.079 C 
BRANCH  28  29
HETATM   29  C   UNL     1      43.893 -19.300   3.102  1.00  0.00    -0.054 A 
HETATM   30  C   UNL     1      43.031 -19.753   2.089  1.00  0.00     0.007 A 
HETATM   31  C   UNL     1      43.128 -21.052   1.588  1.00  0.00     0.001 A 
HETATM   32  C   UNL     1      44.101 -21.914   2.083  1.00  0.00     0.000 A 
HETATM   33  C   UNL     1      44.972 -21.479   3.081  1.00  0.00     0.001 A 
HETATM   34  C   UNL     1      44.872 -20.179   3.584  1.00  0.00     0.007 A 
ENDBRANCH  28  29
ENDBRANCH  23  28
ENDBRANCH  19  22
ENDBRANCH   1  18
TORSDOF 8
ENDMDL
MODEL 6
REMARK VINA RESULT:      -8.1      2.169      8.121
REMARK  8 active torsions:
REMARK  status: ('A' for Active; 'I' for Inactive)
REMARK    1  A    between atoms: O_2  and  C_3 
REMARK    2  A    between atoms: C_5  and  O_6 
REMARK    3  A    between atoms: C_8  and  C_9 
REMARK    4  A    between atoms: N_10  and  C_12 
REMARK    5  A    between atoms: C_12  and  C_13 
REMARK       I    between atoms: C_13  and  N_14 
REMARK    6  A    between atoms: N_14  and  C_15 
REMARK    7  A    between atoms: C_16  and  C_17 
REMARK    8  A    between atoms: C_17  and  C_18 
ROOT
HETATM    1  C   UNL     1      41.229 -16.103   0.183  1.00  0.00     0.338 C 
ENDROOT
BRANCH   1   2
HETATM    2  N   UNL     1      41.429 -15.152  -0.996  1.00  0.00    -0.054 N 
HETATM    3  C   UNL     1      40.816 -13.749  -0.960  1.00  0.00     0.224 C 
HETATM    4  C   UNL     1      39.686 -13.856  -1.985  1.00  0.00     0.040 C 
HETATM    5  C   UNL     1      40.334 -14.668  -3.089  1.00  0.00     0.030 C 
HETATM    6  C   UNL     1      41.064 -15.769  -2.341  1.00  0.00     0.236 C 
HETATM    7  H   UNL     1      42.440 -14.969  -0.995  1.00  0.00     0.281 HD
BRANCH   3   8
HETATM    8  C   UNL     1      40.531 -13.140   0.392  1.00  0.00     0.006 A 
HETATM    9  C   UNL     1      41.451 -12.236   0.972  1.00  0.00     0.079 A 
HETATM   10  C   UNL     1      41.209 -11.691   2.240  1.00  0.00     0.074 A 
HETATM   11  C   UNL     1      40.037 -12.002   2.927  1.00  0.00     0.070 A 
HETATM   12  C   UNL     1      39.091 -12.828   2.325  1.00  0.00     0.037 A 
HETATM   13  C   UNL     1      39.331 -13.394   1.073  1.00  0.00     0.015 A 
BRANCH   9  14
HETATM   14  O   UNL     1      42.578 -11.985   0.223  1.00  0.00    -0.355 OA
HETATM   15  C   UNL     1      42.711 -10.677  -0.339  1.00  0.00     0.210 C 
ENDBRANCH   9  14
BRANCH  11  16
HETATM   16  O   UNL     1      39.691 -11.562   4.172  1.00  0.00    -0.356 OA
HETATM   17  C   UNL     1      40.706 -11.556   5.170  1.00  0.00     0.210 C 
ENDBRANCH  11  16
ENDBRANCH   3   8
ENDBRANCH   1   2
BRANCH   1  18
HETATM   18  C   UNL     1      42.326 -16.148   1.250  1.00  0.00     0.248 C 
HETATM   19  N   UNL     1      41.959 -15.592   2.454  1.00  0.00    -0.325 N 
HETATM   20  H   UNL     1      41.118 -15.026   2.424  1.00  0.00     0.169 HD
HETATM   21  O   UNL     1      43.405 -16.637   0.944  1.00  0.00    -0.271 OA
BRANCH  19  22
HETATM   22  C   UNL     1      42.626 -15.514   3.706  1.00  0.00     0.041 A 
HETATM   23  C   UNL     1      42.819 -16.511   4.684  1.00  0.00    -0.027 A 
HETATM   24  C   UNL     1      43.512 -16.157   5.873  1.00  0.00     0.010 A 
HETATM   25  C   UNL     1      43.994 -14.872   6.107  1.00  0.00     0.001 A 
HETATM   26  C   UNL     1      43.799 -13.896   5.151  1.00  0.00     0.002 A 
HETATM   27  C   UNL     1      43.127 -14.216   3.972  1.00  0.00     0.030 A 
BRANCH  23  28
HETATM   28  C   UNL     1      42.351 -17.953   4.643  1.00  0.00     0.079 C 
BRANCH  28  29
HETATM   29  C   UNL     1      43.238 -18.944   3.914  1.00  0.00    -0.054 A 
HETATM   30  C   UNL     1      44.299 -19.547   4.610  1.00  0.00     0.007 A 
HETATM   31  C   UNL     1      45.068 -20.550   4.020  1.00  0.00     0.001 A 
HETATM   32  C   UNL     1      44.778 -20.977   2.728  1.00  0.00     0.000 A 
HETATM   33  C   UNL     1      43.722 -20.397   2.026  1.00  0.00     0.001 A 
HETATM   34  C   UNL     1      42.953 -19.391   2.616  1.00  0.00     0.007 A 
ENDBRANCH  28  29
ENDBRANCH  23  28
ENDBRANCH  19  22
ENDBRANCH   1  18
TORSDOF 8
ENDMDL
MODEL 7
REMARK VINA RESULT:      -8.1      2.615      8.046
REMARK  8 active torsions:
REMARK  status: ('A' for Active; 'I' for Inactive)
REMARK    1  A    between atoms: O_2  and  C_3 
REMARK    2  A    between atoms: C_5  and  O_6 
REMARK    3  A    between atoms: C_8  and  C_9 
REMARK    4  A    between atoms: N_10  and  C_12 
REMARK    5  A    between atoms: C_12  and  C_13 
REMARK       I    between atoms: C_13  and  N_14 
REMARK    6  A    between atoms: N_14  and  C_15 
REMARK    7  A    between atoms: C_16  and  C_17 
REMARK    8  A    between atoms: C_17  and  C_18 
ROOT
HETATM    1  C   UNL     1      42.442 -14.424   1.426  1.00  0.00     0.338 C 
ENDROOT
BRANCH   1   2
HETATM    2  N   UNL     1      41.263 -15.233   0.889  1.00  0.00    -0.054 N 
HETATM    3  C   UNL     1      39.981 -15.360   1.717  1.00  0.00     0.224 C 
HETATM    4  C   UNL     1      40.025 -16.819   2.174  1.00  0.00     0.040 C 
HETATM    5  C   UNL     1      40.521 -17.527   0.929  1.00  0.00     0.030 C 
HETATM    6  C   UNL     1      41.647 -16.636   0.435  1.00  0.00     0.236 C 
HETATM    7  H   UNL     1      40.959 -14.704   0.061  1.00  0.00     0.281 HD
BRANCH   3   8
HETATM    8  C   UNL     1      39.686 -14.278   2.728  1.00  0.00     0.006 A 
HETATM    9  C   UNL     1      39.217 -13.014   2.299  1.00  0.00     0.079 A 
HETATM   10  C   UNL     1      38.971 -11.994   3.229  1.00  0.00     0.074 A 
HETATM   11  C   UNL     1      39.147 -12.229   4.592  1.00  0.00     0.070 A 
HETATM   12  C   UNL     1      39.530 -13.496   5.024  1.00  0.00     0.037 A 
HETATM   13  C   UNL     1      39.800 -14.512   4.106  1.00  0.00     0.015 A 
BRANCH   9  14
HETATM   14  O   UNL     1      39.070 -12.874   0.939  1.00  0.00    -0.355 OA
HETATM   15  C   UNL     1      39.837 -11.849   0.301  1.00  0.00     0.210 C 
ENDBRANCH   9  14
BRANCH  11  16
HETATM   16  O   UNL     1      38.967 -11.321   5.596  1.00  0.00    -0.356 OA
HETATM   17  C   UNL     1      39.128  -9.944   5.270  1.00  0.00     0.210 C 
ENDBRANCH  11  16
ENDBRANCH   3   8
ENDBRANCH   1   2
BRANCH   1  18
HETATM   18  C   UNL     1      43.276 -15.050   2.547  1.00  0.00     0.248 C 
HETATM   19  N   UNL     1      42.875 -14.687   3.813  1.00  0.00    -0.325 N 
HETATM   20  H   UNL     1      42.247 -13.893   3.850  1.00  0.00     0.169 HD
HETATM   21  O   UNL     1      44.210 -15.776   2.232  1.00  0.00    -0.271 OA
BRANCH  19  22
HETATM   22  C   UNL     1      43.306 -15.105   5.100  1.00  0.00     0.041 A 
HETATM   23  C   UNL     1      43.145 -16.350   5.741  1.00  0.00    -0.027 A 
HETATM   24  C   UNL     1      43.660 -16.498   7.058  1.00  0.00     0.010 A 
HETATM   25  C   UNL     1      44.302 -15.463   7.732  1.00  0.00     0.001 A 
HETATM   26  C   UNL     1      44.454 -14.243   7.106  1.00  0.00     0.002 A 
HETATM   27  C   UNL     1      43.963 -14.072   5.812  1.00  0.00     0.030 A 
BRANCH  23  28
HETATM   28  C   UNL     1      42.454 -17.588   5.202  1.00  0.00     0.079 C 
BRANCH  28  29
HETATM   29  C   UNL     1      43.307 -18.565   4.416  1.00  0.00    -0.054 A 
HETATM   30  C   UNL     1      44.272 -19.325   5.097  1.00  0.00     0.007 A 
HETATM   31  C   UNL     1      44.999 -20.320   4.441  1.00  0.00     0.001 A 
HETATM   32  C   UNL     1      44.760 -20.580   3.095  1.00  0.00     0.000 A 
HETATM   33  C   UNL     1      43.799 -19.842   2.406  1.00  0.00     0.001 A 
HETATM   34  C   UNL     1      43.073 -18.845   3.063  1.00  0.00     0.007 A 
ENDBRANCH  28  29
ENDBRANCH  23  28
ENDBRANCH  19  22
ENDBRANCH   1  18
TORSDOF 8
ENDMDL
MODEL 8
REMARK VINA RESULT:      -8.0      2.453      8.135
REMARK  8 active torsions:
REMARK  status: ('A' for Active; 'I' for Inactive)
REMARK    1  A    between atoms: O_2  and  C_3 
REMARK    2  A    between atoms: C_5  and  O_6 
REMARK    3  A    between atoms: C_8  and  C_9 
REMARK    4  A    between atoms: N_10  and  C_12 
REMARK    5  A    between atoms: C_12  and  C_13 
REMARK       I    between atoms: C_13  and  N_14 
REMARK    6  A    between atoms: N_14  and  C_15 
REMARK    7  A    between atoms: C_16  and  C_17 
REMARK    8  A    between atoms: C_17  and  C_18 
ROOT
HETATM    1  C   UNL     1      42.293 -12.759   4.180  1.00  0.00     0.338 C 
ENDROOT
BRANCH   1   2
HETATM    2  N   UNL     1      40.777 -12.876   4.032  1.00  0.00    -0.054 N 
HETATM    3  C   UNL     1      40.058 -12.128   2.906  1.00  0.00     0.224 C 
HETATM    4  C   UNL     1      39.318 -11.024   3.661  1.00  0.00     0.040 C 
HETATM    5  C   UNL     1      38.820 -11.759   4.891  1.00  0.00     0.030 C 
HETATM    6  C   UNL     1      40.018 -12.586   5.321  1.00  0.00     0.236 C 
HETATM    7  H   UNL     1      40.629 -13.864   3.793  1.00  0.00     0.281 HD
BRANCH   3   8
HETATM    8  C   UNL     1      40.857 -11.773   1.675  1.00  0.00     0.006 A 
HETATM    9  C   UNL     1      41.220 -12.777   0.749  1.00  0.00     0.079 A 
HETATM   10  C   UNL     1      41.989 -12.460  -0.380  1.00  0.00     0.074 A 
HETATM   11  C   UNL     1      42.369 -11.141  -0.623  1.00  0.00     0.070 A 
HETATM   12  C   UNL     1      41.946 -10.137   0.243  1.00  0.00     0.037 A 
HETATM   13  C   UNL     1      41.200 -10.444   1.382  1.00  0.00     0.015 A 
BRANCH   9  14
HETATM   14  O   UNL     1      40.800 -14.048   1.067  1.00  0.00    -0.355 OA
HETATM   15  C   UNL     1      40.698 -14.991  -0.002  1.00  0.00     0.210 C 
ENDBRANCH   9  14
BRANCH  11  16
HETATM   16  O   UNL     1      43.134 -10.702  -1.665  1.00  0.00    -0.356 OA
HETATM   17  C   UNL     1      43.981  -9.583  -1.430  1.00  0.00     0.210 C 
ENDBRANCH  11  16
ENDBRANCH   3   8
ENDBRANCH   1   2
BRANCH   1  18
HETATM   18  C   UNL     1      43.143 -13.943   3.710  1.00  0.00     0.248 C 
HETATM   19  N   UNL     1      42.432 -15.108   3.534  1.00  0.00    -0.325 N 
HETATM   20  H   UNL     1      41.507 -15.110   3.948  1.00  0.00     0.169 HD
HETATM   21  O   UNL     1      44.344 -13.762   3.556  1.00  0.00    -0.271 OA
BRANCH  19  22
HETATM   22  C   UNL     1      42.809 -16.382   3.030  1.00  0.00     0.041 A 
HETATM   23  C   UNL     1      42.580 -17.663   3.571  1.00  0.00    -0.027 A 
HETATM   24  C   UNL     1      43.091 -18.788   2.866  1.00  0.00     0.010 A 
HETATM   25  C   UNL     1      43.810 -18.667   1.680  1.00  0.00     0.001 A 
HETATM   26  C   UNL     1      44.038 -17.411   1.156  1.00  0.00     0.002 A 
HETATM   27  C   UNL     1      43.543 -16.291   1.823  1.00  0.00     0.030 A 
BRANCH  23  28
HETATM   28  C   UNL     1      41.856 -18.013   4.856  1.00  0.00     0.079 C 
BRANCH  28  29
HETATM   29  C   UNL     1      42.693 -18.095   6.118  1.00  0.00    -0.054 A 
HETATM   30  C   UNL     1      42.672 -17.017   7.019  1.00  0.00     0.007 A 
HETATM   31  C   UNL     1      43.330 -17.093   8.247  1.00  0.00     0.001 A 
HETATM   32  C   UNL     1      44.009 -18.255   8.600  1.00  0.00     0.000 A 
HETATM   33  C   UNL     1      44.032 -19.338   7.723  1.00  0.00     0.001 A 
HETATM   34  C   UNL     1      43.375 -19.261   6.492  1.00  0.00     0.007 A 
ENDBRANCH  28  29
ENDBRANCH  23  28
ENDBRANCH  19  22
ENDBRANCH   1  18
TORSDOF 8
ENDMDL
MODEL 9
REMARK VINA RESULT:      -7.9      2.380      8.025
REMARK  8 active torsions:
REMARK  status: ('A' for Active; 'I' for Inactive)
REMARK    1  A    between atoms: O_2  and  C_3 
REMARK    2  A    between atoms: C_5  and  O_6 
REMARK    3  A    between atoms: C_8  and  C_9 
REMARK    4  A    between atoms: N_10  and  C_12 
REMARK    5  A    between atoms: C_12  and  C_13 
REMARK       I    between atoms: C_13  and  N_14 
REMARK    6  A    between atoms: N_14  and  C_15 
REMARK    7  A    between atoms: C_16  and  C_17 
REMARK    8  A    between atoms: C_17  and  C_18 
ROOT
HETATM    1  C   UNL     1      40.799 -15.574   0.040  1.00  0.00     0.338 C 
ENDROOT
BRANCH   1   2
HETATM    2  N   UNL     1      41.302 -14.869  -1.218  1.00  0.00    -0.054 N 
HETATM    3  C   UNL     1      40.918 -13.410  -1.484  1.00  0.00     0.224 C 
HETATM    4  C   UNL     1      39.934 -13.534  -2.647  1.00  0.00     0.040 C 
HETATM    5  C   UNL     1      40.588 -14.599  -3.505  1.00  0.00     0.030 C 
HETATM    6  C   UNL     1      41.028 -15.647  -2.499  1.00  0.00     0.236 C 
HETATM    7  H   UNL     1      42.320 -14.826  -1.085  1.00  0.00     0.281 HD
BRANCH   3   8
HETATM    8  C   UNL     1      40.555 -12.551  -0.296  1.00  0.00     0.006 A 
HETATM    9  C   UNL     1      41.530 -11.723   0.307  1.00  0.00     0.079 A 
HETATM   10  C   UNL     1      41.208 -10.947   1.429  1.00  0.00     0.074 A 
HETATM   11  C   UNL     1      39.910 -10.950   1.937  1.00  0.00     0.070 A 
HETATM   12  C   UNL     1      38.927 -11.701   1.296  1.00  0.00     0.037 A 
HETATM   13  C   UNL     1      39.241 -12.495   0.193  1.00  0.00     0.015 A 
BRANCH   9  14
HETATM   14  O   UNL     1      42.781 -11.781  -0.262  1.00  0.00    -0.355 OA
HETATM   15  C   UNL     1      43.221 -10.635  -0.993  1.00  0.00     0.210 C 
ENDBRANCH   9  14
BRANCH  11  16
HETATM   16  O   UNL     1      39.471 -10.263   3.032  1.00  0.00    -0.356 OA
HETATM   17  C   UNL     1      38.395 -10.828   3.772  1.00  0.00     0.210 C 
ENDBRANCH  11  16
ENDBRANCH   3   8
ENDBRANCH   1   2
BRANCH   1  18
HETATM   18  C   UNL     1      41.837 -15.966   1.095  1.00  0.00     0.248 C 
HETATM   19  N   UNL     1      41.690 -17.246   1.577  1.00  0.00    -0.325 N 
HETATM   20  H   UNL     1      40.802 -17.684   1.360  1.00  0.00     0.169 HD
HETATM   21  O   UNL     1      42.667 -15.128   1.422  1.00  0.00    -0.271 OA
BRANCH  19  22
HETATM   22  C   UNL     1      42.476 -18.019   2.473  1.00  0.00     0.041 A 
HETATM   23  C   UNL     1      42.481 -18.030   3.882  1.00  0.00    -0.027 A 
HETATM   24  C   UNL     1      43.397 -18.894   4.542  1.00  0.00     0.010 A 
HETATM   25  C   UNL     1      44.286 -19.713   3.852  1.00  0.00     0.001 A 
HETATM   26  C   UNL     1      44.285 -19.696   2.472  1.00  0.00     0.002 A 
HETATM   27  C   UNL     1      43.393 -18.862   1.799  1.00  0.00     0.030 A 
BRANCH  23  28
HETATM   28  C   UNL     1      41.624 -17.201   4.819  1.00  0.00     0.079 C 
BRANCH  28  29
HETATM   29  C   UNL     1      41.805 -15.696   4.767  1.00  0.00    -0.054 A 
HETATM   30  C   UNL     1      43.097 -15.161   4.906  1.00  0.00     0.007 A 
HETATM   31  C   UNL     1      43.331 -13.795   4.747  1.00  0.00     0.001 A 
HETATM   32  C   UNL     1      42.277 -12.943   4.430  1.00  0.00     0.000 A 
HETATM   33  C   UNL     1      40.991 -13.457   4.278  1.00  0.00     0.001 A 
HETATM   34  C   UNL     1      40.756 -14.826   4.440  1.00  0.00     0.007 A 
ENDBRANCH  28  29
ENDBRANCH  23  28
ENDBRANCH  19  22
ENDBRANCH   1  18
TORSDOF 8
ENDMDL
MODEL 10
REMARK VINA RESULT:      -7.9      1.847      3.195
REMARK  8 active torsions:
REMARK  status: ('A' for Active; 'I' for Inactive)
REMARK    1  A    between atoms: O_2  and  C_3 
REMARK    2  A    between atoms: C_5  and  O_6 
REMARK    3  A    between atoms: C_8  and  C_9 
REMARK    4  A    between atoms: N_10  and  C_12 
REMARK    5  A    between atoms: C_12  and  C_13 
REMARK       I    between atoms: C_13  and  N_14 
REMARK    6  A    between atoms: N_14  and  C_15 
REMARK    7  A    between atoms: C_16  and  C_17 
REMARK    8  A    between atoms: C_17  and  C_18 
ROOT
HETATM    1  C   UNL     1      43.594 -15.294   3.599  1.00  0.00     0.338 C 
ENDROOT
BRANCH   1   2
HETATM    2  N   UNL     1      42.888 -15.614   4.916  1.00  0.00    -0.054 N 
HETATM    3  C   UNL     1      42.377 -17.032   5.185  1.00  0.00     0.224 C 
HETATM    4  C   UNL     1      40.860 -16.863   5.083  1.00  0.00     0.040 C 
HETATM    5  C   UNL     1      40.641 -15.538   5.786  1.00  0.00     0.030 C 
HETATM    6  C   UNL     1      41.748 -14.656   5.241  1.00  0.00     0.236 C 
HETATM    7  H   UNL     1      43.620 -15.488   5.624  1.00  0.00     0.281 HD
BRANCH   3   8
HETATM    8  C   UNL     1      43.044 -18.172   4.452  1.00  0.00     0.006 A 
HETATM    9  C   UNL     1      44.010 -18.969   5.108  1.00  0.00     0.079 A 
HETATM   10  C   UNL     1      44.657 -20.008   4.424  1.00  0.00     0.074 A 
HETATM   11  C   UNL     1      44.323 -20.294   3.101  1.00  0.00     0.070 A 
HETATM   12  C   UNL     1      43.314 -19.564   2.478  1.00  0.00     0.037 A 
HETATM   13  C   UNL     1      42.680 -18.513   3.141  1.00  0.00     0.015 A 
BRANCH   9  14
HETATM   14  O   UNL     1      44.275 -18.617   6.411  1.00  0.00    -0.355 OA
HETATM   15  C   UNL     1      45.470 -17.873   6.658  1.00  0.00     0.210 C 
ENDBRANCH   9  14
BRANCH  11  16
HETATM   16  O   UNL     1      44.889 -21.258   2.317  1.00  0.00    -0.356 OA
HETATM   17  C   UNL     1      44.038 -21.946   1.408  1.00  0.00     0.210 C 
ENDBRANCH  11  16
ENDBRANCH   3   8
ENDBRANCH   1   2
BRANCH   1  18
HETATM   18  C   UNL     1      42.827 -14.457   2.571  1.00  0.00     0.248 C 
HETATM   19  N   UNL     1      41.954 -15.184   1.796  1.00  0.00    -0.325 N 
HETATM   20  H   UNL     1      42.085 -16.188   1.832  1.00  0.00     0.169 HD
HETATM   21  O   UNL     1      43.066 -13.258   2.515  1.00  0.00    -0.271 OA
BRANCH  19  22
HETATM   22  C   UNL     1      41.005 -14.792   0.813  1.00  0.00     0.041 A 
HETATM   23  C   UNL     1      39.739 -14.194   0.977  1.00  0.00    -0.027 A 
HETATM   24  C   UNL     1      38.972 -13.922  -0.189  1.00  0.00     0.010 A 
HETATM   25  C   UNL     1      39.419 -14.232  -1.471  1.00  0.00     0.001 A 
HETATM   26  C   UNL     1      40.656 -14.823  -1.628  1.00  0.00     0.002 A 
HETATM   27  C   UNL     1      41.432 -15.096  -0.502  1.00  0.00     0.030 A 
BRANCH  23  28
HETATM   28  C   UNL     1      39.056 -13.808   2.274  1.00  0.00     0.079 C 
BRANCH  28  29
HETATM   29  C   UNL     1      39.519 -12.527   2.941  1.00  0.00    -0.054 A 
HETATM   30  C   UNL     1      40.138 -11.538   2.158  1.00  0.00     0.007 A 
HETATM   31  C   UNL     1      40.474 -10.297   2.701  1.00  0.00     0.001 A 
HETATM   32  C   UNL     1      40.182 -10.021   4.032  1.00  0.00     0.000 A 
HETATM   33  C   UNL     1      39.559 -10.986   4.822  1.00  0.00     0.001 A 
HETATM   34  C   UNL     1      39.225 -12.230   4.279  1.00  0.00     0.007 A 
ENDBRANCH  28  29
ENDBRANCH  23  28
ENDBRANCH  19  22
ENDBRANCH   1  18
TORSDOF 8
ENDMDL
