MODEL 1
REMARK VINA RESULT:      -8.3      0.000      0.000
REMARK  4 active torsions:
REMARK  status: ('A' for Active; 'I' for Inactive)
REMARK    1  A    between atoms: C_9  and  C_10 
REMARK    2  A    between atoms: C_18  and  C_19 
REMARK       I    between atoms: C_19  and  N_20 
REMARK    3  A    between atoms: N_20  and  C_21 
REMARK    4  A    between atoms: C_24  and  O_25 
ROOT
HETATM    1  C   UNL     1      44.191 -14.644   6.641  1.00  0.00     0.070 C 
HETATM    2  C   UNL     1      42.889 -14.124   6.083  1.00  0.00     0.037 C 
HETATM    3  N   UNL     1      42.597 -12.797   6.385  1.00  0.00    -0.192 N 
HETATM    4  C   UNL     1      41.366 -12.267   6.231  1.00  0.00     0.725 A 
HETATM    5  N   UNL     1      40.405 -12.985   5.575  1.00  0.00    -0.084 N 
HETATM    6  N   UNL     1      39.220 -12.340   5.578  1.00  0.00    -0.149 NA
HETATM    7  C   UNL     1      39.553 -11.219   6.231  1.00  0.00     0.275 A 
HETATM    8  N   UNL     1      40.860 -11.132   6.640  1.00  0.00    -0.054 NA
HETATM    9  C   UNL     1      40.634 -14.302   4.970  1.00  0.00     0.202 C 
HETATM   10  C   UNL     1      41.985 -14.871   5.398  1.00  0.00     0.062 C 
HETATM   11  H   UNL     1      43.250 -12.298   6.985  1.00  0.00     0.184 HD
ENDROOT
BRANCH  10  12
HETATM   12  C   UNL     1      42.128 -16.327   5.124  1.00  0.00     0.256 C 
HETATM   13  N   UNL     1      43.050 -16.631   4.149  1.00  0.00    -0.323 N 
HETATM   14  H   UNL     1      43.505 -15.858   3.683  1.00  0.00     0.169 HD
HETATM   15  O   UNL     1      41.396 -17.103   5.728  1.00  0.00    -0.267 OA
BRANCH  13  16
HETATM   16  C   UNL     1      43.449 -17.920   3.734  1.00  0.00     0.035 A 
HETATM   17  C   UNL     1      44.231 -18.782   4.504  1.00  0.00     0.032 A 
HETATM   18  C   UNL     1      44.596 -20.040   4.011  1.00  0.00     0.039 A 
HETATM   19  C   UNL     1      44.188 -20.460   2.746  1.00  0.00     0.068 A 
HETATM   20  C   UNL     1      43.417 -19.602   1.966  1.00  0.00     0.039 A 
HETATM   21  C   UNL     1      43.047 -18.342   2.459  1.00  0.00     0.032 A 
BRANCH  19  22
HETATM   22  O   UNL     1      44.615 -21.709   2.392  1.00  0.00    -0.356 OA
HETATM   23  C   UNL     1      44.631 -22.696   3.415  1.00  0.00     0.210 C 
ENDBRANCH  19  22
ENDBRANCH  13  16
ENDBRANCH  10  12
BRANCH   9  24
HETATM   24  C   UNL     1      40.508 -14.218   3.447  1.00  0.00    -0.026 A 
HETATM   25  C   UNL     1      41.290 -13.289   2.737  1.00  0.00     0.035 A 
HETATM   26  C   UNL     1      41.202 -13.192   1.342  1.00  0.00     0.056 A 
HETATM   27 CL   UNL     1      42.205 -12.030   0.551  1.00  0.00    -0.083 Cl
HETATM   28  C   UNL     1      40.322 -14.022   0.640  1.00  0.00     0.055 A 
HETATM   29 CL   UNL     1      40.164 -13.968  -1.079  1.00  0.00    -0.083 Cl
HETATM   30  C   UNL     1      39.528 -14.936   1.337  1.00  0.00     0.026 A 
HETATM   31  C   UNL     1      39.614 -15.029   2.729  1.00  0.00     0.011 A 
ENDBRANCH   9  24
TORSDOF 4
ENDMDL
MODEL 2
REMARK VINA RESULT:      -8.3      3.894      6.820
REMARK  4 active torsions:
REMARK  status: ('A' for Active; 'I' for Inactive)
REMARK    1  A    between atoms: C_9  and  C_10 
REMARK    2  A    between atoms: C_18  and  C_19 
REMARK       I    between atoms: C_19  and  N_20 
REMARK    3  A    between atoms: N_20  and  C_21 
REMARK    4  A    between atoms: C_24  and  O_25 
ROOT
HETATM    1  C   UNL     1      40.306 -15.470   5.487  1.00  0.00     0.070 C 
HETATM    2  C   UNL     1      41.573 -16.286   5.569  1.00  0.00     0.037 C 
HETATM    3  N   UNL     1      41.819 -16.884   6.803  1.00  0.00    -0.192 N 
HETATM    4  C   UNL     1      43.023 -17.386   7.143  1.00  0.00     0.725 A 
HETATM    5  N   UNL     1      43.997 -17.496   6.191  1.00  0.00    -0.084 N 
HETATM    6  N   UNL     1      45.155 -17.944   6.719  1.00  0.00    -0.149 NA
HETATM    7  C   UNL     1      44.792 -18.113   7.996  1.00  0.00     0.275 A 
HETATM    8  N   UNL     1      43.492 -17.790   8.296  1.00  0.00    -0.054 NA
HETATM    9  C   UNL     1      43.807 -17.144   4.779  1.00  0.00     0.202 C 
HETATM   10  C   UNL     1      42.490 -16.398   4.575  1.00  0.00     0.062 C 
HETATM   11  H   UNL     1      41.160 -16.695   7.555  1.00  0.00     0.184 HD
ENDROOT
BRANCH  10  12
HETATM   12  C   UNL     1      42.400 -15.705   3.261  1.00  0.00     0.256 C 
HETATM   13  N   UNL     1      41.370 -16.143   2.460  1.00  0.00    -0.323 N 
HETATM   14  H   UNL     1      40.808 -16.908   2.804  1.00  0.00     0.169 HD
HETATM   15  O   UNL     1      43.255 -14.870   2.988  1.00  0.00    -0.267 OA
BRANCH  13  16
HETATM   16  C   UNL     1      40.997 -15.622   1.201  1.00  0.00     0.035 A 
HETATM   17  C   UNL     1      41.508 -16.077  -0.014  1.00  0.00     0.032 A 
HETATM   18  C   UNL     1      41.096 -15.495  -1.219  1.00  0.00     0.039 A 
HETATM   19  C   UNL     1      40.169 -14.454  -1.232  1.00  0.00     0.068 A 
HETATM   20  C   UNL     1      39.662 -13.987  -0.022  1.00  0.00     0.039 A 
HETATM   21  C   UNL     1      40.072 -14.570   1.186  1.00  0.00     0.032 A 
BRANCH  19  22
HETATM   22  O   UNL     1      39.856 -13.981  -2.475  1.00  0.00    -0.356 OA
HETATM   23  C   UNL     1      40.923 -13.874  -3.409  1.00  0.00     0.210 C 
ENDBRANCH  19  22
ENDBRANCH  13  16
ENDBRANCH  10  12
BRANCH   9  24
HETATM   24  C   UNL     1      43.895 -18.394   3.901  1.00  0.00    -0.026 A 
HETATM   25  C   UNL     1      44.249 -19.626   4.482  1.00  0.00     0.035 A 
HETATM   26  C   UNL     1      44.332 -20.789   3.706  1.00  0.00     0.056 A 
HETATM   27 CL   UNL     1      44.766 -22.259   4.505  1.00  0.00    -0.083 Cl
HETATM   28  C   UNL     1      44.068 -20.733   2.335  1.00  0.00     0.055 A 
HETATM   29 CL   UNL     1      44.141 -22.126   1.315  1.00  0.00    -0.083 Cl
HETATM   30  C   UNL     1      43.732 -19.513   1.744  1.00  0.00     0.026 A 
HETATM   31  C   UNL     1      43.653 -18.351   2.517  1.00  0.00     0.011 A 
ENDBRANCH   9  24
TORSDOF 4
ENDMDL
MODEL 3
REMARK VINA RESULT:      -8.2      0.694      1.302
REMARK  4 active torsions:
REMARK  status: ('A' for Active; 'I' for Inactive)
REMARK    1  A    between atoms: C_9  and  C_10 
REMARK    2  A    between atoms: C_18  and  C_19 
REMARK       I    between atoms: C_19  and  N_20 
REMARK    3  A    between atoms: N_20  and  C_21 
REMARK    4  A    between atoms: C_24  and  O_25 
ROOT
HETATM    1  C   UNL     1      44.363 -14.708   6.800  1.00  0.00     0.070 C 
HETATM    2  C   UNL     1      43.090 -14.106   6.256  1.00  0.00     0.037 C 
HETATM    3  N   UNL     1      42.851 -12.784   6.623  1.00  0.00    -0.192 N 
HETATM    4  C   UNL     1      41.646 -12.195   6.484  1.00  0.00     0.725 A 
HETATM    5  N   UNL     1      40.662 -12.838   5.785  1.00  0.00    -0.084 N 
HETATM    6  N   UNL     1      39.505 -12.144   5.810  1.00  0.00    -0.149 NA
HETATM    7  C   UNL     1      39.878 -11.073   6.521  1.00  0.00     0.275 A 
HETATM    8  N   UNL     1      41.183 -11.062   6.946  1.00  0.00    -0.054 NA
HETATM    9  C   UNL     1      40.842 -14.132   5.116  1.00  0.00     0.202 C 
HETATM   10  C   UNL     1      42.163 -14.778   5.527  1.00  0.00     0.062 C 
HETATM   11  H   UNL     1      43.518 -12.345   7.253  1.00  0.00     0.184 HD
ENDROOT
BRANCH  10  12
HETATM   12  C   UNL     1      42.247 -16.223   5.181  1.00  0.00     0.256 C 
HETATM   13  N   UNL     1      43.213 -16.526   4.249  1.00  0.00    -0.323 N 
HETATM   14  H   UNL     1      43.737 -15.757   3.856  1.00  0.00     0.169 HD
HETATM   15  O   UNL     1      41.439 -16.989   5.694  1.00  0.00    -0.267 OA
BRANCH  13  16
HETATM   16  C   UNL     1      43.570 -17.813   3.787  1.00  0.00     0.035 A 
HETATM   17  C   UNL     1      44.284 -18.743   4.543  1.00  0.00     0.032 A 
HETATM   18  C   UNL     1      44.613 -19.992   4.004  1.00  0.00     0.039 A 
HETATM   19  C   UNL     1      44.234 -20.335   2.707  1.00  0.00     0.068 A 
HETATM   20  C   UNL     1      43.530 -19.408   1.942  1.00  0.00     0.039 A 
HETATM   21  C   UNL     1      43.198 -18.156   2.481  1.00  0.00     0.032 A 
BRANCH  19  22
HETATM   22  O   UNL     1      44.619 -21.585   2.309  1.00  0.00    -0.356 OA
HETATM   23  C   UNL     1      44.575 -22.613   3.291  1.00  0.00     0.210 C 
ENDBRANCH  19  22
ENDBRANCH  13  16
ENDBRANCH  10  12
BRANCH   9  24
HETATM   24  C   UNL     1      40.737 -13.967   3.599  1.00  0.00    -0.026 A 
HETATM   25  C   UNL     1      39.507 -14.207   2.958  1.00  0.00     0.035 A 
HETATM   26  C   UNL     1      39.377 -14.059   1.572  1.00  0.00     0.056 A 
HETATM   27 CL   UNL     1      37.828 -14.367   0.871  1.00  0.00    -0.083 Cl
HETATM   28  C   UNL     1      40.481 -13.674   0.805  1.00  0.00     0.055 A 
HETATM   29 CL   UNL     1      40.397 -13.461  -0.907  1.00  0.00    -0.083 Cl
HETATM   30  C   UNL     1      41.711 -13.449   1.428  1.00  0.00     0.026 A 
HETATM   31  C   UNL     1      41.841 -13.601   2.811  1.00  0.00     0.011 A 
ENDBRANCH   9  24
TORSDOF 4
ENDMDL
MODEL 4
REMARK VINA RESULT:      -8.0      1.834      2.275
REMARK  4 active torsions:
REMARK  status: ('A' for Active; 'I' for Inactive)
REMARK    1  A    between atoms: C_9  and  C_10 
REMARK    2  A    between atoms: C_18  and  C_19 
REMARK       I    between atoms: C_19  and  N_20 
REMARK    3  A    between atoms: N_20  and  C_21 
REMARK    4  A    between atoms: C_24  and  O_25 
ROOT
HETATM    1  C   UNL     1      43.408 -13.721   5.358  1.00  0.00     0.070 C 
HETATM    2  C   UNL     1      42.361 -13.250   4.378  1.00  0.00     0.037 C 
HETATM    3  N   UNL     1      42.091 -11.884   4.404  1.00  0.00    -0.192 N 
HETATM    4  C   UNL     1      40.997 -11.346   3.827  1.00  0.00     0.725 A 
HETATM    5  N   UNL     1      40.215 -12.122   3.018  1.00  0.00    -0.084 N 
HETATM    6  N   UNL     1      39.128 -11.448   2.589  1.00  0.00    -0.149 NA
HETATM    7  C   UNL     1      39.339 -10.255   3.158  1.00  0.00     0.275 A 
HETATM    8  N   UNL     1      40.478 -10.149   3.918  1.00  0.00    -0.054 NA
HETATM    9  C   UNL     1      40.513 -13.520   2.686  1.00  0.00     0.202 C 
HETATM   10  C   UNL     1      41.640 -14.061   3.562  1.00  0.00     0.062 C 
HETATM   11  H   UNL     1      42.579 -11.324   5.099  1.00  0.00     0.184 HD
ENDROOT
BRANCH  10  12
HETATM   12  C   UNL     1      41.750 -15.545   3.536  1.00  0.00     0.256 C 
HETATM   13  N   UNL     1      42.934 -16.015   3.014  1.00  0.00    -0.323 N 
HETATM   14  H   UNL     1      43.589 -15.331   2.661  1.00  0.00     0.169 HD
HETATM   15  O   UNL     1      40.788 -16.203   3.914  1.00  0.00    -0.267 OA
BRANCH  13  16
HETATM   16  C   UNL     1      43.347 -17.363   2.933  1.00  0.00     0.035 A 
HETATM   17  C   UNL     1      43.263 -18.137   1.775  1.00  0.00     0.032 A 
HETATM   18  C   UNL     1      43.680 -19.473   1.783  1.00  0.00     0.039 A 
HETATM   19  C   UNL     1      44.190 -20.058   2.941  1.00  0.00     0.068 A 
HETATM   20  C   UNL     1      44.267 -19.296   4.104  1.00  0.00     0.039 A 
HETATM   21  C   UNL     1      43.852 -17.956   4.097  1.00  0.00     0.032 A 
BRANCH  19  22
HETATM   22  O   UNL     1      44.559 -21.366   2.807  1.00  0.00    -0.356 OA
HETATM   23  C   UNL     1      44.187 -22.018   1.599  1.00  0.00     0.210 C 
ENDBRANCH  19  22
ENDBRANCH  13  16
ENDBRANCH  10  12
BRANCH   9  24
HETATM   24  C   UNL     1      40.834 -13.657   1.196  1.00  0.00    -0.026 A 
HETATM   25  C   UNL     1      41.693 -12.726   0.584  1.00  0.00     0.035 A 
HETATM   26  C   UNL     1      42.012 -12.827  -0.776  1.00  0.00     0.056 A 
HETATM   27 CL   UNL     1      43.082 -11.646  -1.443  1.00  0.00    -0.083 Cl
HETATM   28  C   UNL     1      41.467 -13.860  -1.545  1.00  0.00     0.055 A 
HETATM   29 CL   UNL     1      41.819 -14.057  -3.225  1.00  0.00    -0.083 Cl
HETATM   30  C   UNL     1      40.599 -14.780  -0.951  1.00  0.00     0.026 A 
HETATM   31  C   UNL     1      40.279 -14.677   0.405  1.00  0.00     0.011 A 
ENDBRANCH   9  24
TORSDOF 4
ENDMDL
MODEL 5
REMARK VINA RESULT:      -7.9      3.424      6.364
REMARK  4 active torsions:
REMARK  status: ('A' for Active; 'I' for Inactive)
REMARK    1  A    between atoms: C_9  and  C_10 
REMARK    2  A    between atoms: C_18  and  C_19 
REMARK       I    between atoms: C_19  and  N_20 
REMARK    3  A    between atoms: N_20  and  C_21 
REMARK    4  A    between atoms: C_24  and  O_25 
ROOT
HETATM    1  C   UNL     1      43.820 -18.148   1.633  1.00  0.00     0.070 C 
HETATM    2  C   UNL     1      43.307 -17.652   2.963  1.00  0.00     0.037 C 
HETATM    3  N   UNL     1      44.085 -17.992   4.067  1.00  0.00    -0.192 N 
HETATM    4  C   UNL     1      43.635 -17.897   5.334  1.00  0.00     0.725 A 
HETATM    5  N   UNL     1      42.446 -17.267   5.578  1.00  0.00    -0.084 N 
HETATM    6  N   UNL     1      42.113 -17.330   6.883  1.00  0.00    -0.149 NA
HETATM    7  C   UNL     1      43.168 -17.990   7.374  1.00  0.00     0.275 A 
HETATM    8  N   UNL     1      44.127 -18.348   6.459  1.00  0.00    -0.054 NA
HETATM    9  C   UNL     1      41.629 -16.628   4.539  1.00  0.00     0.202 C 
HETATM   10  C   UNL     1      42.136 -16.990   3.145  1.00  0.00     0.062 C 
HETATM   11  H   UNL     1      44.903 -18.575   3.902  1.00  0.00     0.184 HD
ENDROOT
BRANCH  10  12
HETATM   12  C   UNL     1      41.163 -16.682   2.063  1.00  0.00     0.256 C 
HETATM   13  N   UNL     1      41.553 -15.662   1.225  1.00  0.00    -0.323 N 
HETATM   14  H   UNL     1      42.421 -15.192   1.439  1.00  0.00     0.169 HD
HETATM   15  O   UNL     1      40.106 -17.302   2.042  1.00  0.00    -0.267 OA
BRANCH  13  16
HETATM   16  C   UNL     1      40.873 -15.206   0.074  1.00  0.00     0.035 A 
HETATM   17  C   UNL     1      39.840 -14.268   0.098  1.00  0.00     0.032 A 
HETATM   18  C   UNL     1      39.207 -13.881  -1.089  1.00  0.00     0.039 A 
HETATM   19  C   UNL     1      39.594 -14.418  -2.316  1.00  0.00     0.068 A 
HETATM   20  C   UNL     1      40.617 -15.362  -2.347  1.00  0.00     0.039 A 
HETATM   21  C   UNL     1      41.254 -15.750  -1.159  1.00  0.00     0.032 A 
BRANCH  19  22
HETATM   22  O   UNL     1      38.893 -13.951  -3.392  1.00  0.00    -0.356 OA
HETATM   23  C   UNL     1      37.769 -14.716  -3.808  1.00  0.00     0.210 C 
ENDBRANCH  19  22
ENDBRANCH  13  16
ENDBRANCH  10  12
BRANCH   9  24
HETATM   24  C   UNL     1      41.584 -15.113   4.753  1.00  0.00    -0.026 A 
HETATM   25  C   UNL     1      40.405 -14.514   5.232  1.00  0.00     0.035 A 
HETATM   26  C   UNL     1      40.335 -13.131   5.444  1.00  0.00     0.056 A 
HETATM   27 CL   UNL     1      38.849 -12.483   6.042  1.00  0.00    -0.083 Cl
HETATM   28  C   UNL     1      41.445 -12.328   5.171  1.00  0.00     0.055 A 
HETATM   29 CL   UNL     1      41.439 -10.617   5.415  1.00  0.00    -0.083 Cl
HETATM   30  C   UNL     1      42.616 -12.909   4.679  1.00  0.00     0.026 A 
HETATM   31  C   UNL     1      42.685 -14.288   4.464  1.00  0.00     0.011 A 
ENDBRANCH   9  24
TORSDOF 4
ENDMDL
MODEL 6
REMARK VINA RESULT:      -7.8      3.784      5.452
REMARK  4 active torsions:
REMARK  status: ('A' for Active; 'I' for Inactive)
REMARK    1  A    between atoms: C_9  and  C_10 
REMARK    2  A    between atoms: C_18  and  C_19 
REMARK       I    between atoms: C_19  and  N_20 
REMARK    3  A    between atoms: N_20  and  C_21 
REMARK    4  A    between atoms: C_24  and  O_25 
ROOT
HETATM    1  C   UNL     1      40.827 -15.879  -2.342  1.00  0.00     0.070 C 
HETATM    2  C   UNL     1      41.254 -14.604  -1.657  1.00  0.00     0.037 C 
HETATM    3  N   UNL     1      41.362 -13.489  -2.483  1.00  0.00    -0.192 N 
HETATM    4  C   UNL     1      42.007 -12.365  -2.112  1.00  0.00     0.725 A 
HETATM    5  N   UNL     1      42.410 -12.221  -0.813  1.00  0.00    -0.084 N 
HETATM    6  N   UNL     1      43.102 -11.077  -0.635  1.00  0.00    -0.149 NA
HETATM    7  C   UNL     1      43.051 -10.564  -1.870  1.00  0.00     0.275 A 
HETATM    8  N   UNL     1      42.382 -11.319  -2.802  1.00  0.00    -0.054 NA
HETATM    9  C   UNL     1      42.141 -13.204   0.243  1.00  0.00     0.202 C 
HETATM   10  C   UNL     1      41.602 -14.506  -0.348  1.00  0.00     0.062 C 
HETATM   11  H   UNL     1      41.191 -13.624  -3.477  1.00  0.00     0.184 HD
ENDROOT
BRANCH  10  12
HETATM   12  C   UNL     1      41.648 -15.650   0.601  1.00  0.00     0.256 C 
HETATM   13  N   UNL     1      42.916 -16.122   0.858  1.00  0.00    -0.323 N 
HETATM   14  H   UNL     1      43.681 -15.692   0.357  1.00  0.00     0.169 HD
HETATM   15  O   UNL     1      40.587 -16.099   1.018  1.00  0.00    -0.267 OA
BRANCH  13  16
HETATM   16  C   UNL     1      43.272 -17.142   1.767  1.00  0.00     0.035 A 
HETATM   17  C   UNL     1      43.534 -18.461   1.398  1.00  0.00     0.032 A 
HETATM   18  C   UNL     1      43.865 -19.416   2.366  1.00  0.00     0.039 A 
HETATM   19  C   UNL     1      43.943 -19.072   3.715  1.00  0.00     0.068 A 
HETATM   20  C   UNL     1      43.672 -17.760   4.094  1.00  0.00     0.039 A 
HETATM   21  C   UNL     1      43.342 -16.801   3.124  1.00  0.00     0.032 A 
BRANCH  19  22
HETATM   22  O   UNL     1      44.277 -20.101   4.550  1.00  0.00    -0.356 OA
HETATM   23  C   UNL     1      44.251 -19.830   5.945  1.00  0.00     0.210 C 
ENDBRANCH  19  22
ENDBRANCH  13  16
ENDBRANCH  10  12
BRANCH   9  24
HETATM   24  C   UNL     1      41.189 -12.618   1.288  1.00  0.00    -0.026 A 
HETATM   25  C   UNL     1      41.658 -12.367   2.590  1.00  0.00     0.035 A 
HETATM   26  C   UNL     1      40.814 -11.825   3.568  1.00  0.00     0.056 A 
HETATM   27 CL   UNL     1      41.477 -11.543   5.138  1.00  0.00    -0.083 Cl
HETATM   28  C   UNL     1      39.483 -11.533   3.254  1.00  0.00     0.055 A 
HETATM   29 CL   UNL     1      38.384 -10.855   4.402  1.00  0.00    -0.083 Cl
HETATM   30  C   UNL     1      39.001 -11.793   1.969  1.00  0.00     0.026 A 
HETATM   31  C   UNL     1      39.843 -12.338   0.996  1.00  0.00     0.011 A 
ENDBRANCH   9  24
TORSDOF 4
ENDMDL
MODEL 7
REMARK VINA RESULT:      -7.6      2.312      3.341
REMARK  4 active torsions:
REMARK  status: ('A' for Active; 'I' for Inactive)
REMARK    1  A    between atoms: C_9  and  C_10 
REMARK    2  A    between atoms: C_18  and  C_19 
REMARK       I    between atoms: C_19  and  N_20 
REMARK    3  A    between atoms: N_20  and  C_21 
REMARK    4  A    between atoms: C_24  and  O_25 
ROOT
HETATM    1  C   UNL     1      40.741 -13.862   5.356  1.00  0.00     0.070 C 
HETATM    2  C   UNL     1      40.129 -13.427   4.047  1.00  0.00     0.037 C 
HETATM    3  N   UNL     1      39.536 -12.167   4.054  1.00  0.00    -0.192 N 
HETATM    4  C   UNL     1      38.696 -11.750   3.086  1.00  0.00     0.725 A 
HETATM    5  N   UNL     1      38.558 -12.499   1.950  1.00  0.00    -0.084 N 
HETATM    6  N   UNL     1      37.626 -11.978   1.126  1.00  0.00    -0.149 NA
HETATM    7  C   UNL     1      37.264 -10.892   1.820  1.00  0.00     0.275 A 
HETATM    8  N   UNL     1      37.902 -10.712   3.022  1.00  0.00    -0.054 NA
HETATM    9  C   UNL     1      39.313 -13.729   1.682  1.00  0.00     0.202 C 
HETATM   10  C   UNL     1      40.056 -14.196   2.931  1.00  0.00     0.062 C 
HETATM   11  H   UNL     1      39.522 -11.661   4.937  1.00  0.00     0.184 HD
ENDROOT
BRANCH  10  12
HETATM   12  C   UNL     1      40.540 -15.601   2.841  1.00  0.00     0.256 C 
HETATM   13  N   UNL     1      41.889 -15.750   3.069  1.00  0.00    -0.323 N 
HETATM   14  H   UNL     1      42.428 -14.910   3.228  1.00  0.00     0.169 HD
HETATM   15  O   UNL     1      39.736 -16.470   2.526  1.00  0.00    -0.267 OA
BRANCH  13  16
HETATM   16  C   UNL     1      42.609 -16.964   3.124  1.00  0.00     0.035 A 
HETATM   17  C   UNL     1      42.677 -17.781   4.252  1.00  0.00     0.032 A 
HETATM   18  C   UNL     1      43.427 -18.963   4.228  1.00  0.00     0.039 A 
HETATM   19  C   UNL     1      44.120 -19.348   3.081  1.00  0.00     0.068 A 
HETATM   20  C   UNL     1      44.067 -18.532   1.954  1.00  0.00     0.039 A 
HETATM   21  C   UNL     1      43.313 -17.349   1.975  1.00  0.00     0.032 A 
BRANCH  19  22
HETATM   22  O   UNL     1      44.810 -20.522   3.196  1.00  0.00    -0.356 OA
HETATM   23  C   UNL     1      45.119 -20.959   4.514  1.00  0.00     0.210 C 
ENDBRANCH  19  22
ENDBRANCH  13  16
ENDBRANCH  10  12
BRANCH   9  24
HETATM   24  C   UNL     1      40.262 -13.524   0.498  1.00  0.00    -0.026 A 
HETATM   25  C   UNL     1      40.234 -14.429  -0.578  1.00  0.00     0.035 A 
HETATM   26  C   UNL     1      41.085 -14.266  -1.678  1.00  0.00     0.056 A 
HETATM   27 CL   UNL     1      40.977 -15.421  -2.958  1.00  0.00    -0.083 Cl
HETATM   28  C   UNL     1      41.982 -13.194  -1.711  1.00  0.00     0.055 A 
HETATM   29 CL   UNL     1      43.057 -12.920  -3.036  1.00  0.00    -0.083 Cl
HETATM   30  C   UNL     1      42.031 -12.298  -0.641  1.00  0.00     0.026 A 
HETATM   31  C   UNL     1      41.184 -12.465   0.459  1.00  0.00     0.011 A 
ENDBRANCH   9  24
TORSDOF 4
ENDMDL
MODEL 8
REMARK VINA RESULT:      -7.2      2.593      7.016
REMARK  4 active torsions:
REMARK  status: ('A' for Active; 'I' for Inactive)
REMARK    1  A    between atoms: C_9  and  C_10 
REMARK    2  A    between atoms: C_18  and  C_19 
REMARK       I    between atoms: C_19  and  N_20 
REMARK    3  A    between atoms: N_20  and  C_21 
REMARK    4  A    between atoms: C_24  and  O_25 
ROOT
HETATM    1  C   UNL     1      43.147 -16.405   6.945  1.00  0.00     0.070 C 
HETATM    2  C   UNL     1      43.054 -16.593   5.451  1.00  0.00     0.037 C 
HETATM    3  N   UNL     1      43.058 -17.916   5.015  1.00  0.00    -0.192 N 
HETATM    4  C   UNL     1      43.282 -18.260   3.730  1.00  0.00     0.725 A 
HETATM    5  N   UNL     1      43.316 -17.285   2.772  1.00  0.00    -0.084 N 
HETATM    6  N   UNL     1      43.625 -17.795   1.562  1.00  0.00    -0.149 NA
HETATM    7  C   UNL     1      43.734 -19.095   1.863  1.00  0.00     0.275 A 
HETATM    8  N   UNL     1      43.523 -19.422   3.180  1.00  0.00    -0.054 NA
HETATM    9  C   UNL     1      43.073 -15.863   3.039  1.00  0.00     0.202 C 
HETATM   10  C   UNL     1      43.047 -15.586   4.540  1.00  0.00     0.062 C 
HETATM   11  H   UNL     1      43.166 -18.641   5.720  1.00  0.00     0.184 HD
ENDROOT
BRANCH  10  12
HETATM   12  C   UNL     1      43.165 -14.142   4.878  1.00  0.00     0.256 C 
HETATM   13  N   UNL     1      41.963 -13.517   5.118  1.00  0.00    -0.323 N 
HETATM   14  H   UNL     1      41.123 -14.067   5.001  1.00  0.00     0.169 HD
HETATM   15  O   UNL     1      44.280 -13.634   4.860  1.00  0.00    -0.267 OA
BRANCH  13  16
HETATM   16  C   UNL     1      41.771 -12.180   5.530  1.00  0.00     0.035 A 
HETATM   17  C   UNL     1      41.894 -11.745   6.850  1.00  0.00     0.032 A 
HETATM   18  C   UNL     1      41.671 -10.402   7.178  1.00  0.00     0.039 A 
HETATM   19  C   UNL     1      41.324  -9.473   6.198  1.00  0.00     0.068 A 
HETATM   20  C   UNL     1      41.188  -9.902   4.880  1.00  0.00     0.039 A 
HETATM   21  C   UNL     1      41.414 -11.246   4.549  1.00  0.00     0.032 A 
BRANCH  19  22
HETATM   22  O   UNL     1      41.137  -8.200   6.657  1.00  0.00    -0.356 OA
HETATM   23  C   UNL     1      40.823  -8.054   8.035  1.00  0.00     0.210 C 
ENDBRANCH  19  22
ENDBRANCH  13  16
ENDBRANCH  10  12
BRANCH   9  24
HETATM   24  C   UNL     1      41.784 -15.405   2.353  1.00  0.00    -0.026 A 
HETATM   25  C   UNL     1      41.843 -14.417   1.354  1.00  0.00     0.035 A 
HETATM   26  C   UNL     1      40.682 -13.980   0.703  1.00  0.00     0.056 A 
HETATM   27 CL   UNL     1      40.850 -12.769  -0.517  1.00  0.00    -0.083 Cl
HETATM   28  C   UNL     1      39.442 -14.525   1.051  1.00  0.00     0.055 A 
HETATM   29 CL   UNL     1      37.968 -14.045   0.289  1.00  0.00    -0.083 Cl
HETATM   30  C   UNL     1      39.369 -15.494   2.054  1.00  0.00     0.026 A 
HETATM   31  C   UNL     1      40.528 -15.926   2.706  1.00  0.00     0.011 A 
ENDBRANCH   9  24
TORSDOF 4
ENDMDL
MODEL 9
REMARK VINA RESULT:      -7.2      3.511      5.467
REMARK  4 active torsions:
REMARK  status: ('A' for Active; 'I' for Inactive)
REMARK    1  A    between atoms: C_9  and  C_10 
REMARK    2  A    between atoms: C_18  and  C_19 
REMARK       I    between atoms: C_19  and  N_20 
REMARK    3  A    between atoms: N_20  and  C_21 
REMARK    4  A    between atoms: C_24  and  O_25 
ROOT
HETATM    1  C   UNL     1      41.333 -16.668   0.224  1.00  0.00     0.070 C 
HETATM    2  C   UNL     1      41.509 -15.171   0.297  1.00  0.00     0.037 C 
HETATM    3  N   UNL     1      41.727 -14.535  -0.922  1.00  0.00    -0.192 N 
HETATM    4  C   UNL     1      42.196 -13.274  -1.013  1.00  0.00     0.725 A 
HETATM    5  N   UNL     1      42.283 -12.507   0.116  1.00  0.00    -0.084 N 
HETATM    6  N   UNL     1      42.840 -11.307  -0.145  1.00  0.00    -0.149 NA
HETATM    7  C   UNL     1      43.037 -11.409  -1.465  1.00  0.00     0.275 A 
HETATM    8  N   UNL     1      42.648 -12.595  -2.037  1.00  0.00    -0.054 NA
HETATM    9  C   UNL     1      41.848 -12.952   1.445  1.00  0.00     0.202 C 
HETATM   10  C   UNL     1      41.544 -14.449   1.447  1.00  0.00     0.062 C 
HETATM   11  H   UNL     1      41.794 -15.121  -1.751  1.00  0.00     0.184 HD
ENDROOT
BRANCH  10  12
HETATM   12  C   UNL     1      41.449 -15.032   2.812  1.00  0.00     0.256 C 
HETATM   13  N   UNL     1      42.652 -15.450   3.334  1.00  0.00    -0.323 N 
HETATM   14  H   UNL     1      43.467 -15.370   2.741  1.00  0.00     0.169 HD
HETATM   15  O   UNL     1      40.339 -15.140   3.319  1.00  0.00    -0.267 OA
BRANCH  13  16
HETATM   16  C   UNL     1      42.880 -15.969   4.627  1.00  0.00     0.035 A 
HETATM   17  C   UNL     1      42.551 -17.268   5.016  1.00  0.00     0.032 A 
HETATM   18  C   UNL     1      42.796 -17.700   6.325  1.00  0.00     0.039 A 
HETATM   19  C   UNL     1      43.373 -16.847   7.265  1.00  0.00     0.068 A 
HETATM   20  C   UNL     1      43.694 -15.546   6.888  1.00  0.00     0.039 A 
HETATM   21  C   UNL     1      43.452 -15.112   5.576  1.00  0.00     0.032 A 
BRANCH  19  22
HETATM   22  O   UNL     1      43.556 -17.398   8.502  1.00  0.00    -0.356 OA
HETATM   23  C   UNL     1      44.193 -18.669   8.551  1.00  0.00     0.210 C 
ENDBRANCH  19  22
ENDBRANCH  13  16
ENDBRANCH  10  12
BRANCH   9  24
HETATM   24  C   UNL     1      40.648 -12.128   1.916  1.00  0.00    -0.026 A 
HETATM   25  C   UNL     1      39.398 -12.303   1.293  1.00  0.00     0.035 A 
HETATM   26  C   UNL     1      38.280 -11.567   1.706  1.00  0.00     0.056 A 
HETATM   27 CL   UNL     1      36.784 -11.853   0.891  1.00  0.00    -0.083 Cl
HETATM   28  C   UNL     1      38.400 -10.640   2.745  1.00  0.00     0.055 A 
HETATM   29 CL   UNL     1      37.066  -9.702   3.315  1.00  0.00    -0.083 Cl
HETATM   30  C   UNL     1      39.640 -10.445   3.359  1.00  0.00     0.026 A 
HETATM   31  C   UNL     1      40.756 -11.176   2.944  1.00  0.00     0.011 A 
ENDBRANCH   9  24
TORSDOF 4
ENDMDL
MODEL 10
REMARK VINA RESULT:      -7.1      3.677      6.254
REMARK  4 active torsions:
REMARK  status: ('A' for Active; 'I' for Inactive)
REMARK    1  A    between atoms: C_9  and  C_10 
REMARK    2  A    between atoms: C_18  and  C_19 
REMARK       I    between atoms: C_19  and  N_20 
REMARK    3  A    between atoms: N_20  and  C_21 
REMARK    4  A    between atoms: C_24  and  O_25 
ROOT
HETATM    1  C   UNL     1      41.152 -17.821   0.983  1.00  0.00     0.070 C 
HETATM    2  C   UNL     1      40.997 -16.481   0.306  1.00  0.00     0.037 C 
HETATM    3  N   UNL     1      40.912 -16.521  -1.084  1.00  0.00    -0.192 N 
HETATM    4  C   UNL     1      41.072 -15.427  -1.856  1.00  0.00     0.725 A 
HETATM    5  N   UNL     1      41.127 -14.194  -1.269  1.00  0.00    -0.084 N 
HETATM    6  N   UNL     1      41.365 -13.225  -2.177  1.00  0.00    -0.149 NA
HETATM    7  C   UNL     1      41.411 -13.950  -3.301  1.00  0.00     0.275 A 
HETATM    8  N   UNL     1      41.227 -15.301  -3.149  1.00  0.00    -0.054 NA
HETATM    9  C   UNL     1      40.974 -13.964   0.173  1.00  0.00     0.202 C 
HETATM   10  C   UNL     1      41.015 -15.282   0.943  1.00  0.00     0.062 C 
HETATM   11  H   UNL     1      41.003 -17.429  -1.533  1.00  0.00     0.184 HD
ENDROOT
BRANCH  10  12
HETATM   12  C   UNL     1      41.226 -15.107   2.405  1.00  0.00     0.256 C 
HETATM   13  N   UNL     1      42.540 -15.205   2.803  1.00  0.00    -0.323 N 
HETATM   14  H   UNL     1      43.224 -15.427   2.093  1.00  0.00     0.169 HD
HETATM   15  O   UNL     1      40.240 -14.952   3.117  1.00  0.00    -0.267 OA
BRANCH  13  16
HETATM   16  C   UNL     1      43.047 -15.009   4.106  1.00  0.00     0.035 A 
HETATM   17  C   UNL     1      43.365 -16.046   4.984  1.00  0.00     0.032 A 
HETATM   18  C   UNL     1      43.848 -15.766   6.267  1.00  0.00     0.039 A 
HETATM   19  C   UNL     1      44.024 -14.451   6.695  1.00  0.00     0.068 A 
HETATM   20  C   UNL     1      43.699 -13.410   5.829  1.00  0.00     0.039 A 
HETATM   21  C   UNL     1      43.217 -13.689   4.542  1.00  0.00     0.032 A 
BRANCH  19  22
HETATM   22  O   UNL     1      44.503 -14.322   7.969  1.00  0.00    -0.356 OA
HETATM   23  C   UNL     1      44.814 -13.006   8.408  1.00  0.00     0.210 C 
ENDBRANCH  19  22
ENDBRANCH  13  16
ENDBRANCH  10  12
BRANCH   9  24
HETATM   24  C   UNL     1      39.690 -13.181   0.454  1.00  0.00    -0.026 A 
HETATM   25  C   UNL     1      39.773 -11.849   0.899  1.00  0.00     0.035 A 
HETATM   26  C   UNL     1      38.616 -11.104   1.159  1.00  0.00     0.056 A 
HETATM   27 CL   UNL     1      38.812  -9.473   1.694  1.00  0.00    -0.083 Cl
HETATM   28  C   UNL     1      37.357 -11.686   0.983  1.00  0.00     0.055 A 
HETATM   29 CL   UNL     1      35.885 -10.830   1.274  1.00  0.00    -0.083 Cl
HETATM   30  C   UNL     1      37.262 -13.014   0.558  1.00  0.00     0.026 A 
HETATM   31  C   UNL     1      38.417 -13.758   0.302  1.00  0.00     0.011 A 
ENDBRANCH   9  24
TORSDOF 4
ENDMDL
