MODEL 1
REMARK VINA RESULT:      -8.7      0.000      0.000
REMARK  6 active torsions:
REMARK  status: ('A' for Active; 'I' for Inactive)
REMARK    1  A    between atoms: C_4  and  C_5 
REMARK    2  A    between atoms: C_6  and  C_7 
REMARK    3  A    between atoms: C_7  and  C_8 
REMARK    4  A    between atoms: C_8  and  C_9 
REMARK       I    between atoms: C_9  and  N_10 
REMARK    5  A    between atoms: N_10  and  C_11 
REMARK    6  A    between atoms: C_18  and  C_19 
REMARK       I    between atoms: C_19  and  N_20 
ROOT
HETATM    1  C   UNL     1      41.227 -16.054   5.527  1.00  0.00     0.035 A 
HETATM    2  C   UNL     1      41.303 -16.431   4.178  1.00  0.00     0.046 A 
HETATM    3  C   UNL     1      40.652 -15.648   3.199  1.00  0.00     0.030 A 
HETATM    4  C   UNL     1      39.936 -14.528   3.602  1.00  0.00     0.063 A 
HETATM    5  N   UNL     1      39.419 -13.994   2.455  1.00  0.00    -0.277 N 
HETATM    6  H   UNL     1      38.835 -13.170   2.371  1.00  0.00     0.189 HD
HETATM    7  N   UNL     1      39.750 -14.655   1.335  1.00  0.00    -0.168 NA
HETATM    8  C   UNL     1      40.516 -15.680   1.777  1.00  0.00     0.156 A 
HETATM    9  C   UNL     1      39.837 -14.126   4.935  1.00  0.00     0.034 A 
HETATM   10  C   UNL     1      40.504 -14.908   5.885  1.00  0.00     0.032 A 
ENDROOT
BRANCH   1  11
HETATM   11  N   UNL     1      41.859 -16.756   6.577  1.00  0.00    -0.327 N 
HETATM   12  C   UNL     1      43.125 -16.544   7.090  1.00  0.00     0.222 C 
HETATM   13  O   UNL     1      43.940 -15.717   6.695  1.00  0.00    -0.273 OA
HETATM   14  H   UNL     1      41.331 -17.524   6.966  1.00  0.00     0.169 HD
BRANCH  12  15
HETATM   15  C   UNL     1      43.453 -17.421   8.291  1.00  0.00     0.107 C 
BRANCH  15  16
HETATM   16  C   UNL     1      44.201 -18.716   7.972  1.00  0.00     0.036 C 
BRANCH  16  17
HETATM   17  C   UNL     1      43.984 -19.364   6.631  1.00  0.00    -0.025 C 
HETATM   18  C   UNL     1      44.759 -19.264   5.540  1.00  0.00     0.007 C 
BRANCH  18  19
HETATM   19  C   UNL     1      44.451 -19.928   4.265  1.00  0.00    -0.036 A 
HETATM   20  C   UNL     1      44.774 -21.282   4.112  1.00  0.00     0.011 A 
HETATM   21  C   UNL     1      44.475 -21.954   2.924  1.00  0.00     0.001 A 
HETATM   22  C   UNL     1      43.841 -21.281   1.882  1.00  0.00     0.000 A 
HETATM   23  C   UNL     1      43.499 -19.938   2.028  1.00  0.00     0.001 A 
HETATM   24  C   UNL     1      43.798 -19.266   3.216  1.00  0.00     0.011 A 
ENDBRANCH  18  19
ENDBRANCH  16  17
ENDBRANCH  15  16
ENDBRANCH  12  15
ENDBRANCH   1  11
BRANCH   8  25
HETATM   25  C   UNL     1      41.102 -16.648   0.840  1.00  0.00     0.270 C 
HETATM   26  N   UNL     1      41.879 -16.081  -0.133  1.00  0.00    -0.365 N 
HETATM   27  H   UNL     1      42.001 -15.075  -0.132  1.00  0.00     0.159 HD
HETATM   28  H   UNL     1      42.338 -16.668  -0.811  1.00  0.00     0.159 HD
HETATM   29  O   UNL     1      40.940 -17.862   0.894  1.00  0.00    -0.266 OA
ENDBRANCH   8  25
TORSDOF 6
ENDMDL
MODEL 2
REMARK VINA RESULT:      -8.2      2.117      2.852
REMARK  6 active torsions:
REMARK  status: ('A' for Active; 'I' for Inactive)
REMARK    1  A    between atoms: C_4  and  C_5 
REMARK    2  A    between atoms: C_6  and  C_7 
REMARK    3  A    between atoms: C_7  and  C_8 
REMARK    4  A    between atoms: C_8  and  C_9 
REMARK       I    between atoms: C_9  and  N_10 
REMARK    5  A    between atoms: N_10  and  C_11 
REMARK    6  A    between atoms: C_18  and  C_19 
REMARK       I    between atoms: C_19  and  N_20 
ROOT
HETATM    1  C   UNL     1      42.617 -16.173   3.266  1.00  0.00     0.035 A 
HETATM    2  C   UNL     1      42.568 -15.055   2.422  1.00  0.00     0.046 A 
HETATM    3  C   UNL     1      41.953 -15.164   1.155  1.00  0.00     0.030 A 
HETATM    4  C   UNL     1      41.424 -16.390   0.770  1.00  0.00     0.063 A 
HETATM    5  N   UNL     1      40.918 -16.190  -0.484  1.00  0.00    -0.277 N 
HETATM    6  H   UNL     1      40.459 -16.872  -1.076  1.00  0.00     0.189 HD
HETATM    7  N   UNL     1      41.053 -14.937  -0.945  1.00  0.00    -0.168 NA
HETATM    8  C   UNL     1      41.689 -14.289   0.058  1.00  0.00     0.156 A 
HETATM    9  C   UNL     1      41.456 -17.523   1.584  1.00  0.00     0.034 A 
HETATM   10  C   UNL     1      42.056 -17.385   2.841  1.00  0.00     0.032 A 
ENDROOT
BRANCH   1  11
HETATM   11  N   UNL     1      43.189 -16.160   4.558  1.00  0.00    -0.327 N 
HETATM   12  C   UNL     1      42.528 -16.149   5.772  1.00  0.00     0.222 C 
HETATM   13  O   UNL     1      41.314 -16.117   5.938  1.00  0.00    -0.273 OA
HETATM   14  H   UNL     1      44.198 -16.117   4.586  1.00  0.00     0.169 HD
BRANCH  12  15
HETATM   15  C   UNL     1      43.457 -16.238   6.975  1.00  0.00     0.107 C 
BRANCH  15  16
HETATM   16  C   UNL     1      43.734 -17.652   7.487  1.00  0.00     0.036 C 
BRANCH  16  17
HETATM   17  C   UNL     1      43.771 -18.785   6.496  1.00  0.00    -0.025 C 
HETATM   18  C   UNL     1      44.765 -19.097   5.650  1.00  0.00     0.007 C 
BRANCH  18  19
HETATM   19  C   UNL     1      44.698 -20.221   4.704  1.00  0.00    -0.036 A 
HETATM   20  C   UNL     1      44.792 -21.528   5.200  1.00  0.00     0.011 A 
HETATM   21  C   UNL     1      44.710 -22.623   4.336  1.00  0.00     0.001 A 
HETATM   22  C   UNL     1      44.522 -22.422   2.970  1.00  0.00     0.000 A 
HETATM   23  C   UNL     1      44.410 -21.127   2.467  1.00  0.00     0.001 A 
HETATM   24  C   UNL     1      44.493 -20.032   3.331  1.00  0.00     0.011 A 
ENDBRANCH  18  19
ENDBRANCH  16  17
ENDBRANCH  15  16
ENDBRANCH  12  15
ENDBRANCH   1  11
BRANCH   8  25
HETATM   25  C   UNL     1      42.015 -12.860  -0.050  1.00  0.00     0.270 C 
HETATM   26  N   UNL     1      41.830 -12.338  -1.301  1.00  0.00    -0.365 N 
HETATM   27  H   UNL     1      41.482 -12.947  -2.033  1.00  0.00     0.159 HD
HETATM   28  H   UNL     1      42.011 -11.361  -1.467  1.00  0.00     0.159 HD
HETATM   29  O   UNL     1      42.414 -12.160   0.875  1.00  0.00    -0.266 OA
ENDBRANCH   8  25
TORSDOF 6
ENDMDL
MODEL 3
REMARK VINA RESULT:      -8.2      1.818      2.736
REMARK  6 active torsions:
REMARK  status: ('A' for Active; 'I' for Inactive)
REMARK    1  A    between atoms: C_4  and  C_5 
REMARK    2  A    between atoms: C_6  and  C_7 
REMARK    3  A    between atoms: C_7  and  C_8 
REMARK    4  A    between atoms: C_8  and  C_9 
REMARK       I    between atoms: C_9  and  N_10 
REMARK    5  A    between atoms: N_10  and  C_11 
REMARK    6  A    between atoms: C_18  and  C_19 
REMARK       I    between atoms: C_19  and  N_20 
ROOT
HETATM    1  C   UNL     1      41.701 -15.846   4.292  1.00  0.00     0.035 A 
HETATM    2  C   UNL     1      41.007 -14.640   4.121  1.00  0.00     0.046 A 
HETATM    3  C   UNL     1      40.086 -14.510   3.057  1.00  0.00     0.030 A 
HETATM    4  C   UNL     1      39.904 -15.583   2.194  1.00  0.00     0.063 A 
HETATM    5  N   UNL     1      38.981 -15.161   1.279  1.00  0.00    -0.277 N 
HETATM    6  H   UNL     1      38.611 -15.685   0.494  1.00  0.00     0.189 HD
HETATM    7  N   UNL     1      38.529 -13.913   1.479  1.00  0.00    -0.168 NA
HETATM    8  C   UNL     1      39.201 -13.498   2.578  1.00  0.00     0.156 A 
HETATM    9  C   UNL     1      40.579 -16.797   2.332  1.00  0.00     0.034 A 
HETATM   10  C   UNL     1      41.473 -16.906   3.404  1.00  0.00     0.032 A 
ENDROOT
BRANCH   1  11
HETATM   11  N   UNL     1      42.624 -16.082   5.335  1.00  0.00    -0.327 N 
HETATM   12  C   UNL     1      42.376 -16.662   6.565  1.00  0.00     0.222 C 
HETATM   13  O   UNL     1      41.288 -17.048   6.980  1.00  0.00    -0.273 OA
HETATM   14  H   UNL     1      43.564 -15.752   5.166  1.00  0.00     0.169 HD
BRANCH  12  15
HETATM   15  C   UNL     1      43.625 -16.854   7.414  1.00  0.00     0.107 C 
BRANCH  15  16
HETATM   16  C   UNL     1      44.149 -18.289   7.492  1.00  0.00     0.036 C 
BRANCH  16  17
HETATM   17  C   UNL     1      43.992 -19.182   6.292  1.00  0.00    -0.025 C 
HETATM   18  C   UNL     1      44.723 -19.172   5.165  1.00  0.00     0.007 C 
BRANCH  18  19
HETATM   19  C   UNL     1      44.479 -20.082   4.036  1.00  0.00    -0.036 A 
HETATM   20  C   UNL     1      44.784 -21.441   4.184  1.00  0.00     0.011 A 
HETATM   21  C   UNL     1      44.544 -22.340   3.142  1.00  0.00     0.001 A 
HETATM   22  C   UNL     1      43.988 -21.891   1.946  1.00  0.00     0.000 A 
HETATM   23  C   UNL     1      43.664 -20.544   1.793  1.00  0.00     0.001 A 
HETATM   24  C   UNL     1      43.904 -19.645   2.835  1.00  0.00     0.011 A 
ENDBRANCH  18  19
ENDBRANCH  16  17
ENDBRANCH  15  16
ENDBRANCH  12  15
ENDBRANCH   1  11
BRANCH   8  25
HETATM   25  C   UNL     1      38.974 -12.161   3.144  1.00  0.00     0.270 C 
HETATM   26  N   UNL     1      37.940 -11.477   2.564  1.00  0.00    -0.365 N 
HETATM   27  H   UNL     1      37.417 -11.928   1.823  1.00  0.00     0.159 HD
HETATM   28  H   UNL     1      37.699 -10.558   2.899  1.00  0.00     0.159 HD
HETATM   29  O   UNL     1      39.625 -11.667   4.059  1.00  0.00    -0.266 OA
ENDBRANCH   8  25
TORSDOF 6
ENDMDL
MODEL 4
REMARK VINA RESULT:      -8.2      5.332      8.597
REMARK  6 active torsions:
REMARK  status: ('A' for Active; 'I' for Inactive)
REMARK    1  A    between atoms: C_4  and  C_5 
REMARK    2  A    between atoms: C_6  and  C_7 
REMARK    3  A    between atoms: C_7  and  C_8 
REMARK    4  A    between atoms: C_8  and  C_9 
REMARK       I    between atoms: C_9  and  N_10 
REMARK    5  A    between atoms: N_10  and  C_11 
REMARK    6  A    between atoms: C_18  and  C_19 
REMARK       I    between atoms: C_19  and  N_20 
ROOT
HETATM    1  C   UNL     1      43.961 -15.942   6.484  1.00  0.00     0.035 A 
HETATM    2  C   UNL     1      43.217 -16.085   5.304  1.00  0.00     0.046 A 
HETATM    3  C   UNL     1      43.311 -17.284   4.562  1.00  0.00     0.030 A 
HETATM    4  C   UNL     1      44.156 -18.289   5.016  1.00  0.00     0.063 A 
HETATM    5  N   UNL     1      44.045 -19.297   4.100  1.00  0.00    -0.277 N 
HETATM    6  H   UNL     1      44.527 -20.189   4.109  1.00  0.00     0.189 HD
HETATM    7  N   UNL     1      43.188 -19.048   3.098  1.00  0.00    -0.168 NA
HETATM    8  C   UNL     1      42.722 -17.807   3.371  1.00  0.00     0.156 A 
HETATM    9  C   UNL     1      44.912 -18.180   6.184  1.00  0.00     0.034 A 
HETATM   10  C   UNL     1      44.789 -16.990   6.910  1.00  0.00     0.032 A 
ENDROOT
BRANCH   1  11
HETATM   11  N   UNL     1      43.919 -14.795   7.307  1.00  0.00    -0.327 N 
HETATM   12  C   UNL     1      44.815 -13.743   7.332  1.00  0.00     0.222 C 
HETATM   13  O   UNL     1      45.833 -13.639   6.654  1.00  0.00    -0.273 OA
HETATM   14  H   UNL     1      43.164 -14.768   7.977  1.00  0.00     0.169 HD
BRANCH  12  15
HETATM   15  C   UNL     1      44.412 -12.618   8.275  1.00  0.00     0.107 C 
BRANCH  15  16
HETATM   16  C   UNL     1      45.295 -12.454   9.513  1.00  0.00     0.036 C 
BRANCH  16  17
HETATM   17  C   UNL     1      44.676 -11.918  10.776  1.00  0.00    -0.025 C 
HETATM   18  C   UNL     1      43.547 -11.201  10.893  1.00  0.00     0.007 C 
BRANCH  18  19
HETATM   19  C   UNL     1      43.031 -10.708  12.178  1.00  0.00    -0.036 A 
HETATM   20  C   UNL     1      43.744  -9.708  12.853  1.00  0.00     0.011 A 
HETATM   21  C   UNL     1      43.274  -9.197  14.066  1.00  0.00     0.001 A 
HETATM   22  C   UNL     1      42.082  -9.672  14.609  1.00  0.00     0.000 A 
HETATM   23  C   UNL     1      41.356 -10.654  13.938  1.00  0.00     0.001 A 
HETATM   24  C   UNL     1      41.825 -11.165  12.725  1.00  0.00     0.011 A 
ENDBRANCH  18  19
ENDBRANCH  16  17
ENDBRANCH  15  16
ENDBRANCH  12  15
ENDBRANCH   1  11
BRANCH   8  25
HETATM   25  C   UNL     1      41.728 -17.163   2.502  1.00  0.00     0.270 C 
HETATM   26  N   UNL     1      40.518 -16.948   3.103  1.00  0.00    -0.365 N 
HETATM   27  H   UNL     1      40.401 -17.226   4.070  1.00  0.00     0.159 HD
HETATM   28  H   UNL     1      39.779 -16.494   2.590  1.00  0.00     0.159 HD
HETATM   29  O   UNL     1      41.927 -16.825   1.340  1.00  0.00    -0.266 OA
ENDBRANCH   8  25
TORSDOF 6
ENDMDL
MODEL 5
REMARK VINA RESULT:      -8.0      2.582      3.529
REMARK  6 active torsions:
REMARK  status: ('A' for Active; 'I' for Inactive)
REMARK    1  A    between atoms: C_4  and  C_5 
REMARK    2  A    between atoms: C_6  and  C_7 
REMARK    3  A    between atoms: C_7  and  C_8 
REMARK    4  A    between atoms: C_8  and  C_9 
REMARK       I    between atoms: C_9  and  N_10 
REMARK    5  A    between atoms: N_10  and  C_11 
REMARK    6  A    between atoms: C_18  and  C_19 
REMARK       I    between atoms: C_19  and  N_20 
ROOT
HETATM    1  C   UNL     1      40.848 -14.963   1.858  1.00  0.00     0.035 A 
HETATM    2  C   UNL     1      41.208 -14.964   0.502  1.00  0.00     0.046 A 
HETATM    3  C   UNL     1      40.259 -14.579  -0.471  1.00  0.00     0.030 A 
HETATM    4  C   UNL     1      38.981 -14.224  -0.058  1.00  0.00     0.063 A 
HETATM    5  N   UNL     1      38.301 -13.920  -1.203  1.00  0.00    -0.277 N 
HETATM    6  H   UNL     1      37.334 -13.624  -1.283  1.00  0.00     0.189 HD
HETATM    7  N   UNL     1      39.026 -14.026  -2.327  1.00  0.00    -0.168 NA
HETATM    8  C   UNL     1      40.242 -14.430  -1.891  1.00  0.00     0.156 A 
HETATM    9  C   UNL     1      38.588 -14.214   1.281  1.00  0.00     0.034 A 
HETATM   10  C   UNL     1      39.551 -14.583   2.227  1.00  0.00     0.032 A 
ENDROOT
BRANCH   1  11
HETATM   11  N   UNL     1      41.729 -15.309   2.906  1.00  0.00    -0.327 N 
HETATM   12  C   UNL     1      42.801 -14.578   3.382  1.00  0.00     0.222 C 
HETATM   13  O   UNL     1      43.196 -13.501   2.948  1.00  0.00    -0.273 OA
HETATM   14  H   UNL     1      41.571 -16.214   3.326  1.00  0.00     0.169 HD
BRANCH  12  15
HETATM   15  C   UNL     1      43.479 -15.203   4.593  1.00  0.00     0.107 C 
BRANCH  15  16
HETATM   16  C   UNL     1      42.707 -16.342   5.261  1.00  0.00     0.036 C 
BRANCH  16  17
HETATM   17  C   UNL     1      42.995 -17.757   4.837  1.00  0.00    -0.025 C 
HETATM   18  C   UNL     1      43.791 -18.164   3.834  1.00  0.00     0.007 C 
BRANCH  18  19
HETATM   19  C   UNL     1      43.995 -19.577   3.487  1.00  0.00    -0.036 A 
HETATM   20  C   UNL     1      43.655 -20.014   2.200  1.00  0.00     0.011 A 
HETATM   21  C   UNL     1      43.856 -21.344   1.824  1.00  0.00     0.001 A 
HETATM   22  C   UNL     1      44.409 -22.249   2.728  1.00  0.00     0.000 A 
HETATM   23  C   UNL     1      44.768 -21.823   4.005  1.00  0.00     0.001 A 
HETATM   24  C   UNL     1      44.567 -20.492   4.381  1.00  0.00     0.011 A 
ENDBRANCH  18  19
ENDBRANCH  16  17
ENDBRANCH  15  16
ENDBRANCH  12  15
ENDBRANCH   1  11
BRANCH   8  25
HETATM   25  C   UNL     1      41.349 -14.651  -2.831  1.00  0.00     0.270 C 
HETATM   26  N   UNL     1      42.318 -13.686  -2.789  1.00  0.00    -0.365 N 
HETATM   27  H   UNL     1      42.214 -12.923  -2.130  1.00  0.00     0.159 HD
HETATM   28  H   UNL     1      43.126 -13.762  -3.386  1.00  0.00     0.159 HD
HETATM   29  O   UNL     1      41.440 -15.605  -3.597  1.00  0.00    -0.266 OA
ENDBRANCH   8  25
TORSDOF 6
ENDMDL
MODEL 6
REMARK VINA RESULT:      -7.6      4.618      8.279
REMARK  6 active torsions:
REMARK  status: ('A' for Active; 'I' for Inactive)
REMARK    1  A    between atoms: C_4  and  C_5 
REMARK    2  A    between atoms: C_6  and  C_7 
REMARK    3  A    between atoms: C_7  and  C_8 
REMARK    4  A    between atoms: C_8  and  C_9 
REMARK       I    between atoms: C_9  and  N_10 
REMARK    5  A    between atoms: N_10  and  C_11 
REMARK    6  A    between atoms: C_18  and  C_19 
REMARK       I    between atoms: C_19  and  N_20 
ROOT
HETATM    1  C   UNL     1      43.788 -17.724   3.366  1.00  0.00     0.035 A 
HETATM    2  C   UNL     1      44.089 -18.890   4.085  1.00  0.00     0.046 A 
HETATM    3  C   UNL     1      44.134 -20.132   3.412  1.00  0.00     0.030 A 
HETATM    4  C   UNL     1      43.859 -20.167   2.051  1.00  0.00     0.063 A 
HETATM    5  N   UNL     1      43.966 -21.482   1.693  1.00  0.00    -0.277 N 
HETATM    6  H   UNL     1      43.825 -21.880   0.771  1.00  0.00     0.189 HD
HETATM    7  N   UNL     1      44.304 -22.306   2.696  1.00  0.00    -0.168 NA
HETATM    8  C   UNL     1      44.415 -21.486   3.767  1.00  0.00     0.156 A 
HETATM    9  C   UNL     1      43.554 -19.028   1.305  1.00  0.00     0.034 A 
HETATM   10  C   UNL     1      43.532 -17.808   1.990  1.00  0.00     0.032 A 
ENDROOT
BRANCH   1  11
HETATM   11  N   UNL     1      43.740 -16.435   3.941  1.00  0.00    -0.327 N 
HETATM   12  C   UNL     1      43.402 -16.102   5.239  1.00  0.00     0.222 C 
HETATM   13  O   UNL     1      43.049 -16.880   6.119  1.00  0.00    -0.273 OA
HETATM   14  H   UNL     1      43.944 -15.671   3.311  1.00  0.00     0.169 HD
BRANCH  12  15
HETATM   15  C   UNL     1      43.552 -14.620   5.550  1.00  0.00     0.107 C 
BRANCH  15  16
HETATM   16  C   UNL     1      44.492 -14.286   6.709  1.00  0.00     0.036 C 
BRANCH  16  17
HETATM   17  C   UNL     1      44.052 -13.270   7.729  1.00  0.00    -0.025 C 
HETATM   18  C   UNL     1      44.827 -12.567   8.569  1.00  0.00     0.007 C 
BRANCH  18  19
HETATM   19  C   UNL     1      44.296 -11.604   9.545  1.00  0.00    -0.036 A 
HETATM   20  C   UNL     1      43.126 -10.900   9.232  1.00  0.00     0.011 A 
HETATM   21  C   UNL     1      42.577  -9.994  10.143  1.00  0.00     0.001 A 
HETATM   22  C   UNL     1      43.187  -9.790  11.379  1.00  0.00     0.000 A 
HETATM   23  C   UNL     1      44.342 -10.497  11.708  1.00  0.00     0.001 A 
HETATM   24  C   UNL     1      44.891 -11.403  10.797  1.00  0.00     0.011 A 
ENDBRANCH  18  19
ENDBRANCH  16  17
ENDBRANCH  15  16
ENDBRANCH  12  15
ENDBRANCH   1  11
BRANCH   8  25
HETATM   25  C   UNL     1      44.794 -22.009   5.086  1.00  0.00     0.270 C 
HETATM   26  N   UNL     1      45.674 -23.057   5.039  1.00  0.00    -0.365 N 
HETATM   27  H   UNL     1      45.998 -23.377   4.134  1.00  0.00     0.159 HD
HETATM   28  H   UNL     1      46.005 -23.470   5.896  1.00  0.00     0.159 HD
HETATM   29  O   UNL     1      44.388 -21.571   6.157  1.00  0.00    -0.266 OA
ENDBRANCH   8  25
TORSDOF 6
ENDMDL
MODEL 7
REMARK VINA RESULT:      -7.6      3.149      5.578
REMARK  6 active torsions:
REMARK  status: ('A' for Active; 'I' for Inactive)
REMARK    1  A    between atoms: C_4  and  C_5 
REMARK    2  A    between atoms: C_6  and  C_7 
REMARK    3  A    between atoms: C_7  and  C_8 
REMARK    4  A    between atoms: C_8  and  C_9 
REMARK       I    between atoms: C_9  and  N_10 
REMARK    5  A    between atoms: N_10  and  C_11 
REMARK    6  A    between atoms: C_18  and  C_19 
REMARK       I    between atoms: C_19  and  N_20 
ROOT
HETATM    1  C   UNL     1      40.320 -13.939   3.416  1.00  0.00     0.035 A 
HETATM    2  C   UNL     1      39.939 -12.651   3.818  1.00  0.00     0.046 A 
HETATM    3  C   UNL     1      39.715 -12.386   5.188  1.00  0.00     0.030 A 
HETATM    4  C   UNL     1      39.863 -13.420   6.104  1.00  0.00     0.063 A 
HETATM    5  N   UNL     1      39.574 -12.871   7.321  1.00  0.00    -0.277 N 
HETATM    6  H   UNL     1      39.574 -13.339   8.221  1.00  0.00     0.189 HD
HETATM    7  N   UNL     1      39.267 -11.565   7.285  1.00  0.00    -0.168 NA
HETATM    8  C   UNL     1      39.353 -11.248   5.972  1.00  0.00     0.156 A 
HETATM    9  C   UNL     1      40.239 -14.714   5.739  1.00  0.00     0.034 A 
HETATM   10  C   UNL     1      40.471 -14.947   4.379  1.00  0.00     0.032 A 
ENDROOT
BRANCH   1  11
HETATM   11  N   UNL     1      40.588 -14.298   2.077  1.00  0.00    -0.327 N 
HETATM   12  C   UNL     1      41.703 -13.979   1.325  1.00  0.00     0.222 C 
HETATM   13  O   UNL     1      42.652 -13.292   1.689  1.00  0.00    -0.273 OA
HETATM   14  H   UNL     1      39.857 -14.818   1.611  1.00  0.00     0.169 HD
BRANCH  12  15
HETATM   15  C   UNL     1      41.713 -14.615  -0.058  1.00  0.00     0.107 C 
BRANCH  15  16
HETATM   16  C   UNL     1      41.422 -16.116  -0.090  1.00  0.00     0.036 C 
BRANCH  16  17
HETATM   17  C   UNL     1      42.287 -17.038   0.728  1.00  0.00    -0.025 C 
HETATM   18  C   UNL     1      41.943 -17.707   1.840  1.00  0.00     0.007 C 
BRANCH  18  19
HETATM   19  C   UNL     1      42.870 -18.576   2.580  1.00  0.00    -0.036 A 
HETATM   20  C   UNL     1      43.434 -19.678   1.924  1.00  0.00     0.011 A 
HETATM   21  C   UNL     1      44.337 -20.513   2.586  1.00  0.00     0.001 A 
HETATM   22  C   UNL     1      44.693 -20.249   3.907  1.00  0.00     0.000 A 
HETATM   23  C   UNL     1      44.152 -19.146   4.564  1.00  0.00     0.001 A 
HETATM   24  C   UNL     1      43.249 -18.310   3.902  1.00  0.00     0.011 A 
ENDBRANCH  18  19
ENDBRANCH  16  17
ENDBRANCH  15  16
ENDBRANCH  12  15
ENDBRANCH   1  11
BRANCH   8  25
HETATM   25  C   UNL     1      39.102  -9.878   5.505  1.00  0.00     0.270 C 
HETATM   26  N   UNL     1      40.147  -9.019   5.708  1.00  0.00    -0.365 N 
HETATM   27  H   UNL     1      40.992  -9.377   6.138  1.00  0.00     0.159 HD
HETATM   28  H   UNL     1      40.074  -8.062   5.403  1.00  0.00     0.159 HD
HETATM   29  O   UNL     1      38.066  -9.499   4.969  1.00  0.00    -0.266 OA
ENDBRANCH   8  25
TORSDOF 6
ENDMDL
MODEL 8
REMARK VINA RESULT:      -7.5      6.816      8.796
REMARK  6 active torsions:
REMARK  status: ('A' for Active; 'I' for Inactive)
REMARK    1  A    between atoms: C_4  and  C_5 
REMARK    2  A    between atoms: C_6  and  C_7 
REMARK    3  A    between atoms: C_7  and  C_8 
REMARK    4  A    between atoms: C_8  and  C_9 
REMARK       I    between atoms: C_9  and  N_10 
REMARK    5  A    between atoms: N_10  and  C_11 
REMARK    6  A    between atoms: C_18  and  C_19 
REMARK       I    between atoms: C_19  and  N_20 
ROOT
HETATM    1  C   UNL     1      42.591 -11.104  11.661  1.00  0.00     0.035 A 
HETATM    2  C   UNL     1      41.350 -10.559  11.298  1.00  0.00     0.046 A 
HETATM    3  C   UNL     1      40.735  -9.605  12.139  1.00  0.00     0.030 A 
HETATM    4  C   UNL     1      41.373  -9.241  13.319  1.00  0.00     0.063 A 
HETATM    5  N   UNL     1      40.546  -8.329  13.912  1.00  0.00    -0.277 N 
HETATM    6  H   UNL     1      40.690  -7.854  14.795  1.00  0.00     0.189 HD
HETATM    7  N   UNL     1      39.433  -8.050  13.215  1.00  0.00    -0.168 NA
HETATM    8  C   UNL     1      39.537  -8.829  12.114  1.00  0.00     0.156 A 
HETATM    9  C   UNL     1      42.605  -9.764  13.712  1.00  0.00     0.034 A 
HETATM   10  C   UNL     1      43.202 -10.695  12.854  1.00  0.00     0.032 A 
ENDROOT
BRANCH   1  11
HETATM   11  N   UNL     1      43.296 -12.046  10.879  1.00  0.00    -0.327 N 
HETATM   12  C   UNL     1      44.065 -11.803   9.757  1.00  0.00     0.222 C 
HETATM   13  O   UNL     1      44.245 -10.714   9.221  1.00  0.00    -0.273 OA
HETATM   14  H   UNL     1      43.189 -13.010  11.160  1.00  0.00     0.169 HD
BRANCH  12  15
HETATM   15  C   UNL     1      44.767 -13.041   9.216  1.00  0.00     0.107 C 
BRANCH  15  16
HETATM   16  C   UNL     1      44.942 -13.084   7.698  1.00  0.00     0.036 C 
BRANCH  16  17
HETATM   17  C   UNL     1      44.842 -14.411   6.996  1.00  0.00    -0.025 C 
HETATM   18  C   UNL     1      43.922 -15.370   7.188  1.00  0.00     0.007 C 
BRANCH  18  19
HETATM   19  C   UNL     1      43.920 -16.646   6.458  1.00  0.00    -0.036 A 
HETATM   20  C   UNL     1      42.814 -16.968   5.661  1.00  0.00     0.011 A 
HETATM   21  C   UNL     1      42.784 -18.161   4.935  1.00  0.00     0.001 A 
HETATM   22  C   UNL     1      43.865 -19.039   4.990  1.00  0.00     0.000 A 
HETATM   23  C   UNL     1      44.979 -18.721   5.765  1.00  0.00     0.001 A 
HETATM   24  C   UNL     1      45.008 -17.528   6.492  1.00  0.00     0.011 A 
ENDBRANCH  18  19
ENDBRANCH  16  17
ENDBRANCH  15  16
ENDBRANCH  12  15
ENDBRANCH   1  11
BRANCH   8  25
HETATM   25  C   UNL     1      38.504  -8.805  11.069  1.00  0.00     0.270 C 
HETATM   26  N   UNL     1      37.379  -9.520  11.380  1.00  0.00    -0.365 N 
HETATM   27  H   UNL     1      37.334  -9.986  12.278  1.00  0.00     0.159 HD
HETATM   28  H   UNL     1      36.609  -9.546  10.731  1.00  0.00     0.159 HD
HETATM   29  O   UNL     1      38.598  -8.206  10.003  1.00  0.00    -0.266 OA
ENDBRANCH   8  25
TORSDOF 6
ENDMDL
MODEL 9
REMARK VINA RESULT:      -7.3      3.018      4.303
REMARK  6 active torsions:
REMARK  status: ('A' for Active; 'I' for Inactive)
REMARK    1  A    between atoms: C_4  and  C_5 
REMARK    2  A    between atoms: C_6  and  C_7 
REMARK    3  A    between atoms: C_7  and  C_8 
REMARK    4  A    between atoms: C_8  and  C_9 
REMARK       I    between atoms: C_9  and  N_10 
REMARK    5  A    between atoms: N_10  and  C_11 
REMARK    6  A    between atoms: C_18  and  C_19 
REMARK       I    between atoms: C_19  and  N_20 
ROOT
HETATM    1  C   UNL     1      41.721 -14.790   1.638  1.00  0.00     0.035 A 
HETATM    2  C   UNL     1      41.780 -13.706   0.750  1.00  0.00     0.046 A 
HETATM    3  C   UNL     1      41.622 -13.931  -0.636  1.00  0.00     0.030 A 
HETATM    4  C   UNL     1      41.427 -15.230  -1.086  1.00  0.00     0.063 A 
HETATM    5  N   UNL     1      41.322 -15.132  -2.446  1.00  0.00    -0.277 N 
HETATM    6  H   UNL     1      41.180 -15.887  -3.106  1.00  0.00     0.189 HD
HETATM    7  N   UNL     1      41.413 -13.880  -2.922  1.00  0.00    -0.168 NA
HETATM    8  C   UNL     1      41.596 -13.124  -1.814  1.00  0.00     0.156 A 
HETATM    9  C   UNL     1      41.364 -16.332  -0.233  1.00  0.00     0.034 A 
HETATM   10  C   UNL     1      41.507 -16.082   1.137  1.00  0.00     0.032 A 
ENDROOT
BRANCH   1  11
HETATM   11  N   UNL     1      41.844 -14.668   3.040  1.00  0.00    -0.327 N 
HETATM   12  C   UNL     1      42.923 -14.177   3.751  1.00  0.00     0.222 C 
HETATM   13  O   UNL     1      43.987 -13.787   3.280  1.00  0.00    -0.273 OA
HETATM   14  H   UNL     1      41.063 -15.016   3.577  1.00  0.00     0.169 HD
BRANCH  12  15
HETATM   15  C   UNL     1      42.681 -14.095   5.251  1.00  0.00     0.107 C 
BRANCH  15  16
HETATM   16  C   UNL     1      42.816 -15.415   6.011  1.00  0.00     0.036 C 
BRANCH  16  17
HETATM   17  C   UNL     1      43.383 -16.609   5.290  1.00  0.00    -0.025 C 
HETATM   18  C   UNL     1      42.717 -17.687   4.846  1.00  0.00     0.007 C 
BRANCH  18  19
HETATM   19  C   UNL     1      43.368 -18.815   4.164  1.00  0.00    -0.036 A 
HETATM   20  C   UNL     1      43.084 -19.042   2.811  1.00  0.00     0.011 A 
HETATM   21  C   UNL     1      43.700 -20.089   2.121  1.00  0.00     0.001 A 
HETATM   22  C   UNL     1      44.615 -20.912   2.775  1.00  0.00     0.000 A 
HETATM   23  C   UNL     1      44.919 -20.685   4.116  1.00  0.00     0.001 A 
HETATM   24  C   UNL     1      44.302 -19.638   4.805  1.00  0.00     0.011 A 
ENDBRANCH  18  19
ENDBRANCH  16  17
ENDBRANCH  15  16
ENDBRANCH  12  15
ENDBRANCH   1  11
BRANCH   8  25
HETATM   25  C   UNL     1      41.728 -11.664  -1.906  1.00  0.00     0.270 C 
HETATM   26  N   UNL     1      40.689 -10.973  -1.344  1.00  0.00    -0.365 N 
HETATM   27  H   UNL     1      39.938 -11.497  -0.910  1.00  0.00     0.159 HD
HETATM   28  H   UNL     1      40.701  -9.966  -1.344  1.00  0.00     0.159 HD
HETATM   29  O   UNL     1      42.671 -11.077  -2.425  1.00  0.00    -0.266 OA
ENDBRANCH   8  25
TORSDOF 6
ENDMDL
MODEL 10
REMARK VINA RESULT:      -7.1      3.401      7.692
REMARK  6 active torsions:
REMARK  status: ('A' for Active; 'I' for Inactive)
REMARK    1  A    between atoms: C_4  and  C_5 
REMARK    2  A    between atoms: C_6  and  C_7 
REMARK    3  A    between atoms: C_7  and  C_8 
REMARK    4  A    between atoms: C_8  and  C_9 
REMARK       I    between atoms: C_9  and  N_10 
REMARK    5  A    between atoms: N_10  and  C_11 
REMARK    6  A    between atoms: C_18  and  C_19 
REMARK       I    between atoms: C_19  and  N_20 
ROOT
HETATM    1  C   UNL     1      42.972 -16.600   2.537  1.00  0.00     0.035 A 
HETATM    2  C   UNL     1      43.400 -17.074   3.785  1.00  0.00     0.046 A 
HETATM    3  C   UNL     1      43.966 -18.365   3.884  1.00  0.00     0.030 A 
HETATM    4  C   UNL     1      44.069 -19.142   2.737  1.00  0.00     0.063 A 
HETATM    5  N   UNL     1      44.633 -20.318   3.143  1.00  0.00    -0.277 N 
HETATM    6  H   UNL     1      44.850 -21.125   2.569  1.00  0.00     0.189 HD
HETATM    7  N   UNL     1      44.925 -20.372   4.452  1.00  0.00    -0.168 NA
HETATM    8  C   UNL     1      44.521 -19.170   4.924  1.00  0.00     0.156 A 
HETATM    9  C   UNL     1      43.652 -18.703   1.479  1.00  0.00     0.034 A 
HETATM   10  C   UNL     1      43.110 -17.414   1.404  1.00  0.00     0.032 A 
ENDROOT
BRANCH   1  11
HETATM   11  N   UNL     1      42.416 -15.318   2.330  1.00  0.00    -0.327 N 
HETATM   12  C   UNL     1      41.279 -14.789   2.912  1.00  0.00     0.222 C 
HETATM   13  O   UNL     1      40.531 -15.363   3.697  1.00  0.00    -0.273 OA
HETATM   14  H   UNL     1      42.890 -14.743   1.648  1.00  0.00     0.169 HD
BRANCH  12  15
HETATM   15  C   UNL     1      41.020 -13.336   2.539  1.00  0.00     0.107 C 
BRANCH  15  16
HETATM   16  C   UNL     1      39.731 -13.082   1.756  1.00  0.00     0.036 C 
BRANCH  16  17
HETATM   17  C   UNL     1      39.469 -13.889   0.513  1.00  0.00    -0.025 C 
HETATM   18  C   UNL     1      39.652 -13.510  -0.762  1.00  0.00     0.007 C 
BRANCH  18  19
HETATM   19  C   UNL     1      39.349 -14.372  -1.914  1.00  0.00    -0.036 A 
HETATM   20  C   UNL     1      38.075 -14.303  -2.493  1.00  0.00     0.011 A 
HETATM   21  C   UNL     1      37.756 -15.089  -3.603  1.00  0.00     0.001 A 
HETATM   22  C   UNL     1      38.711 -15.944  -4.151  1.00  0.00     0.000 A 
HETATM   23  C   UNL     1      39.987 -16.008  -3.594  1.00  0.00     0.001 A 
HETATM   24  C   UNL     1      40.306 -15.222  -2.484  1.00  0.00     0.011 A 
ENDBRANCH  18  19
ENDBRANCH  16  17
ENDBRANCH  15  16
ENDBRANCH  12  15
ENDBRANCH   1  11
BRANCH   8  25
HETATM   25  C   UNL     1      44.685 -18.819   6.342  1.00  0.00     0.270 C 
HETATM   26  N   UNL     1      43.795 -19.439   7.176  1.00  0.00    -0.365 N 
HETATM   27  H   UNL     1      43.121 -20.080   6.776  1.00  0.00     0.159 HD
HETATM   28  H   UNL     1      43.842 -19.273   8.169  1.00  0.00     0.159 HD
HETATM   29  O   UNL     1      45.534 -18.051   6.780  1.00  0.00    -0.266 OA
ENDBRANCH   8  25
TORSDOF 6
ENDMDL
