MODEL 1
REMARK VINA RESULT:      -8.0      0.000      0.000
REMARK  5 active torsions:
REMARK  status: ('A' for Active; 'I' for Inactive)
REMARK    1  A    between atoms: C_8  and  N_9 
REMARK       I    between atoms: N_9  and  C_10 
REMARK    2  A    between atoms: C_10  and  C_11 
REMARK    3  A    between atoms: C_11  and  N_12 
REMARK    4  A    between atoms: N_12  and  C_13 
REMARK    5  A    between atoms: C_13  and  C_14 
ROOT
HETATM    1  C   UNL     1      41.487 -16.899   1.539  1.00  0.00     0.372 C 
ENDROOT
BRANCH   1   2
HETATM    2  C   UNL     1      40.580 -15.982   2.371  1.00  0.00     0.250 C 
HETATM    3  N   UNL     1      41.173 -15.554   3.538  1.00  0.00    -0.322 N 
HETATM    4  H   UNL     1      42.137 -15.846   3.663  1.00  0.00     0.169 HD
HETATM    5  O   UNL     1      39.479 -15.655   1.942  1.00  0.00    -0.271 OA
BRANCH   3   6
HETATM    6  C   UNL     1      40.614 -14.749   4.515  1.00  0.00     0.085 A 
HETATM    7  C   UNL     1      40.438 -15.190   5.813  1.00  0.00     0.052 A 
HETATM    8  C   UNL     1      40.760 -16.467   6.493  1.00  0.00     0.072 C 
HETATM    9  N   UNL     1      39.869 -14.149   6.489  1.00  0.00    -0.280 N 
HETATM   10  H   UNL     1      39.603 -14.105   7.467  1.00  0.00     0.189 HD
HETATM   11  N   UNL     1      39.647 -13.071   5.734  1.00  0.00    -0.177 NA
HETATM   12  C   UNL     1      40.091 -13.420   4.517  1.00  0.00     0.079 A 
HETATM   13  C   UNL     1      39.937 -12.440   3.412  1.00  0.00     0.075 C 
ENDBRANCH   3   6
ENDBRANCH   1   2
BRANCH   1  14
HETATM   14  N   UNL     1      41.891 -18.101   2.303  1.00  0.00     0.100 N 
HETATM   15  H   UNL     1      41.599 -18.927   1.770  1.00  0.00     0.317 HD
BRANCH  14  16
HETATM   16  C   UNL     1      43.353 -18.178   2.474  1.00  0.00     0.251 C 
HETATM   17  C   UNL     1      44.162 -17.511   1.350  1.00  0.00     0.048 C 
BRANCH  16  18
HETATM   18  C   UNL     1      43.824 -19.620   2.669  1.00  0.00    -0.002 A 
HETATM   19  C   UNL     1      44.322 -20.150   3.882  1.00  0.00     0.064 A 
HETATM   20 CL   UNL     1      44.508 -19.139   5.285  1.00  0.00    -0.082 Cl
HETATM   21  C   UNL     1      44.667 -21.513   3.963  1.00  0.00     0.056 A 
HETATM   22 CL   UNL     1      45.281 -22.236   5.414  1.00  0.00    -0.083 Cl
HETATM   23  C   UNL     1      44.514 -22.352   2.857  1.00  0.00     0.026 A 
HETATM   24  C   UNL     1      44.026 -21.843   1.661  1.00  0.00     0.002 A 
HETATM   25  C   UNL     1      43.685 -20.494   1.568  1.00  0.00     0.011 A 
ENDBRANCH  16  18
ENDBRANCH  14  16
ENDBRANCH   1  14
TORSDOF 5
ENDMDL
MODEL 2
REMARK VINA RESULT:      -7.9      1.965      2.150
REMARK  5 active torsions:
REMARK  status: ('A' for Active; 'I' for Inactive)
REMARK    1  A    between atoms: C_8  and  N_9 
REMARK       I    between atoms: N_9  and  C_10 
REMARK    2  A    between atoms: C_10  and  C_11 
REMARK    3  A    between atoms: C_11  and  N_12 
REMARK    4  A    between atoms: N_12  and  C_13 
REMARK    5  A    between atoms: C_13  and  C_14 
ROOT
HETATM    1  C   UNL     1      41.852 -18.058   4.641  1.00  0.00     0.372 C 
ENDROOT
BRANCH   1   2
HETATM    2  C   UNL     1      41.479 -16.792   5.423  1.00  0.00     0.250 C 
HETATM    3  N   UNL     1      42.230 -15.695   5.063  1.00  0.00    -0.322 N 
HETATM    4  H   UNL     1      42.878 -15.851   4.297  1.00  0.00     0.169 HD
HETATM    5  O   UNL     1      40.550 -16.817   6.223  1.00  0.00    -0.271 OA
BRANCH   3   6
HETATM    6  C   UNL     1      42.162 -14.421   5.597  1.00  0.00     0.085 A 
HETATM    7  C   UNL     1      43.199 -13.882   6.335  1.00  0.00     0.052 A 
HETATM    8  C   UNL     1      44.533 -14.398   6.722  1.00  0.00     0.072 C 
HETATM    9  N   UNL     1      42.789 -12.630   6.697  1.00  0.00    -0.280 N 
HETATM   10  H   UNL     1      43.293 -11.937   7.240  1.00  0.00     0.189 HD
HETATM   11  N   UNL     1      41.566 -12.315   6.267  1.00  0.00    -0.177 NA
HETATM   12  C   UNL     1      41.160 -13.403   5.595  1.00  0.00     0.079 A 
HETATM   13  C   UNL     1      39.789 -13.398   5.024  1.00  0.00     0.075 C 
ENDBRANCH   3   6
ENDBRANCH   1   2
BRANCH   1  14
HETATM   14  N   UNL     1      42.194 -17.747   3.234  1.00  0.00     0.100 N 
HETATM   15  H   UNL     1      42.017 -16.750   3.079  1.00  0.00     0.317 HD
BRANCH  14  16
HETATM   16  C   UNL     1      43.618 -17.995   2.946  1.00  0.00     0.251 C 
HETATM   17  C   UNL     1      44.124 -17.357   1.643  1.00  0.00     0.048 C 
BRANCH  16  18
HETATM   18  C   UNL     1      43.945 -19.489   2.956  1.00  0.00    -0.002 A 
HETATM   19  C   UNL     1      44.534 -20.180   4.040  1.00  0.00     0.064 A 
HETATM   20 CL   UNL     1      45.010 -19.332   5.482  1.00  0.00    -0.082 Cl
HETATM   21  C   UNL     1      44.731 -21.572   3.962  1.00  0.00     0.056 A 
HETATM   22 CL   UNL     1      45.442 -22.489   5.249  1.00  0.00    -0.083 Cl
HETATM   23  C   UNL     1      44.344 -22.281   2.822  1.00  0.00     0.026 A 
HETATM   24  C   UNL     1      43.766 -21.614   1.751  1.00  0.00     0.002 A 
HETATM   25  C   UNL     1      43.569 -20.235   1.816  1.00  0.00     0.011 A 
ENDBRANCH  16  18
ENDBRANCH  14  16
ENDBRANCH   1  14
TORSDOF 5
ENDMDL
MODEL 3
REMARK VINA RESULT:      -7.8      2.748      3.659
REMARK  5 active torsions:
REMARK  status: ('A' for Active; 'I' for Inactive)
REMARK    1  A    between atoms: C_8  and  N_9 
REMARK       I    between atoms: N_9  and  C_10 
REMARK    2  A    between atoms: C_10  and  C_11 
REMARK    3  A    between atoms: C_11  and  N_12 
REMARK    4  A    between atoms: N_12  and  C_13 
REMARK    5  A    between atoms: C_13  and  C_14 
ROOT
HETATM    1  C   UNL     1      41.519 -17.418   1.415  1.00  0.00     0.372 C 
ENDROOT
BRANCH   1   2
HETATM    2  C   UNL     1      40.828 -16.048   1.438  1.00  0.00     0.250 C 
HETATM    3  N   UNL     1      40.557 -15.559   0.179  1.00  0.00    -0.322 N 
HETATM    4  H   UNL     1      40.790 -16.187  -0.584  1.00  0.00     0.169 HD
HETATM    5  O   UNL     1      40.521 -15.534   2.508  1.00  0.00    -0.271 OA
BRANCH   3   6
HETATM    6  C   UNL     1      39.974 -14.346  -0.142  1.00  0.00     0.085 A 
HETATM    7  C   UNL     1      40.653 -13.374  -0.850  1.00  0.00     0.052 A 
HETATM    8  C   UNL     1      42.014 -13.321  -1.433  1.00  0.00     0.072 C 
HETATM    9  N   UNL     1      39.783 -12.329  -0.981  1.00  0.00    -0.280 N 
HETATM   10  H   UNL     1      39.933 -11.443  -1.450  1.00  0.00     0.189 HD
HETATM   11  N   UNL     1      38.598 -12.537  -0.403  1.00  0.00    -0.177 NA
HETATM   12  C   UNL     1      38.696 -13.767   0.123  1.00  0.00     0.079 A 
HETATM   13  C   UNL     1      37.540 -14.287   0.897  1.00  0.00     0.075 C 
ENDBRANCH   3   6
ENDBRANCH   1   2
BRANCH   1  14
HETATM   14  N   UNL     1      42.105 -17.753   2.732  1.00  0.00     0.100 N 
HETATM   15  H   UNL     1      41.675 -18.625   3.057  1.00  0.00     0.317 HD
BRANCH  14  16
HETATM   16  C   UNL     1      43.559 -17.981   2.646  1.00  0.00     0.251 C 
HETATM   17  C   UNL     1      44.222 -17.398   1.388  1.00  0.00     0.048 C 
BRANCH  16  18
HETATM   18  C   UNL     1      43.907 -19.464   2.779  1.00  0.00    -0.002 A 
HETATM   19  C   UNL     1      44.443 -20.067   3.941  1.00  0.00     0.064 A 
HETATM   20 CL   UNL     1      44.823 -19.112   5.344  1.00  0.00    -0.082 Cl
HETATM   21  C   UNL     1      44.665 -21.457   3.972  1.00  0.00     0.056 A 
HETATM   22 CL   UNL     1      45.315 -22.269   5.358  1.00  0.00    -0.083 Cl
HETATM   23  C   UNL     1      44.355 -22.251   2.865  1.00  0.00     0.026 A 
HETATM   24  C   UNL     1      43.828 -21.670   1.719  1.00  0.00     0.002 A 
HETATM   25  C   UNL     1      43.608 -20.294   1.676  1.00  0.00     0.011 A 
ENDBRANCH  16  18
ENDBRANCH  14  16
ENDBRANCH   1  14
TORSDOF 5
ENDMDL
MODEL 4
REMARK VINA RESULT:      -7.7      2.760      3.557
REMARK  5 active torsions:
REMARK  status: ('A' for Active; 'I' for Inactive)
REMARK    1  A    between atoms: C_8  and  N_9 
REMARK       I    between atoms: N_9  and  C_10 
REMARK    2  A    between atoms: C_10  and  C_11 
REMARK    3  A    between atoms: C_11  and  N_12 
REMARK    4  A    between atoms: N_12  and  C_13 
REMARK    5  A    between atoms: C_13  and  C_14 
ROOT
HETATM    1  C   UNL     1      41.525 -17.395   1.520  1.00  0.00     0.372 C 
ENDROOT
BRANCH   1   2
HETATM    2  C   UNL     1      41.181 -15.902   1.432  1.00  0.00     0.250 C 
HETATM    3  N   UNL     1      40.569 -15.559   0.247  1.00  0.00    -0.322 N 
HETATM    4  H   UNL     1      40.374 -16.335  -0.377  1.00  0.00     0.169 HD
HETATM    5  O   UNL     1      41.399 -15.166   2.389  1.00  0.00    -0.271 OA
BRANCH   3   6
HETATM    6  C   UNL     1      40.164 -14.297  -0.152  1.00  0.00     0.085 A 
HETATM    7  C   UNL     1      38.924 -13.789   0.182  1.00  0.00     0.052 A 
HETATM    8  C   UNL     1      37.796 -14.330   0.976  1.00  0.00     0.072 C 
HETATM    9  N   UNL     1      38.868 -12.542  -0.372  1.00  0.00    -0.280 N 
HETATM   10  H   UNL     1      38.111 -11.868  -0.328  1.00  0.00     0.189 HD
HETATM   11  N   UNL     1      39.966 -12.202  -1.051  1.00  0.00    -0.177 NA
HETATM   12  C   UNL     1      40.772 -13.269  -0.935  1.00  0.00     0.079 A 
HETATM   13  C   UNL     1      42.080 -13.234  -1.638  1.00  0.00     0.075 C 
ENDBRANCH   3   6
ENDBRANCH   1   2
BRANCH   1  14
HETATM   14  N   UNL     1      42.161 -17.731   2.813  1.00  0.00     0.100 N 
HETATM   15  H   UNL     1      41.731 -18.594   3.162  1.00  0.00     0.317 HD
BRANCH  14  16
HETATM   16  C   UNL     1      43.606 -17.982   2.669  1.00  0.00     0.251 C 
HETATM   17  C   UNL     1      44.225 -17.416   1.381  1.00  0.00     0.048 C 
BRANCH  16  18
HETATM   18  C   UNL     1      43.936 -19.470   2.795  1.00  0.00    -0.002 A 
HETATM   19  C   UNL     1      44.473 -20.083   3.951  1.00  0.00     0.064 A 
HETATM   20 CL   UNL     1      44.876 -19.138   5.354  1.00  0.00    -0.082 Cl
HETATM   21  C   UNL     1      44.677 -21.476   3.976  1.00  0.00     0.056 A 
HETATM   22 CL   UNL     1      45.327 -22.300   5.355  1.00  0.00    -0.083 Cl
HETATM   23  C   UNL     1      44.349 -22.263   2.869  1.00  0.00     0.026 A 
HETATM   24  C   UNL     1      43.822 -21.672   1.729  1.00  0.00     0.002 A 
HETATM   25  C   UNL     1      43.619 -20.293   1.691  1.00  0.00     0.011 A 
ENDBRANCH  16  18
ENDBRANCH  14  16
ENDBRANCH   1  14
TORSDOF 5
ENDMDL
MODEL 5
REMARK VINA RESULT:      -7.5      1.731      2.278
REMARK  5 active torsions:
REMARK  status: ('A' for Active; 'I' for Inactive)
REMARK    1  A    between atoms: C_8  and  N_9 
REMARK       I    between atoms: N_9  and  C_10 
REMARK    2  A    between atoms: C_10  and  C_11 
REMARK    3  A    between atoms: C_11  and  N_12 
REMARK    4  A    between atoms: N_12  and  C_13 
REMARK    5  A    between atoms: C_13  and  C_14 
ROOT
HETATM    1  C   UNL     1      42.863 -15.802   1.491  1.00  0.00     0.372 C 
ENDROOT
BRANCH   1   2
HETATM    2  C   UNL     1      42.489 -14.826   2.615  1.00  0.00     0.250 C 
HETATM    3  N   UNL     1      41.388 -15.233   3.337  1.00  0.00    -0.322 N 
HETATM    4  H   UNL     1      41.013 -16.138   3.075  1.00  0.00     0.169 HD
HETATM    5  O   UNL     1      43.187 -13.841   2.829  1.00  0.00    -0.271 OA
BRANCH   3   6
HETATM    6  C   UNL     1      40.783 -14.566   4.387  1.00  0.00     0.085 A 
HETATM    7  C   UNL     1      40.671 -15.132   5.643  1.00  0.00     0.052 A 
HETATM    8  C   UNL     1      41.114 -16.429   6.205  1.00  0.00     0.072 C 
HETATM    9  N   UNL     1      40.029 -14.206   6.415  1.00  0.00    -0.280 N 
HETATM   10  H   UNL     1      39.780 -14.270   7.396  1.00  0.00     0.189 HD
HETATM   11  N   UNL     1      39.701 -13.089   5.761  1.00  0.00    -0.177 NA
HETATM   12  C   UNL     1      40.149 -13.292   4.512  1.00  0.00     0.079 A 
HETATM   13  C   UNL     1      39.890 -12.238   3.499  1.00  0.00     0.075 C 
ENDBRANCH   3   6
ENDBRANCH   1   2
BRANCH   1  14
HETATM   14  N   UNL     1      43.981 -16.686   1.888  1.00  0.00     0.100 N 
HETATM   15  H   UNL     1      44.266 -16.426   2.838  1.00  0.00     0.317 HD
BRANCH  14  16
HETATM   16  C   UNL     1      43.579 -18.103   1.917  1.00  0.00     0.251 C 
HETATM   17  C   UNL     1      42.104 -18.355   1.566  1.00  0.00     0.048 C 
BRANCH  16  18
HETATM   18  C   UNL     1      43.914 -18.759   3.258  1.00  0.00    -0.002 A 
HETATM   19  C   UNL     1      44.269 -20.117   3.427  1.00  0.00     0.064 A 
HETATM   20 CL   UNL     1      44.286 -21.207   2.072  1.00  0.00    -0.082 Cl
HETATM   21  C   UNL     1      44.621 -20.598   4.703  1.00  0.00     0.056 A 
HETATM   22 CL   UNL     1      45.069 -22.247   4.989  1.00  0.00    -0.083 Cl
HETATM   23  C   UNL     1      44.630 -19.742   5.807  1.00  0.00     0.026 A 
HETATM   24  C   UNL     1      44.284 -18.405   5.653  1.00  0.00     0.002 A 
HETATM   25  C   UNL     1      43.930 -17.920   4.395  1.00  0.00     0.011 A 
ENDBRANCH  16  18
ENDBRANCH  14  16
ENDBRANCH   1  14
TORSDOF 5
ENDMDL
MODEL 6
REMARK VINA RESULT:      -7.5      2.587      3.620
REMARK  5 active torsions:
REMARK  status: ('A' for Active; 'I' for Inactive)
REMARK    1  A    between atoms: C_8  and  N_9 
REMARK       I    between atoms: N_9  and  C_10 
REMARK    2  A    between atoms: C_10  and  C_11 
REMARK    3  A    between atoms: C_11  and  N_12 
REMARK    4  A    between atoms: N_12  and  C_13 
REMARK    5  A    between atoms: C_13  and  C_14 
ROOT
HETATM    1  C   UNL     1      42.803 -16.668   7.159  1.00  0.00     0.372 C 
ENDROOT
BRANCH   1   2
HETATM    2  C   UNL     1      42.078 -15.689   6.225  1.00  0.00     0.250 C 
HETATM    3  N   UNL     1      42.738 -14.488   6.086  1.00  0.00    -0.322 N 
HETATM    4  H   UNL     1      43.632 -14.432   6.563  1.00  0.00     0.169 HD
HETATM    5  O   UNL     1      41.056 -16.039   5.645  1.00  0.00    -0.271 OA
BRANCH   3   6
HETATM    6  C   UNL     1      42.334 -13.391   5.345  1.00  0.00     0.085 A 
HETATM    7  C   UNL     1      42.630 -13.270   4.001  1.00  0.00     0.052 A 
HETATM    8  C   UNL     1      43.346 -14.147   3.045  1.00  0.00     0.072 C 
HETATM    9  N   UNL     1      42.085 -12.082   3.603  1.00  0.00    -0.280 N 
HETATM   10  H   UNL     1      42.096 -11.665   2.679  1.00  0.00     0.189 HD
HETATM   11  N   UNL     1      41.471 -11.415   4.582  1.00  0.00    -0.177 NA
HETATM   12  C   UNL     1      41.618 -12.198   5.662  1.00  0.00     0.079 A 
HETATM   13  C   UNL     1      41.082 -11.706   6.957  1.00  0.00     0.075 C 
ENDBRANCH   3   6
ENDBRANCH   1   2
BRANCH   1  14
HETATM   14  N   UNL     1      42.716 -18.059   6.661  1.00  0.00     0.100 N 
HETATM   15  H   UNL     1      42.103 -18.063   5.840  1.00  0.00     0.317 HD
BRANCH  14  16
HETATM   16  C   UNL     1      44.030 -18.575   6.237  1.00  0.00     0.251 C 
HETATM   17  C   UNL     1      45.216 -17.663   6.589  1.00  0.00     0.048 C 
BRANCH  16  18
HETATM   18  C   UNL     1      44.052 -18.905   4.744  1.00  0.00    -0.002 A 
HETATM   19  C   UNL     1      44.326 -20.182   4.202  1.00  0.00     0.064 A 
HETATM   20 CL   UNL     1      44.742 -21.516   5.237  1.00  0.00    -0.082 Cl
HETATM   21  C   UNL     1      44.255 -20.385   2.811  1.00  0.00     0.056 A 
HETATM   22 CL   UNL     1      44.574 -21.920   2.073  1.00  0.00    -0.083 Cl
HETATM   23  C   UNL     1      43.909 -19.336   1.956  1.00  0.00     0.026 A 
HETATM   24  C   UNL     1      43.637 -18.077   2.476  1.00  0.00     0.002 A 
HETATM   25  C   UNL     1      43.708 -17.864   3.852  1.00  0.00     0.011 A 
ENDBRANCH  16  18
ENDBRANCH  14  16
ENDBRANCH   1  14
TORSDOF 5
ENDMDL
MODEL 7
REMARK VINA RESULT:      -7.5      1.602      1.997
REMARK  5 active torsions:
REMARK  status: ('A' for Active; 'I' for Inactive)
REMARK    1  A    between atoms: C_8  and  N_9 
REMARK       I    between atoms: N_9  and  C_10 
REMARK    2  A    between atoms: C_10  and  C_11 
REMARK    3  A    between atoms: C_11  and  N_12 
REMARK    4  A    between atoms: N_12  and  C_13 
REMARK    5  A    between atoms: C_13  and  C_14 
ROOT
HETATM    1  C   UNL     1      41.540 -17.499   1.368  1.00  0.00     0.372 C 
ENDROOT
BRANCH   1   2
HETATM    2  C   UNL     1      41.081 -16.042   1.226  1.00  0.00     0.250 C 
HETATM    3  N   UNL     1      40.309 -15.615   2.284  1.00  0.00    -0.322 N 
HETATM    4  H   UNL     1      40.198 -16.289   3.035  1.00  0.00     0.169 HD
HETATM    5  O   UNL     1      41.459 -15.370   0.273  1.00  0.00    -0.271 OA
BRANCH   3   6
HETATM    6  C   UNL     1      39.718 -14.374   2.443  1.00  0.00     0.085 A 
HETATM    7  C   UNL     1      40.005 -13.561   3.523  1.00  0.00     0.052 A 
HETATM    8  C   UNL     1      40.918 -13.712   4.681  1.00  0.00     0.072 C 
HETATM    9  N   UNL     1      39.252 -12.434   3.355  1.00  0.00    -0.280 N 
HETATM   10  H   UNL     1      39.208 -11.614   3.949  1.00  0.00     0.189 HD
HETATM   11  N   UNL     1      38.487 -12.453   2.261  1.00  0.00    -0.177 NA
HETATM   12  C   UNL     1      38.753 -13.638   1.690  1.00  0.00     0.079 A 
HETATM   13  C   UNL     1      38.009 -13.999   0.456  1.00  0.00     0.075 C 
ENDBRANCH   3   6
ENDBRANCH   1   2
BRANCH   1  14
HETATM   14  N   UNL     1      42.117 -17.759   2.706  1.00  0.00     0.100 N 
HETATM   15  H   UNL     1      41.688 -18.614   3.074  1.00  0.00     0.317 HD
BRANCH  14  16
HETATM   16  C   UNL     1      43.573 -17.984   2.644  1.00  0.00     0.251 C 
HETATM   17  C   UNL     1      44.254 -17.402   1.395  1.00  0.00     0.048 C 
BRANCH  16  18
HETATM   18  C   UNL     1      43.922 -19.466   2.785  1.00  0.00    -0.002 A 
HETATM   19  C   UNL     1      44.435 -20.066   3.958  1.00  0.00     0.064 A 
HETATM   20 CL   UNL     1      44.784 -19.110   5.368  1.00  0.00    -0.082 Cl
HETATM   21  C   UNL     1      44.660 -21.456   3.994  1.00  0.00     0.056 A 
HETATM   22 CL   UNL     1      45.284 -22.265   5.394  1.00  0.00    -0.083 Cl
HETATM   23  C   UNL     1      44.375 -22.252   2.882  1.00  0.00     0.026 A 
HETATM   24  C   UNL     1      43.871 -21.673   1.725  1.00  0.00     0.002 A 
HETATM   25  C   UNL     1      43.648 -20.297   1.676  1.00  0.00     0.011 A 
ENDBRANCH  16  18
ENDBRANCH  14  16
ENDBRANCH   1  14
TORSDOF 5
ENDMDL
MODEL 8
REMARK VINA RESULT:      -7.5      2.165      4.038
REMARK  5 active torsions:
REMARK  status: ('A' for Active; 'I' for Inactive)
REMARK    1  A    between atoms: C_8  and  N_9 
REMARK       I    between atoms: N_9  and  C_10 
REMARK    2  A    between atoms: C_10  and  C_11 
REMARK    3  A    between atoms: C_11  and  N_12 
REMARK    4  A    between atoms: N_12  and  C_13 
REMARK    5  A    between atoms: C_13  and  C_14 
ROOT
HETATM    1  C   UNL     1      41.706 -15.823   5.597  1.00  0.00     0.372 C 
ENDROOT
BRANCH   1   2
HETATM    2  C   UNL     1      41.777 -15.298   4.157  1.00  0.00     0.250 C 
HETATM    3  N   UNL     1      41.167 -16.133   3.248  1.00  0.00    -0.322 N 
HETATM    4  H   UNL     1      40.704 -16.942   3.651  1.00  0.00     0.169 HD
HETATM    5  O   UNL     1      42.283 -14.205   3.928  1.00  0.00    -0.271 OA
BRANCH   3   6
HETATM    6  C   UNL     1      41.085 -15.964   1.877  1.00  0.00     0.085 A 
HETATM    7  C   UNL     1      40.039 -15.279   1.287  1.00  0.00     0.052 A 
HETATM    8  C   UNL     1      38.852 -14.586   1.840  1.00  0.00     0.072 C 
HETATM    9  N   UNL     1      40.282 -15.310  -0.056  1.00  0.00    -0.280 N 
HETATM   10  H   UNL     1      39.731 -14.902  -0.804  1.00  0.00     0.189 HD
HETATM   11  N   UNL     1      41.394 -15.970  -0.390  1.00  0.00    -0.177 NA
HETATM   12  C   UNL     1      41.898 -16.385   0.782  1.00  0.00     0.079 A 
HETATM   13  C   UNL     1      43.131 -17.213   0.755  1.00  0.00     0.075 C 
ENDBRANCH   3   6
ENDBRANCH   1   2
BRANCH   1  14
HETATM   14  N   UNL     1      41.655 -17.302   5.634  1.00  0.00     0.100 N 
HETATM   15  H   UNL     1      41.687 -17.643   4.668  1.00  0.00     0.317 HD
BRANCH  14  16
HETATM   16  C   UNL     1      42.811 -17.875   6.346  1.00  0.00     0.251 C 
HETATM   17  C   UNL     1      43.780 -16.834   6.930  1.00  0.00     0.048 C 
BRANCH  16  18
HETATM   18  C   UNL     1      43.578 -18.868   5.472  1.00  0.00    -0.002 A 
HETATM   19  C   UNL     1      44.012 -20.147   5.892  1.00  0.00     0.064 A 
HETATM   20 CL   UNL     1      43.752 -20.682   7.526  1.00  0.00    -0.082 Cl
HETATM   21  C   UNL     1      44.655 -21.005   4.978  1.00  0.00     0.056 A 
HETATM   22 CL   UNL     1      45.212 -22.586   5.416  1.00  0.00    -0.083 Cl
HETATM   23  C   UNL     1      44.863 -20.607   3.656  1.00  0.00     0.026 A 
HETATM   24  C   UNL     1      44.441 -19.353   3.232  1.00  0.00     0.002 A 
HETATM   25  C   UNL     1      43.807 -18.495   4.129  1.00  0.00     0.011 A 
ENDBRANCH  16  18
ENDBRANCH  14  16
ENDBRANCH   1  14
TORSDOF 5
ENDMDL
MODEL 9
REMARK VINA RESULT:      -7.4      3.265      4.489
REMARK  5 active torsions:
REMARK  status: ('A' for Active; 'I' for Inactive)
REMARK    1  A    between atoms: C_8  and  N_9 
REMARK       I    between atoms: N_9  and  C_10 
REMARK    2  A    between atoms: C_10  and  C_11 
REMARK    3  A    between atoms: C_11  and  N_12 
REMARK    4  A    between atoms: N_12  and  C_13 
REMARK    5  A    between atoms: C_13  and  C_14 
ROOT
HETATM    1  C   UNL     1      44.335 -18.362   6.808  1.00  0.00     0.372 C 
ENDROOT
BRANCH   1   2
HETATM    2  C   UNL     1      43.757 -17.001   7.218  1.00  0.00     0.250 C 
HETATM    3  N   UNL     1      43.517 -16.172   6.144  1.00  0.00    -0.322 N 
HETATM    4  H   UNL     1      43.692 -16.586   5.235  1.00  0.00     0.169 HD
HETATM    5  O   UNL     1      43.500 -16.773   8.395  1.00  0.00    -0.271 OA
BRANCH   3   6
HETATM    6  C   UNL     1      43.031 -14.877   6.178  1.00  0.00     0.085 A 
HETATM    7  C   UNL     1      43.785 -13.826   6.665  1.00  0.00     0.052 A 
HETATM    8  C   UNL     1      45.161 -13.743   7.208  1.00  0.00     0.072 C 
HETATM    9  N   UNL     1      43.000 -12.715   6.547  1.00  0.00    -0.280 N 
HETATM   10  H   UNL     1      43.224 -11.758   6.798  1.00  0.00     0.189 HD
HETATM   11  N   UNL     1      41.791 -12.959   6.036  1.00  0.00    -0.177 NA
HETATM   12  C   UNL     1      41.787 -14.281   5.808  1.00  0.00     0.079 A 
HETATM   13  C   UNL     1      40.541 -14.893   5.280  1.00  0.00     0.075 C 
ENDBRANCH   3   6
ENDBRANCH   1   2
BRANCH   1  14
HETATM   14  N   UNL     1      44.840 -18.341   5.417  1.00  0.00     0.100 N 
HETATM   15  H   UNL     1      45.826 -18.622   5.435  1.00  0.00     0.317 HD
BRANCH  14  16
HETATM   16  C   UNL     1      44.122 -19.297   4.556  1.00  0.00     0.251 C 
HETATM   17  C   UNL     1      44.972 -20.483   4.073  1.00  0.00     0.048 C 
BRANCH  16  18
HETATM   18  C   UNL     1      43.471 -18.602   3.360  1.00  0.00    -0.002 A 
HETATM   19  C   UNL     1      42.177 -18.029   3.364  1.00  0.00     0.064 A 
HETATM   20 CL   UNL     1      41.161 -18.137   4.771  1.00  0.00    -0.082 Cl
HETATM   21  C   UNL     1      41.704 -17.356   2.221  1.00  0.00     0.056 A 
HETATM   22 CL   UNL     1      40.134 -16.626   2.150  1.00  0.00    -0.083 Cl
HETATM   23  C   UNL     1      42.504 -17.241   1.082  1.00  0.00     0.026 A 
HETATM   24  C   UNL     1      43.776 -17.799   1.066  1.00  0.00     0.002 A 
HETATM   25  C   UNL     1      44.253 -18.471   2.190  1.00  0.00     0.011 A 
ENDBRANCH  16  18
ENDBRANCH  14  16
ENDBRANCH   1  14
TORSDOF 5
ENDMDL
MODEL 10
REMARK VINA RESULT:      -7.4      2.297      3.367
REMARK  5 active torsions:
REMARK  status: ('A' for Active; 'I' for Inactive)
REMARK    1  A    between atoms: C_8  and  N_9 
REMARK       I    between atoms: N_9  and  C_10 
REMARK    2  A    between atoms: C_10  and  C_11 
REMARK    3  A    between atoms: C_11  and  N_12 
REMARK    4  A    between atoms: N_12  and  C_13 
REMARK    5  A    between atoms: C_13  and  C_14 
ROOT
HETATM    1  C   UNL     1      43.065 -16.512   7.011  1.00  0.00     0.372 C 
ENDROOT
BRANCH   1   2
HETATM    2  C   UNL     1      42.592 -15.313   6.178  1.00  0.00     0.250 C 
HETATM    3  N   UNL     1      41.292 -15.439   5.741  1.00  0.00    -0.322 N 
HETATM    4  H   UNL     1      40.805 -16.265   6.074  1.00  0.00     0.169 HD
HETATM    5  O   UNL     1      43.333 -14.349   6.017  1.00  0.00    -0.271 OA
BRANCH   3   6
HETATM    6  C   UNL     1      40.585 -14.552   4.949  1.00  0.00     0.085 A 
HETATM    7  C   UNL     1      40.298 -14.824   3.625  1.00  0.00     0.052 A 
HETATM    8  C   UNL     1      40.587 -15.986   2.752  1.00  0.00     0.072 C 
HETATM    9  N   UNL     1      39.600 -13.745   3.163  1.00  0.00    -0.280 N 
HETATM   10  H   UNL     1      39.217 -13.595   2.236  1.00  0.00     0.189 HD
HETATM   11  N   UNL     1      39.421 -12.786   4.075  1.00  0.00    -0.177 NA
HETATM   12  C   UNL     1      40.023 -13.259   5.177  1.00  0.00     0.079 A 
HETATM   13  C   UNL     1      40.051 -12.391   6.382  1.00  0.00     0.075 C 
ENDBRANCH   3   6
ENDBRANCH   1   2
BRANCH   1  14
HETATM   14  N   UNL     1      42.717 -17.796   6.361  1.00  0.00     0.100 N 
HETATM   15  H   UNL     1      42.243 -17.584   5.477  1.00  0.00     0.317 HD
BRANCH  14  16
HETATM   16  C   UNL     1      43.914 -18.594   6.042  1.00  0.00     0.251 C 
HETATM   17  C   UNL     1      45.243 -17.946   6.465  1.00  0.00     0.048 C 
BRANCH  16  18
HETATM   18  C   UNL     1      43.966 -18.969   4.561  1.00  0.00    -0.002 A 
HETATM   19  C   UNL     1      44.301 -20.250   4.063  1.00  0.00     0.064 A 
HETATM   20 CL   UNL     1      44.763 -21.531   5.143  1.00  0.00    -0.082 Cl
HETATM   21  C   UNL     1      44.253 -20.499   2.677  1.00  0.00     0.056 A 
HETATM   22 CL   UNL     1      44.645 -22.042   1.992  1.00  0.00    -0.083 Cl
HETATM   23  C   UNL     1      43.870 -19.493   1.787  1.00  0.00     0.026 A 
HETATM   24  C   UNL     1      43.539 -18.232   2.264  1.00  0.00     0.002 A 
HETATM   25  C   UNL     1      43.587 -17.973   3.634  1.00  0.00     0.011 A 
ENDBRANCH  16  18
ENDBRANCH  14  16
ENDBRANCH   1  14
TORSDOF 5
ENDMDL
