MODEL 1
REMARK VINA RESULT:      -8.9      0.000      0.000
REMARK  6 active torsions:
REMARK  status: ('A' for Active; 'I' for Inactive)
REMARK    1  A    between atoms: C_6  and  C_7 
REMARK    2  A    between atoms: C_7  and  N_8 
REMARK    3  A    between atoms: C_12  and  C_13 
REMARK    4  A    between atoms: C_13  and  C_14 
REMARK    5  A    between atoms: N_23  and  C_24 
REMARK    6  A    between atoms: C_24  and  C_25 
ROOT
HETATM    1  C   UNL     1      40.101 -13.216   2.485  1.00  0.00     0.164 C 
HETATM    2  N   UNL     1      41.428 -13.222   1.881  1.00  0.00    -0.319 N 
HETATM    3  C   UNL     1      41.437 -12.729   0.601  1.00  0.00     0.326 C 
HETATM    4  O   UNL     1      42.447 -12.473  -0.027  1.00  0.00    -0.247 OA
HETATM    5  N   UNL     1      40.152 -12.583   0.191  1.00  0.00    -0.265 N 
HETATM    6  C   UNL     1      39.299 -12.819   1.230  1.00  0.00     0.263 C 
HETATM    7  O   UNL     1      38.075 -12.738   1.183  1.00  0.00    -0.270 OA
HETATM    8  H   UNL     1      42.273 -13.156   2.441  1.00  0.00     0.166 HD
ENDROOT
BRANCH   1   9
HETATM    9  C   UNL     1      39.784 -14.653   3.040  1.00  0.00     0.033 C 
HETATM   10  C   UNL     1      40.510 -15.039   4.345  1.00  0.00     0.036 C 
HETATM   11  C   UNL     1      41.940 -15.541   4.174  1.00  0.00     0.235 C 
HETATM   12  N   UNL     1      42.029 -16.615   3.119  1.00  0.00    -0.067 N 
HETATM   13  H   UNL     1      41.581 -17.452   3.509  1.00  0.00     0.280 HD
HETATM   14  C   UNL     1      41.348 -16.287   1.817  1.00  0.00     0.235 C 
HETATM   15  C   UNL     1      39.923 -15.823   2.049  1.00  0.00     0.036 C 
BRANCH  12  16
HETATM   16  C   UNL     1      43.480 -16.994   2.842  1.00  0.00     0.273 C 
BRANCH  16  17
HETATM   17  C   UNL     1      43.781 -18.461   3.013  1.00  0.00    -0.027 A 
HETATM   18  C   UNL     1      44.263 -19.002   4.225  1.00  0.00    -0.054 A 
HETATM   19  C   UNL     1      44.544 -20.378   4.298  1.00  0.00     0.014 A 
HETATM   20  C   UNL     1      44.528 -18.158   5.444  1.00  0.00     0.049 C 
HETATM   21  C   UNL     1      44.362 -21.219   3.195  1.00  0.00    -0.061 A 
HETATM   22  C   UNL     1      44.688 -22.682   3.279  1.00  0.00     0.048 C 
HETATM   23  C   UNL     1      43.878 -20.679   2.003  1.00  0.00     0.007 A 
HETATM   24  C   UNL     1      43.590 -19.317   1.912  1.00  0.00     0.010 A 
ENDBRANCH  16  17
ENDBRANCH  12  16
ENDBRANCH   1   9
BRANCH   1  25
HETATM   25  C   UNL     1      40.085 -12.155   3.585  1.00  0.00     0.072 A 
HETATM   26  N   UNL     1      41.310 -11.666   3.929  1.00  0.00    -0.262 NA
HETATM   27  C   UNL     1      41.371 -10.713   4.887  1.00  0.00     0.117 A 
HETATM   28  C   UNL     1      40.262 -10.223   5.549  1.00  0.00     0.019 A 
HETATM   29  C   UNL     1      39.019 -10.735   5.208  1.00  0.00     0.003 A 
HETATM   30  C   UNL     1      38.923 -11.710   4.216  1.00  0.00     0.030 A 
ENDBRANCH   1  25
BRANCH   5  31
HETATM   31  C   UNL     1      39.741 -12.234  -1.158  1.00  0.00     0.168 C 
BRANCH  31  32
HETATM   32  C   UNL     1      39.685 -13.439  -2.115  1.00  0.00     0.140 C 
HETATM   33  O   UNL     1      40.036 -14.669  -1.434  1.00  0.00    -0.384 OA
HETATM   34  C   UNL     1      40.830 -15.444  -2.348  1.00  0.00     0.168 C 
HETATM   35  C   UNL     1      41.589 -14.436  -3.176  1.00  0.00     0.029 C 
HETATM   36  C   UNL     1      40.575 -13.332  -3.350  1.00  0.00     0.036 C 
ENDBRANCH  31  32
ENDBRANCH   5  31
TORSDOF 6
ENDMDL
MODEL 2
REMARK VINA RESULT:      -8.9      2.277      7.906
REMARK  6 active torsions:
REMARK  status: ('A' for Active; 'I' for Inactive)
REMARK    1  A    between atoms: C_6  and  C_7 
REMARK    2  A    between atoms: C_7  and  N_8 
REMARK    3  A    between atoms: C_12  and  C_13 
REMARK    4  A    between atoms: C_13  and  C_14 
REMARK    5  A    between atoms: N_23  and  C_24 
REMARK    6  A    between atoms: C_24  and  C_25 
ROOT
HETATM    1  C   UNL     1      42.392 -17.010   2.902  1.00  0.00     0.164 C 
HETATM    2  N   UNL     1      43.254 -15.921   2.460  1.00  0.00    -0.319 N 
HETATM    3  C   UNL     1      43.377 -14.923   3.393  1.00  0.00     0.326 C 
HETATM    4  O   UNL     1      44.180 -14.011   3.317  1.00  0.00    -0.247 OA
HETATM    5  N   UNL     1      42.472 -15.145   4.378  1.00  0.00    -0.265 N 
HETATM    6  C   UNL     1      41.865 -16.353   4.193  1.00  0.00     0.263 C 
HETATM    7  O   UNL     1      41.020 -16.851   4.932  1.00  0.00    -0.270 OA
HETATM    8  H   UNL     1      44.006 -16.068   1.793  1.00  0.00     0.166 HD
ENDROOT
BRANCH   1   9
HETATM    9  C   UNL     1      41.297 -17.274   1.804  1.00  0.00     0.033 C 
HETATM   10  C   UNL     1      41.670 -16.842   0.371  1.00  0.00     0.036 C 
HETATM   11  C   UNL     1      41.465 -15.363   0.062  1.00  0.00     0.235 C 
HETATM   12  N   UNL     1      40.092 -14.894   0.472  1.00  0.00    -0.067 N 
HETATM   13  H   UNL     1      39.425 -15.317  -0.184  1.00  0.00     0.280 HD
HETATM   14  C   UNL     1      39.679 -15.277   1.868  1.00  0.00     0.235 C 
HETATM   15  C   UNL     1      39.877 -16.761   2.106  1.00  0.00     0.036 C 
BRANCH  12  16
HETATM   16  C   UNL     1      39.955 -13.383   0.308  1.00  0.00     0.273 C 
BRANCH  16  17
HETATM   17  C   UNL     1      40.525 -12.847  -0.980  1.00  0.00    -0.027 A 
HETATM   18  C   UNL     1      39.896 -13.041  -2.229  1.00  0.00    -0.054 A 
HETATM   19  C   UNL     1      40.505 -12.531  -3.390  1.00  0.00     0.014 A 
HETATM   20  C   UNL     1      38.610 -13.810  -2.382  1.00  0.00     0.049 C 
HETATM   21  C   UNL     1      41.721 -11.842  -3.334  1.00  0.00    -0.061 A 
HETATM   22  C   UNL     1      42.372 -11.323  -4.583  1.00  0.00     0.048 C 
HETATM   23  C   UNL     1      42.332 -11.647  -2.096  1.00  0.00     0.007 A 
HETATM   24  C   UNL     1      41.743 -12.143  -0.932  1.00  0.00     0.010 A 
ENDBRANCH  16  17
ENDBRANCH  12  16
ENDBRANCH   1   9
BRANCH   1  25
HETATM   25  C   UNL     1      43.268 -18.238   3.151  1.00  0.00     0.072 A 
HETATM   26  N   UNL     1      43.872 -18.274   4.372  1.00  0.00    -0.262 NA
HETATM   27  C   UNL     1      44.652 -19.339   4.668  1.00  0.00     0.117 A 
HETATM   28  C   UNL     1      44.887 -20.381   3.790  1.00  0.00     0.019 A 
HETATM   29  C   UNL     1      44.284 -20.332   2.542  1.00  0.00     0.003 A 
HETATM   30  C   UNL     1      43.464 -19.252   2.214  1.00  0.00     0.030 A 
ENDBRANCH   1  25
BRANCH   5  31
HETATM   31  C   UNL     1      42.182 -14.229   5.467  1.00  0.00     0.168 C 
BRANCH  31  32
HETATM   32  C   UNL     1      41.099 -13.189   5.125  1.00  0.00     0.140 C 
HETATM   33  O   UNL     1      41.397 -11.902   5.722  1.00  0.00    -0.384 OA
HETATM   34  C   UNL     1      40.152 -11.353   6.183  1.00  0.00     0.168 C 
HETATM   35  C   UNL     1      39.314 -12.540   6.587  1.00  0.00     0.029 C 
HETATM   36  C   UNL     1      39.680 -13.565   5.543  1.00  0.00     0.036 C 
ENDBRANCH  31  32
ENDBRANCH   5  31
TORSDOF 6
ENDMDL
MODEL 3
REMARK VINA RESULT:      -8.7      2.443      7.946
REMARK  6 active torsions:
REMARK  status: ('A' for Active; 'I' for Inactive)
REMARK    1  A    between atoms: C_6  and  C_7 
REMARK    2  A    between atoms: C_7  and  N_8 
REMARK    3  A    between atoms: C_12  and  C_13 
REMARK    4  A    between atoms: C_13  and  C_14 
REMARK    5  A    between atoms: N_23  and  C_24 
REMARK    6  A    between atoms: C_24  and  C_25 
ROOT
HETATM    1  C   UNL     1      42.363 -16.773   3.546  1.00  0.00     0.164 C 
HETATM    2  N   UNL     1      43.107 -15.736   2.841  1.00  0.00    -0.319 N 
HETATM    3  C   UNL     1      43.357 -14.633   3.618  1.00  0.00     0.326 C 
HETATM    4  O   UNL     1      44.109 -13.730   3.302  1.00  0.00    -0.247 OA
HETATM    5  N   UNL     1      42.637 -14.745   4.761  1.00  0.00    -0.265 N 
HETATM    6  C   UNL     1      42.044 -15.972   4.823  1.00  0.00     0.263 C 
HETATM    7  O   UNL     1      41.350 -16.386   5.748  1.00  0.00    -0.270 OA
HETATM    8  H   UNL     1      43.740 -15.955   2.076  1.00  0.00     0.166 HD
ENDROOT
BRANCH   1   9
HETATM    9  C   UNL     1      41.108 -17.175   2.689  1.00  0.00     0.033 C 
HETATM   10  C   UNL     1      41.402 -17.635   1.247  1.00  0.00     0.036 C 
HETATM   11  C   UNL     1      41.599 -16.516   0.230  1.00  0.00     0.235 C 
HETATM   12  N   UNL     1      40.487 -15.500   0.300  1.00  0.00    -0.067 N 
HETATM   13  H   UNL     1      39.648 -15.953  -0.079  1.00  0.00     0.280 HD
HETATM   14  C   UNL     1      40.164 -15.004   1.684  1.00  0.00     0.235 C 
HETATM   15  C   UNL     1      39.950 -16.160   2.641  1.00  0.00     0.036 C 
BRANCH  12  16
HETATM   16  C   UNL     1      40.777 -14.306  -0.603  1.00  0.00     0.273 C 
BRANCH  16  17
HETATM   17  C   UNL     1      39.651 -13.952  -1.541  1.00  0.00    -0.027 A 
HETATM   18  C   UNL     1      39.433 -14.633  -2.759  1.00  0.00    -0.054 A 
HETATM   19  C   UNL     1      38.375 -14.226  -3.592  1.00  0.00     0.014 A 
HETATM   20  C   UNL     1      40.312 -15.762  -3.228  1.00  0.00     0.049 C 
HETATM   21  C   UNL     1      37.542 -13.158  -3.244  1.00  0.00    -0.061 A 
HETATM   22  C   UNL     1      36.431 -12.719  -4.153  1.00  0.00     0.048 C 
HETATM   23  C   UNL     1      37.758 -12.495  -2.036  1.00  0.00     0.007 A 
HETATM   24  C   UNL     1      38.801 -12.886  -1.194  1.00  0.00     0.010 A 
ENDBRANCH  16  17
ENDBRANCH  12  16
ENDBRANCH   1   9
BRANCH   1  25
HETATM   25  C   UNL     1      43.305 -17.955   3.781  1.00  0.00     0.072 A 
HETATM   26  N   UNL     1      43.940 -17.952   4.987  1.00  0.00    -0.262 NA
HETATM   27  C   UNL     1      44.778 -18.976   5.269  1.00  0.00     0.117 A 
HETATM   28  C   UNL     1      45.040 -20.012   4.394  1.00  0.00     0.019 A 
HETATM   29  C   UNL     1      44.405 -20.002   3.161  1.00  0.00     0.003 A 
HETATM   30  C   UNL     1      43.526 -18.966   2.846  1.00  0.00     0.030 A 
ENDBRANCH   1  25
BRANCH   5  31
HETATM   31  C   UNL     1      42.510 -13.710   5.772  1.00  0.00     0.168 C 
BRANCH  31  32
HETATM   32  C   UNL     1      41.477 -12.624   5.413  1.00  0.00     0.140 C 
HETATM   33  O   UNL     1      41.265 -11.712   6.520  1.00  0.00    -0.384 OA
HETATM   34  C   UNL     1      39.860 -11.413   6.556  1.00  0.00     0.168 C 
HETATM   35  C   UNL     1      39.170 -12.661   6.064  1.00  0.00     0.029 C 
HETATM   36  C   UNL     1      40.107 -13.145   4.985  1.00  0.00     0.036 C 
ENDBRANCH  31  32
ENDBRANCH   5  31
TORSDOF 6
ENDMDL
MODEL 4
REMARK VINA RESULT:      -8.5      1.926      2.855
REMARK  6 active torsions:
REMARK  status: ('A' for Active; 'I' for Inactive)
REMARK    1  A    between atoms: C_6  and  C_7 
REMARK    2  A    between atoms: C_7  and  N_8 
REMARK    3  A    between atoms: C_12  and  C_13 
REMARK    4  A    between atoms: C_13  and  C_14 
REMARK    5  A    between atoms: N_23  and  C_24 
REMARK    6  A    between atoms: C_24  and  C_25 
ROOT
HETATM    1  C   UNL     1      41.583 -12.554   4.639  1.00  0.00     0.164 C 
HETATM    2  N   UNL     1      41.801 -11.383   3.798  1.00  0.00    -0.319 N 
HETATM    3  C   UNL     1      40.970 -11.345   2.707  1.00  0.00     0.326 C 
HETATM    4  O   UNL     1      40.850 -10.383   1.972  1.00  0.00    -0.247 OA
HETATM    5  N   UNL     1      40.332 -12.538   2.615  1.00  0.00    -0.265 N 
HETATM    6  C   UNL     1      40.606 -13.301   3.712  1.00  0.00     0.263 C 
HETATM    7  O   UNL     1      40.154 -14.421   3.936  1.00  0.00    -0.270 OA
HETATM    8  H   UNL     1      42.162 -10.511   4.174  1.00  0.00     0.166 HD
ENDROOT
BRANCH   1   9
HETATM    9  C   UNL     1      42.958 -13.281   4.871  1.00  0.00     0.033 C 
HETATM   10  C   UNL     1      43.612 -13.889   3.613  1.00  0.00     0.036 C 
HETATM   11  C   UNL     1      43.084 -15.258   3.198  1.00  0.00     0.235 C 
HETATM   12  N   UNL     1      43.055 -16.218   4.361  1.00  0.00    -0.067 N 
HETATM   13  H   UNL     1      44.032 -16.451   4.577  1.00  0.00     0.280 HD
HETATM   14  C   UNL     1      42.415 -15.682   5.614  1.00  0.00     0.235 C 
HETATM   15  C   UNL     1      43.002 -14.336   5.991  1.00  0.00     0.036 C 
BRANCH  12  16
HETATM   16  C   UNL     1      42.377 -17.528   3.975  1.00  0.00     0.273 C 
BRANCH  16  17
HETATM   17  C   UNL     1      43.207 -18.757   4.240  1.00  0.00    -0.027 A 
HETATM   18  C   UNL     1      43.818 -19.500   3.206  1.00  0.00    -0.054 A 
HETATM   19  C   UNL     1      44.557 -20.652   3.534  1.00  0.00     0.014 A 
HETATM   20  C   UNL     1      43.682 -19.134   1.752  1.00  0.00     0.049 C 
HETATM   21  C   UNL     1      44.694 -21.079   4.859  1.00  0.00    -0.061 A 
HETATM   22  C   UNL     1      45.466 -22.322   5.193  1.00  0.00     0.048 C 
HETATM   23  C   UNL     1      44.095 -20.335   5.875  1.00  0.00     0.007 A 
HETATM   24  C   UNL     1      43.359 -19.188   5.571  1.00  0.00     0.010 A 
ENDBRANCH  16  17
ENDBRANCH  12  16
ENDBRANCH   1   9
BRANCH   1  25
HETATM   25  C   UNL     1      40.950 -12.084   5.949  1.00  0.00     0.072 A 
HETATM   26  N   UNL     1      41.650 -11.121   6.613  1.00  0.00    -0.262 NA
HETATM   27  C   UNL     1      41.141 -10.647   7.773  1.00  0.00     0.117 A 
HETATM   28  C   UNL     1      39.963 -11.102   8.333  1.00  0.00     0.019 A 
HETATM   29  C   UNL     1      39.263 -12.095   7.663  1.00  0.00     0.003 A 
HETATM   30  C   UNL     1      39.756 -12.594   6.458  1.00  0.00     0.030 A 
ENDBRANCH   1  25
BRANCH   5  31
HETATM   31  C   UNL     1      39.486 -12.948   1.508  1.00  0.00     0.168 C 
BRANCH  31  32
HETATM   32  C   UNL     1      40.244 -13.096   0.175  1.00  0.00     0.140 C 
HETATM   33  O   UNL     1      39.368 -13.565  -0.880  1.00  0.00    -0.384 OA
HETATM   34  C   UNL     1      40.123 -14.498  -1.670  1.00  0.00     0.168 C 
HETATM   35  C   UNL     1      41.072 -15.165  -0.706  1.00  0.00     0.029 C 
HETATM   36  C   UNL     1      41.451 -14.030   0.213  1.00  0.00     0.036 C 
ENDBRANCH  31  32
ENDBRANCH   5  31
TORSDOF 6
ENDMDL
MODEL 5
REMARK VINA RESULT:      -8.5      1.621      4.852
REMARK  6 active torsions:
REMARK  status: ('A' for Active; 'I' for Inactive)
REMARK    1  A    between atoms: C_6  and  C_7 
REMARK    2  A    between atoms: C_7  and  N_8 
REMARK    3  A    between atoms: C_12  and  C_13 
REMARK    4  A    between atoms: C_13  and  C_14 
REMARK    5  A    between atoms: N_23  and  C_24 
REMARK    6  A    between atoms: C_24  and  C_25 
ROOT
HETATM    1  C   UNL     1      40.603 -13.928   0.770  1.00  0.00     0.164 C 
HETATM    2  N   UNL     1      39.411 -13.190   1.168  1.00  0.00    -0.319 N 
HETATM    3  C   UNL     1      39.674 -12.198   2.080  1.00  0.00     0.326 C 
HETATM    4  O   UNL     1      38.872 -11.346   2.415  1.00  0.00    -0.247 OA
HETATM    5  N   UNL     1      40.950 -12.345   2.513  1.00  0.00    -0.265 N 
HETATM    6  C   UNL     1      41.583 -13.313   1.788  1.00  0.00     0.263 C 
HETATM    7  O   UNL     1      42.754 -13.657   1.921  1.00  0.00    -0.270 OA
HETATM    8  H   UNL     1      38.608 -13.094   0.553  1.00  0.00     0.166 HD
ENDROOT
BRANCH   1   9
HETATM    9  C   UNL     1      40.339 -15.467   0.958  1.00  0.00     0.033 C 
HETATM   10  C   UNL     1      40.216 -15.950   2.418  1.00  0.00     0.036 C 
HETATM   11  C   UNL     1      41.538 -16.202   3.135  1.00  0.00     0.235 C 
HETATM   12  N   UNL     1      42.462 -17.065   2.312  1.00  0.00    -0.067 N 
HETATM   13  H   UNL     1      42.063 -18.011   2.314  1.00  0.00     0.280 HD
HETATM   14  C   UNL     1      42.629 -16.632   0.881  1.00  0.00     0.235 C 
HETATM   15  C   UNL     1      41.284 -16.427   0.213  1.00  0.00     0.036 C 
BRANCH  12  16
HETATM   16  C   UNL     1      43.836 -17.176   2.965  1.00  0.00     0.273 C 
BRANCH  16  17
HETATM   17  C   UNL     1      44.131 -18.529   3.559  1.00  0.00    -0.027 A 
HETATM   18  C   UNL     1      44.303 -18.730   4.946  1.00  0.00    -0.054 A 
HETATM   19  C   UNL     1      44.602 -20.020   5.421  1.00  0.00     0.014 A 
HETATM   20  C   UNL     1      44.217 -17.608   5.947  1.00  0.00     0.049 C 
HETATM   21  C   UNL     1      44.738 -21.105   4.548  1.00  0.00    -0.061 A 
HETATM   22  C   UNL     1      45.080 -22.472   5.065  1.00  0.00     0.048 C 
HETATM   23  C   UNL     1      44.559 -20.901   3.180  1.00  0.00     0.007 A 
HETATM   24  C   UNL     1      44.259 -19.629   2.690  1.00  0.00     0.010 A 
ENDBRANCH  16  17
ENDBRANCH  12  16
ENDBRANCH   1   9
BRANCH   1  25
HETATM   25  C   UNL     1      40.920 -13.569  -0.682  1.00  0.00     0.072 A 
HETATM   26  N   UNL     1      39.911 -13.810  -1.566  1.00  0.00    -0.262 NA
HETATM   27  C   UNL     1      40.116 -13.503  -2.868  1.00  0.00     0.117 A 
HETATM   28  C   UNL     1      41.300 -12.979  -3.352  1.00  0.00     0.019 A 
HETATM   29  C   UNL     1      42.330 -12.752  -2.451  1.00  0.00     0.003 A 
HETATM   30  C   UNL     1      42.144 -13.047  -1.101  1.00  0.00     0.030 A 
ENDBRANCH   1  25
BRANCH   5  31
HETATM   31  C   UNL     1      41.557 -11.588   3.594  1.00  0.00     0.168 C 
BRANCH  31  32
HETATM   32  C   UNL     1      41.259 -12.165   4.991  1.00  0.00     0.140 C 
HETATM   33  O   UNL     1      41.041 -13.597   4.935  1.00  0.00    -0.384 OA
HETATM   34  C   UNL     1      39.969 -13.896   5.845  1.00  0.00     0.168 C 
HETATM   35  C   UNL     1      39.070 -12.684   5.820  1.00  0.00     0.029 C 
HETATM   36  C   UNL     1      40.059 -11.550   5.707  1.00  0.00     0.036 C 
ENDBRANCH  31  32
ENDBRANCH   5  31
TORSDOF 6
ENDMDL
MODEL 6
REMARK VINA RESULT:      -8.2      2.723      6.864
REMARK  6 active torsions:
REMARK  status: ('A' for Active; 'I' for Inactive)
REMARK    1  A    between atoms: C_6  and  C_7 
REMARK    2  A    between atoms: C_7  and  N_8 
REMARK    3  A    between atoms: C_12  and  C_13 
REMARK    4  A    between atoms: C_13  and  C_14 
REMARK    5  A    between atoms: N_23  and  C_24 
REMARK    6  A    between atoms: C_24  and  C_25 
ROOT
HETATM    1  C   UNL     1      40.456 -14.087   4.818  1.00  0.00     0.164 C 
HETATM    2  N   UNL     1      39.840 -15.204   5.523  1.00  0.00    -0.319 N 
HETATM    3  C   UNL     1      40.714 -16.234   5.764  1.00  0.00     0.326 C 
HETATM    4  O   UNL     1      40.473 -17.182   6.488  1.00  0.00    -0.247 OA
HETATM    5  N   UNL     1      41.855 -15.996   5.070  1.00  0.00    -0.265 N 
HETATM    6  C   UNL     1      41.810 -14.754   4.506  1.00  0.00     0.263 C 
HETATM    7  O   UNL     1      42.703 -14.237   3.841  1.00  0.00    -0.270 OA
HETATM    8  H   UNL     1      39.047 -15.075   6.145  1.00  0.00     0.166 HD
ENDROOT
BRANCH   1   9
HETATM    9  C   UNL     1      39.588 -13.737   3.555  1.00  0.00     0.033 C 
HETATM   10  C   UNL     1      39.447 -14.862   2.508  1.00  0.00     0.036 C 
HETATM   11  C   UNL     1      40.612 -14.996   1.533  1.00  0.00     0.235 C 
HETATM   12  N   UNL     1      40.976 -13.669   0.916  1.00  0.00    -0.067 N 
HETATM   13  H   UNL     1      40.216 -13.426   0.269  1.00  0.00     0.280 HD
HETATM   14  C   UNL     1      41.138 -12.536   1.893  1.00  0.00     0.235 C 
HETATM   15  C   UNL     1      39.939 -12.434   2.813  1.00  0.00     0.036 C 
BRANCH  12  16
HETATM   16  C   UNL     1      42.239 -13.786   0.070  1.00  0.00     0.273 C 
BRANCH  16  17
HETATM   17  C   UNL     1      42.181 -13.035  -1.236  1.00  0.00    -0.027 A 
HETATM   18  C   UNL     1      41.617 -13.586  -2.406  1.00  0.00    -0.054 A 
HETATM   19  C   UNL     1      41.624 -12.831  -3.593  1.00  0.00     0.014 A 
HETATM   20  C   UNL     1      41.035 -14.975  -2.452  1.00  0.00     0.049 C 
HETATM   21  C   UNL     1      42.184 -11.550  -3.639  1.00  0.00    -0.061 A 
HETATM   22  C   UNL     1      42.206 -10.763  -4.917  1.00  0.00     0.048 C 
HETATM   23  C   UNL     1      42.732 -11.008  -2.477  1.00  0.00     0.007 A 
HETATM   24  C   UNL     1      42.733 -11.740  -1.289  1.00  0.00     0.010 A 
ENDBRANCH  16  17
ENDBRANCH  12  16
ENDBRANCH   1   9
BRANCH   1  25
HETATM   25  C   UNL     1      40.560 -12.912   5.791  1.00  0.00     0.072 A 
HETATM   26  N   UNL     1      39.421 -12.642   6.490  1.00  0.00    -0.262 NA
HETATM   27  C   UNL     1      39.444 -11.624   7.380  1.00  0.00     0.117 A 
HETATM   28  C   UNL     1      40.552 -10.830   7.603  1.00  0.00     0.019 A 
HETATM   29  C   UNL     1      41.704 -11.096   6.877  1.00  0.00     0.003 A 
HETATM   30  C   UNL     1      41.714 -12.147   5.961  1.00  0.00     0.030 A 
ENDBRANCH   1  25
BRANCH   5  31
HETATM   31  C   UNL     1      42.962 -16.927   4.939  1.00  0.00     0.168 C 
BRANCH  31  32
HETATM   32  C   UNL     1      42.689 -18.070   3.943  1.00  0.00     0.140 C 
HETATM   33  O   UNL     1      43.578 -19.192   4.174  1.00  0.00    -0.384 OA
HETATM   34  C   UNL     1      43.956 -19.701   2.884  1.00  0.00     0.168 C 
HETATM   35  C   UNL     1      43.977 -18.502   1.968  1.00  0.00     0.029 C 
HETATM   36  C   UNL     1      42.807 -17.692   2.469  1.00  0.00     0.036 C 
ENDBRANCH  31  32
ENDBRANCH   5  31
TORSDOF 6
ENDMDL
MODEL 7
REMARK VINA RESULT:      -8.2      2.527      4.862
REMARK  6 active torsions:
REMARK  status: ('A' for Active; 'I' for Inactive)
REMARK    1  A    between atoms: C_6  and  C_7 
REMARK    2  A    between atoms: C_7  and  N_8 
REMARK    3  A    between atoms: C_12  and  C_13 
REMARK    4  A    between atoms: C_13  and  C_14 
REMARK    5  A    between atoms: N_23  and  C_24 
REMARK    6  A    between atoms: C_24  and  C_25 
ROOT
HETATM    1  C   UNL     1      39.898 -13.502   2.621  1.00  0.00     0.164 C 
HETATM    2  N   UNL     1      39.447 -14.132   3.856  1.00  0.00    -0.319 N 
HETATM    3  C   UNL     1      40.086 -13.647   4.969  1.00  0.00     0.326 C 
HETATM    4  O   UNL     1      39.750 -13.893   6.112  1.00  0.00    -0.247 OA
HETATM    5  N   UNL     1      41.120 -12.869   4.563  1.00  0.00    -0.265 N 
HETATM    6  C   UNL     1      41.077 -12.703   3.209  1.00  0.00     0.263 C 
HETATM    7  O   UNL     1      41.859 -12.027   2.546  1.00  0.00    -0.270 OA
HETATM    8  H   UNL     1      38.512 -14.517   3.952  1.00  0.00     0.166 HD
ENDROOT
BRANCH   1   9
HETATM    9  C   UNL     1      40.308 -14.621   1.595  1.00  0.00     0.033 C 
HETATM   10  C   UNL     1      39.932 -16.063   1.993  1.00  0.00     0.036 C 
HETATM   11  C   UNL     1      40.896 -16.747   2.956  1.00  0.00     0.235 C 
HETATM   12  N   UNL     1      42.326 -16.627   2.490  1.00  0.00    -0.067 N 
HETATM   13  H   UNL     1      42.421 -17.232   1.666  1.00  0.00     0.280 HD
HETATM   14  C   UNL     1      42.753 -15.237   2.100  1.00  0.00     0.235 C 
HETATM   15  C   UNL     1      41.773 -14.621   1.121  1.00  0.00     0.036 C 
BRANCH  12  16
HETATM   16  C   UNL     1      43.292 -17.171   3.537  1.00  0.00     0.273 C 
BRANCH  16  17
HETATM   17  C   UNL     1      43.685 -18.611   3.328  1.00  0.00    -0.027 A 
HETATM   18  C   UNL     1      44.441 -19.338   4.272  1.00  0.00    -0.054 A 
HETATM   19  C   UNL     1      44.790 -20.672   3.991  1.00  0.00     0.014 A 
HETATM   20  C   UNL     1      44.929 -18.734   5.563  1.00  0.00     0.049 C 
HETATM   21  C   UNL     1      44.409 -21.289   2.795  1.00  0.00    -0.061 A 
HETATM   22  C   UNL     1      44.807 -22.705   2.497  1.00  0.00     0.048 C 
HETATM   23  C   UNL     1      43.655 -20.567   1.870  1.00  0.00     0.007 A 
HETATM   24  C   UNL     1      43.297 -19.243   2.131  1.00  0.00     0.010 A 
ENDBRANCH  16  17
ENDBRANCH  12  16
ENDBRANCH   1   9
BRANCH   1  25
HETATM   25  C   UNL     1      38.762 -12.624   2.095  1.00  0.00     0.072 A 
HETATM   26  N   UNL     1      38.030 -13.175   1.086  1.00  0.00    -0.262 NA
HETATM   27  C   UNL     1      36.999 -12.459   0.581  1.00  0.00     0.117 A 
HETATM   28  C   UNL     1      36.662 -11.193   1.018  1.00  0.00     0.019 A 
HETATM   29  C   UNL     1      37.420 -10.629   2.033  1.00  0.00     0.003 A 
HETATM   30  C   UNL     1      38.482 -11.347   2.582  1.00  0.00     0.030 A 
ENDBRANCH   1  25
BRANCH   5  31
HETATM   31  C   UNL     1      42.130 -12.299   5.438  1.00  0.00     0.168 C 
BRANCH  31  32
HETATM   32  C   UNL     1      42.801 -13.336   6.358  1.00  0.00     0.140 C 
HETATM   33  O   UNL     1      43.486 -12.693   7.463  1.00  0.00    -0.384 OA
HETATM   34  C   UNL     1      44.712 -13.413   7.673  1.00  0.00     0.168 C 
HETATM   35  C   UNL     1      45.129 -13.905   6.310  1.00  0.00     0.029 C 
HETATM   36  C   UNL     1      43.807 -14.259   5.675  1.00  0.00     0.036 C 
ENDBRANCH  31  32
ENDBRANCH   5  31
TORSDOF 6
ENDMDL
MODEL 8
REMARK VINA RESULT:      -8.1      1.788      3.651
REMARK  6 active torsions:
REMARK  status: ('A' for Active; 'I' for Inactive)
REMARK    1  A    between atoms: C_6  and  C_7 
REMARK    2  A    between atoms: C_7  and  N_8 
REMARK    3  A    between atoms: C_12  and  C_13 
REMARK    4  A    between atoms: C_13  and  C_14 
REMARK    5  A    between atoms: N_23  and  C_24 
REMARK    6  A    between atoms: C_24  and  C_25 
ROOT
HETATM    1  C   UNL     1      40.908 -13.188   2.212  1.00  0.00     0.164 C 
HETATM    2  N   UNL     1      39.510 -12.794   2.094  1.00  0.00    -0.319 N 
HETATM    3  C   UNL     1      39.270 -11.988   1.009  1.00  0.00     0.326 C 
HETATM    4  O   UNL     1      38.159 -11.687   0.613  1.00  0.00    -0.247 OA
HETATM    5  N   UNL     1      40.463 -11.611   0.486  1.00  0.00    -0.265 N 
HETATM    6  C   UNL     1      41.478 -12.280   1.105  1.00  0.00     0.263 C 
HETATM    7  O   UNL     1      42.672 -12.179   0.834  1.00  0.00    -0.270 OA
HETATM    8  H   UNL     1      38.757 -13.373   2.454  1.00  0.00     0.166 HD
ENDROOT
BRANCH   1   9
HETATM    9  C   UNL     1      41.413 -12.852   3.663  1.00  0.00     0.033 C 
HETATM   10  C   UNL     1      42.681 -13.603   4.120  1.00  0.00     0.036 C 
HETATM   11  C   UNL     1      42.448 -15.015   4.647  1.00  0.00     0.235 C 
HETATM   12  N   UNL     1      41.348 -15.050   5.678  1.00  0.00    -0.067 N 
HETATM   13  H   UNL     1      41.717 -14.592   6.520  1.00  0.00     0.280 HD
HETATM   14  C   UNL     1      40.081 -14.342   5.280  1.00  0.00     0.235 C 
HETATM   15  C   UNL     1      40.372 -12.936   4.794  1.00  0.00     0.036 C 
BRANCH  12  16
HETATM   16  C   UNL     1      41.015 -16.483   6.078  1.00  0.00     0.273 C 
BRANCH  16  17
HETATM   17  C   UNL     1      42.105 -17.479   5.776  1.00  0.00    -0.027 A 
HETATM   18  C   UNL     1      43.132 -17.786   6.696  1.00  0.00    -0.054 A 
HETATM   19  C   UNL     1      44.129 -18.708   6.328  1.00  0.00     0.014 A 
HETATM   20  C   UNL     1      43.231 -17.135   8.050  1.00  0.00     0.049 C 
HETATM   21  C   UNL     1      44.128 -19.322   5.071  1.00  0.00    -0.061 A 
HETATM   22  C   UNL     1      45.209 -20.287   4.683  1.00  0.00     0.048 C 
HETATM   23  C   UNL     1      43.105 -19.021   4.171  1.00  0.00     0.007 A 
HETATM   24  C   UNL     1      42.106 -18.110   4.518  1.00  0.00     0.010 A 
ENDBRANCH  16  17
ENDBRANCH  12  16
ENDBRANCH   1   9
BRANCH   1  25
HETATM   25  C   UNL     1      41.009 -14.680   1.896  1.00  0.00     0.072 A 
HETATM   26  N   UNL     1      42.154 -15.056   1.259  1.00  0.00    -0.262 NA
HETATM   27  C   UNL     1      42.318 -16.365   0.961  1.00  0.00     0.117 A 
HETATM   28  C   UNL     1      41.379 -17.338   1.247  1.00  0.00     0.019 A 
HETATM   29  C   UNL     1      40.208 -16.948   1.880  1.00  0.00     0.003 A 
HETATM   30  C   UNL     1      40.016 -15.607   2.211  1.00  0.00     0.030 A 
ENDBRANCH   1  25
BRANCH   5  31
HETATM   31  C   UNL     1      40.637 -10.633  -0.574  1.00  0.00     0.168 C 
BRANCH  31  32
HETATM   32  C   UNL     1      40.834 -11.263  -1.966  1.00  0.00     0.140 C 
HETATM   33  O   UNL     1      40.455 -12.662  -1.969  1.00  0.00    -0.384 OA
HETATM   34  C   UNL     1      41.412 -13.355  -2.787  1.00  0.00     0.168 C 
HETATM   35  C   UNL     1      42.710 -12.609  -2.607  1.00  0.00     0.029 C 
HETATM   36  C   UNL     1      42.250 -11.174  -2.527  1.00  0.00     0.036 C 
ENDBRANCH  31  32
ENDBRANCH   5  31
TORSDOF 6
ENDMDL
MODEL 9
REMARK VINA RESULT:      -7.9      1.821      2.877
REMARK  6 active torsions:
REMARK  status: ('A' for Active; 'I' for Inactive)
REMARK    1  A    between atoms: C_6  and  C_7 
REMARK    2  A    between atoms: C_7  and  N_8 
REMARK    3  A    between atoms: C_12  and  C_13 
REMARK    4  A    between atoms: C_13  and  C_14 
REMARK    5  A    between atoms: N_23  and  C_24 
REMARK    6  A    between atoms: C_24  and  C_25 
ROOT
HETATM    1  C   UNL     1      39.798 -12.770   3.161  1.00  0.00     0.164 C 
HETATM    2  N   UNL     1      41.092 -12.245   2.745  1.00  0.00    -0.319 N 
HETATM    3  C   UNL     1      41.557 -12.819   1.588  1.00  0.00     0.326 C 
HETATM    4  O   UNL     1      42.519 -12.414   0.963  1.00  0.00    -0.247 OA
HETATM    5  N   UNL     1      40.764 -13.877   1.289  1.00  0.00    -0.265 N 
HETATM    6  C   UNL     1      39.694 -13.915   2.135  1.00  0.00     0.263 C 
HETATM    7  O   UNL     1      38.783 -14.737   2.100  1.00  0.00    -0.270 OA
HETATM    8  H   UNL     1      41.392 -11.304   2.984  1.00  0.00     0.166 HD
ENDROOT
BRANCH   1   9
HETATM    9  C   UNL     1      39.891 -13.236   4.660  1.00  0.00     0.033 C 
HETATM   10  C   UNL     1      41.065 -12.648   5.470  1.00  0.00     0.036 C 
HETATM   11  C   UNL     1      42.405 -13.352   5.283  1.00  0.00     0.235 C 
HETATM   12  N   UNL     1      42.276 -14.845   5.447  1.00  0.00    -0.067 N 
HETATM   13  H   UNL     1      42.108 -15.021   6.444  1.00  0.00     0.280 HD
HETATM   14  C   UNL     1      41.153 -15.476   4.668  1.00  0.00     0.235 C 
HETATM   15  C   UNL     1      39.844 -14.753   4.917  1.00  0.00     0.036 C 
BRANCH  12  16
HETATM   16  C   UNL     1      43.583 -15.551   5.100  1.00  0.00     0.273 C 
BRANCH  16  17
HETATM   17  C   UNL     1      43.649 -16.988   5.549  1.00  0.00    -0.027 A 
HETATM   18  C   UNL     1      43.788 -18.063   4.645  1.00  0.00    -0.054 A 
HETATM   19  C   UNL     1      43.816 -19.378   5.142  1.00  0.00     0.014 A 
HETATM   20  C   UNL     1      43.872 -17.865   3.154  1.00  0.00     0.049 C 
HETATM   21  C   UNL     1      43.702 -19.644   6.510  1.00  0.00    -0.061 A 
HETATM   22  C   UNL     1      43.710 -21.054   7.026  1.00  0.00     0.048 C 
HETATM   23  C   UNL     1      43.573 -18.577   7.399  1.00  0.00     0.007 A 
HETATM   24  C   UNL     1      43.545 -17.264   6.926  1.00  0.00     0.010 A 
ENDBRANCH  16  17
ENDBRANCH  12  16
ENDBRANCH   1   9
BRANCH   1  25
HETATM   25  C   UNL     1      38.754 -11.670   2.962  1.00  0.00     0.072 A 
HETATM   26  N   UNL     1      38.115 -11.696   1.758  1.00  0.00    -0.262 NA
HETATM   27  C   UNL     1      37.168 -10.760   1.517  1.00  0.00     0.117 A 
HETATM   28  C   UNL     1      36.829  -9.769   2.417  1.00  0.00     0.019 A 
HETATM   29  C   UNL     1      37.493  -9.736   3.634  1.00  0.00     0.003 A 
HETATM   30  C   UNL     1      38.466 -10.694   3.916  1.00  0.00     0.030 A 
ENDBRANCH   1  25
BRANCH   5  31
HETATM   31  C   UNL     1      41.017 -14.835   0.227  1.00  0.00     0.168 C 
BRANCH  31  32
HETATM   32  C   UNL     1      40.726 -14.284  -1.181  1.00  0.00     0.140 C 
HETATM   33  O   UNL     1      39.301 -14.158  -1.413  1.00  0.00    -0.384 OA
HETATM   34  C   UNL     1      39.058 -14.559  -2.772  1.00  0.00     0.168 C 
HETATM   35  C   UNL     1      40.091 -15.618  -3.069  1.00  0.00     0.029 C 
HETATM   36  C   UNL     1      41.304 -15.103  -2.333  1.00  0.00     0.036 C 
ENDBRANCH  31  32
ENDBRANCH   5  31
TORSDOF 6
ENDMDL
MODEL 10
REMARK VINA RESULT:      -7.8      1.356      2.098
REMARK  6 active torsions:
REMARK  status: ('A' for Active; 'I' for Inactive)
REMARK    1  A    between atoms: C_6  and  C_7 
REMARK    2  A    between atoms: C_7  and  N_8 
REMARK    3  A    between atoms: C_12  and  C_13 
REMARK    4  A    between atoms: C_13  and  C_14 
REMARK    5  A    between atoms: N_23  and  C_24 
REMARK    6  A    between atoms: C_24  and  C_25 
ROOT
HETATM    1  C   UNL     1      39.820 -13.635   2.217  1.00  0.00     0.164 C 
HETATM    2  N   UNL     1      41.101 -13.710   1.527  1.00  0.00    -0.319 N 
HETATM    3  C   UNL     1      40.988 -13.557   0.167  1.00  0.00     0.326 C 
HETATM    4  O   UNL     1      41.932 -13.405  -0.585  1.00  0.00    -0.247 OA
HETATM    5  N   UNL     1      39.672 -13.600  -0.158  1.00  0.00    -0.265 N 
HETATM    6  C   UNL     1      38.910 -13.618   0.974  1.00  0.00     0.263 C 
HETATM    7  O   UNL     1      37.682 -13.628   1.010  1.00  0.00    -0.270 OA
HETATM    8  H   UNL     1      41.972 -13.452   1.981  1.00  0.00     0.166 HD
ENDROOT
BRANCH   1   9
HETATM    9  C   UNL     1      39.657 -14.901   3.135  1.00  0.00     0.033 C 
HETATM   10  C   UNL     1      40.455 -14.877   4.455  1.00  0.00     0.036 C 
HETATM   11  C   UNL     1      41.920 -15.285   4.340  1.00  0.00     0.235 C 
HETATM   12  N   UNL     1      42.079 -16.583   3.589  1.00  0.00    -0.067 N 
HETATM   13  H   UNL     1      41.724 -17.325   4.202  1.00  0.00     0.280 HD
HETATM   14  C   UNL     1      41.331 -16.659   2.285  1.00  0.00     0.235 C 
HETATM   15  C   UNL     1      39.877 -16.272   2.467  1.00  0.00     0.036 C 
BRANCH  12  16
HETATM   16  C   UNL     1      43.550 -16.897   3.340  1.00  0.00     0.273 C 
BRANCH  16  17
HETATM   17  C   UNL     1      43.965 -18.285   3.756  1.00  0.00    -0.027 A 
HETATM   18  C   UNL     1      44.039 -19.362   2.847  1.00  0.00    -0.054 A 
HETATM   19  C   UNL     1      44.411 -20.634   3.319  1.00  0.00     0.014 A 
HETATM   20  C   UNL     1      43.698 -19.219   1.387  1.00  0.00     0.049 C 
HETATM   21  C   UNL     1      44.702 -20.855   4.669  1.00  0.00    -0.061 A 
HETATM   22  C   UNL     1      45.075 -22.222   5.164  1.00  0.00     0.048 C 
HETATM   23  C   UNL     1      44.635 -19.784   5.561  1.00  0.00     0.007 A 
HETATM   24  C   UNL     1      44.271 -18.514   5.111  1.00  0.00     0.010 A 
ENDBRANCH  16  17
ENDBRANCH  12  16
ENDBRANCH   1   9
BRANCH   1  25
HETATM   25  C   UNL     1      39.789 -12.333   3.018  1.00  0.00     0.072 A 
HETATM   26  N   UNL     1      40.939 -11.602   2.971  1.00  0.00    -0.262 NA
HETATM   27  C   UNL     1      40.979 -10.430   3.646  1.00  0.00     0.117 A 
HETATM   28  C   UNL     1      39.925  -9.945   4.396  1.00  0.00     0.019 A 
HETATM   29  C   UNL     1      38.763 -10.700   4.455  1.00  0.00     0.003 A 
HETATM   30  C   UNL     1      38.688 -11.906   3.760  1.00  0.00     0.030 A 
ENDBRANCH   1  25
BRANCH   5  31
HETATM   31  C   UNL     1      39.148 -13.629  -1.512  1.00  0.00     0.168 C 
BRANCH  31  32
HETATM   32  C   UNL     1      38.737 -12.243  -2.043  1.00  0.00     0.140 C 
HETATM   33  O   UNL     1      37.359 -11.940  -1.712  1.00  0.00    -0.384 OA
HETATM   34  C   UNL     1      36.790 -11.272  -2.851  1.00  0.00     0.168 C 
HETATM   35  C   UNL     1      37.487 -11.861  -4.052  1.00  0.00     0.029 C 
HETATM   36  C   UNL     1      38.897 -12.048  -3.548  1.00  0.00     0.036 C 
ENDBRANCH  31  32
ENDBRANCH   5  31
TORSDOF 6
ENDMDL
