MODEL 1
REMARK VINA RESULT:      -9.6      0.000      0.000
REMARK  9 active torsions:
REMARK  status: ('A' for Active; 'I' for Inactive)
REMARK    1  A    between atoms: C_2  and  C_3 
REMARK    2  A    between atoms: C_3  and  C_4 
REMARK    3  A    between atoms: C_3  and  C_39 
REMARK    4  A    between atoms: C_6  and  C_7 
REMARK    5  A    between atoms: C_14  and  C_15 
REMARK    6  A    between atoms: C_18  and  C_19 
REMARK    7  A    between atoms: C_19  and  N_20 
REMARK       I    between atoms: N_20  and  C_21 
REMARK       I    between atoms: C_21  and  N_22 
REMARK    8  A    between atoms: N_22  and  C_23 
REMARK    9  A    between atoms: C_25  and  C_26 
ROOT
HETATM    1  C   UNL     1      41.097 -15.842   1.555  1.00  0.00     0.068 C 
HETATM    2  C   UNL     1      41.676 -14.483   1.071  1.00  0.00     0.001 C 
HETATM    3  C   UNL     1      41.468 -13.404   2.160  1.00  0.00     0.040 C 
HETATM    4  C   UNL     1      39.967 -13.140   2.384  1.00  0.00     0.206 C 
HETATM    5  N   UNL     1      39.219 -14.223   1.612  1.00  0.00    -0.065 N 
HETATM    6  H   UNL     1      38.211 -14.150   1.869  1.00  0.00     0.280 HD
HETATM    7  C   UNL     1      39.638 -15.634   1.998  1.00  0.00     0.246 C 
HETATM    8  C   UNL     1      40.876 -14.056  -0.182  1.00  0.00     0.033 C 
HETATM    9  C   UNL     1      39.375 -14.011   0.129  1.00  0.00     0.236 C 
ENDROOT
BRANCH   1  10
HETATM   10  C   UNL     1      41.960 -16.502   2.609  1.00  0.00     0.045 A 
HETATM   11  N   UNL     1      42.388 -17.763   2.384  1.00  0.00    -0.233 NA
HETATM   12  C   UNL     1      43.126 -18.342   3.358  1.00  0.00     0.160 A 
HETATM   13  N   UNL     1      43.419 -17.757   4.532  1.00  0.00    -0.233 NA
HETATM   14  C   UNL     1      42.975 -16.502   4.737  1.00  0.00     0.043 A 
HETATM   15  C   UNL     1      42.233 -15.829   3.787  1.00  0.00     0.055 A 
BRANCH  12  16
HETATM   16  C   UNL     1      43.637 -19.707   3.134  1.00  0.00     0.014 A 
HETATM   17  C   UNL     1      43.374 -20.397   1.940  1.00  0.00     0.034 A 
HETATM   18  C   UNL     1      43.878 -21.676   1.765  1.00  0.00     0.117 A 
HETATM   19  N   UNL     1      44.623 -22.318   2.686  1.00  0.00    -0.273 NA
HETATM   20  C   UNL     1      44.860 -21.661   3.836  1.00  0.00     0.117 A 
HETATM   21  C   UNL     1      44.398 -20.381   4.101  1.00  0.00     0.034 A 
ENDBRANCH  12  16
BRANCH  14  22
HETATM   22  C   UNL     1      43.280 -15.854   6.077  1.00  0.00     0.037 C 
BRANCH  22  23
HETATM   23  C   UNL     1      43.955 -14.475   5.906  1.00  0.00     0.006 C 
HETATM   24  C   UNL     1      44.838 -14.086   7.085  1.00  0.00     0.006 C 
ENDBRANCH  22  23
BRANCH  22  25
HETATM   25  C   UNL     1      44.175 -16.771   6.938  1.00  0.00     0.006 C 
HETATM   26  C   UNL     1      43.445 -17.388   8.126  1.00  0.00     0.006 C 
ENDBRANCH  22  25
ENDBRANCH  14  22
ENDBRANCH   1  10
BRANCH   4  27
HETATM   27  C   UNL     1      39.572 -13.048   3.883  1.00  0.00     0.157 C 
BRANCH  27  28
HETATM   28  N   UNL     1      40.111 -11.902   4.623  1.00  0.00    -0.341 N 
HETATM   29  C   UNL     1      40.288 -11.937   5.986  1.00  0.00     0.320 C 
HETATM   30  N   UNL     1      41.019 -10.877   6.453  1.00  0.00    -0.309 N 
HETATM   31  O   UNL     1      39.787 -12.831   6.659  1.00  0.00    -0.247 OA
HETATM   32  H   UNL     1      41.138 -10.090   5.832  1.00  0.00     0.170 HD
HETATM   33  H   UNL     1      40.816 -11.367   4.131  1.00  0.00     0.164 HD
BRANCH  30  34
HETATM   34  C   UNL     1      41.483 -10.704   7.778  1.00  0.00     0.037 A 
HETATM   35  C   UNL     1      42.789 -10.993   8.182  1.00  0.00     0.044 A 
HETATM   36  C   UNL     1      43.200 -10.797   9.510  1.00  0.00     0.011 A 
HETATM   37  C   UNL     1      42.289 -10.298  10.445  1.00  0.00     0.015 A 
HETATM   38  C   UNL     1      40.986  -9.992  10.047  1.00  0.00     0.003 A 
HETATM   39  C   UNL     1      40.586 -10.191   8.721  1.00  0.00     0.029 A 
BRANCH  36  40
HETATM   40  C   UNL     1      44.608 -11.143   9.866  1.00  0.00     0.155 C 
HETATM   41  C   UNL     1      44.863 -12.204  10.904  1.00  0.00     0.096 C 
HETATM   42  O   UNL     1      45.537 -10.567   9.302  1.00  0.00    -0.293 OA
ENDBRANCH  36  40
ENDBRANCH  30  34
ENDBRANCH  27  28
ENDBRANCH   4  27
TORSDOF 9
ENDMDL
MODEL 2
REMARK VINA RESULT:      -9.5      2.777      8.027
REMARK  9 active torsions:
REMARK  status: ('A' for Active; 'I' for Inactive)
REMARK    1  A    between atoms: C_2  and  C_3 
REMARK    2  A    between atoms: C_3  and  C_4 
REMARK    3  A    between atoms: C_3  and  C_39 
REMARK    4  A    between atoms: C_6  and  C_7 
REMARK    5  A    between atoms: C_14  and  C_15 
REMARK    6  A    between atoms: C_18  and  C_19 
REMARK    7  A    between atoms: C_19  and  N_20 
REMARK       I    between atoms: N_20  and  C_21 
REMARK       I    between atoms: C_21  and  N_22 
REMARK    8  A    between atoms: N_22  and  C_23 
REMARK    9  A    between atoms: C_25  and  C_26 
ROOT
HETATM    1  C   UNL     1      39.269 -12.937   2.159  1.00  0.00     0.068 C 
HETATM    2  C   UNL     1      38.541 -14.253   1.764  1.00  0.00     0.001 C 
HETATM    3  C   UNL     1      39.579 -15.340   1.396  1.00  0.00     0.040 C 
HETATM    4  C   UNL     1      40.372 -14.932   0.140  1.00  0.00     0.206 C 
HETATM    5  N   UNL     1      40.006 -13.479  -0.147  1.00  0.00    -0.065 N 
HETATM    6  H   UNL     1      40.640 -13.141  -0.903  1.00  0.00     0.280 HD
HETATM    7  C   UNL     1      40.249 -12.552   1.035  1.00  0.00     0.246 C 
HETATM    8  C   UNL     1      37.696 -13.957   0.504  1.00  0.00     0.033 C 
HETATM    9  C   UNL     1      38.577 -13.382  -0.612  1.00  0.00     0.236 C 
ENDROOT
BRANCH   1  10
HETATM   10  C   UNL     1      39.918 -13.016   3.524  1.00  0.00     0.045 A 
HETATM   11  N   UNL     1      39.520 -12.138   4.469  1.00  0.00    -0.233 NA
HETATM   12  C   UNL     1      40.142 -12.205   5.669  1.00  0.00     0.160 A 
HETATM   13  N   UNL     1      41.141 -13.058   5.953  1.00  0.00    -0.233 NA
HETATM   14  C   UNL     1      41.526 -13.920   4.993  1.00  0.00     0.043 A 
HETATM   15  C   UNL     1      40.931 -13.932   3.747  1.00  0.00     0.055 A 
BRANCH  12  16
HETATM   16  C   UNL     1      39.713 -11.282   6.735  1.00  0.00     0.014 A 
HETATM   17  C   UNL     1      39.545  -9.911   6.488  1.00  0.00     0.034 A 
HETATM   18  C   UNL     1      39.134  -9.076   7.515  1.00  0.00     0.117 A 
HETATM   19  N   UNL     1      38.876  -9.504   8.767  1.00  0.00    -0.273 NA
HETATM   20  C   UNL     1      39.053 -10.817   9.005  1.00  0.00     0.117 A 
HETATM   21  C   UNL     1      39.462 -11.726   8.042  1.00  0.00     0.034 A 
ENDBRANCH  12  16
BRANCH  14  22
HETATM   22  C   UNL     1      42.678 -14.860   5.305  1.00  0.00     0.037 C 
BRANCH  22  23
HETATM   23  C   UNL     1      42.304 -15.876   6.407  1.00  0.00     0.006 C 
HETATM   24  C   UNL     1      41.261 -16.893   5.960  1.00  0.00     0.006 C 
ENDBRANCH  22  23
BRANCH  22  25
HETATM   25  C   UNL     1      43.933 -14.067   5.730  1.00  0.00     0.006 C 
HETATM   26  C   UNL     1      44.434 -14.429   7.123  1.00  0.00     0.006 C 
ENDBRANCH  22  25
ENDBRANCH  14  22
ENDBRANCH   1  10
BRANCH   4  27
HETATM   27  C   UNL     1      41.899 -15.184   0.264  1.00  0.00     0.157 C 
BRANCH  27  28
HETATM   28  N   UNL     1      42.316 -16.587   0.369  1.00  0.00    -0.341 N 
HETATM   29  C   UNL     1      43.032 -17.053   1.446  1.00  0.00     0.320 C 
HETATM   30  N   UNL     1      43.113 -18.420   1.478  1.00  0.00    -0.309 N 
HETATM   31  O   UNL     1      43.549 -16.272   2.237  1.00  0.00    -0.247 OA
HETATM   32  H   UNL     1      42.871 -18.916   0.632  1.00  0.00     0.170 HD
HETATM   33  H   UNL     1      41.657 -17.258  -0.008  1.00  0.00     0.164 HD
BRANCH  30  34
HETATM   34  C   UNL     1      43.661 -19.198   2.523  1.00  0.00     0.037 A 
HETATM   35  C   UNL     1      43.746 -18.760   3.848  1.00  0.00     0.044 A 
HETATM   36  C   UNL     1      44.295 -19.576   4.850  1.00  0.00     0.011 A 
HETATM   37  C   UNL     1      44.760 -20.852   4.520  1.00  0.00     0.015 A 
HETATM   38  C   UNL     1      44.666 -21.302   3.202  1.00  0.00     0.003 A 
HETATM   39  C   UNL     1      44.117 -20.482   2.211  1.00  0.00     0.029 A 
BRANCH  36  40
HETATM   40  C   UNL     1      44.361 -19.031   6.239  1.00  0.00     0.155 C 
HETATM   41  C   UNL     1      45.386 -17.976   6.564  1.00  0.00     0.096 C 
HETATM   42  O   UNL     1      43.575 -19.440   7.092  1.00  0.00    -0.293 OA
ENDBRANCH  36  40
ENDBRANCH  30  34
ENDBRANCH  27  28
ENDBRANCH   4  27
TORSDOF 9
ENDMDL
MODEL 3
REMARK VINA RESULT:      -9.2      3.892      8.942
REMARK  9 active torsions:
REMARK  status: ('A' for Active; 'I' for Inactive)
REMARK    1  A    between atoms: C_2  and  C_3 
REMARK    2  A    between atoms: C_3  and  C_4 
REMARK    3  A    between atoms: C_3  and  C_39 
REMARK    4  A    between atoms: C_6  and  C_7 
REMARK    5  A    between atoms: C_14  and  C_15 
REMARK    6  A    between atoms: C_18  and  C_19 
REMARK    7  A    between atoms: C_19  and  N_20 
REMARK       I    between atoms: N_20  and  C_21 
REMARK       I    between atoms: C_21  and  N_22 
REMARK    8  A    between atoms: N_22  and  C_23 
REMARK    9  A    between atoms: C_25  and  C_26 
ROOT
HETATM    1  C   UNL     1      39.605 -11.338   1.425  1.00  0.00     0.068 C 
HETATM    2  C   UNL     1      40.754 -11.151   2.456  1.00  0.00     0.001 C 
HETATM    3  C   UNL     1      41.381 -12.522   2.800  1.00  0.00     0.040 C 
HETATM    4  C   UNL     1      40.355 -13.428   3.507  1.00  0.00     0.206 C 
HETATM    5  N   UNL     1      39.008 -12.722   3.395  1.00  0.00    -0.065 N 
HETATM    6  H   UNL     1      38.278 -13.384   3.737  1.00  0.00     0.280 HD
HETATM    7  C   UNL     1      38.619 -12.392   1.961  1.00  0.00     0.246 C 
HETATM    8  C   UNL     1      40.129 -10.575   3.748  1.00  0.00     0.033 C 
HETATM    9  C   UNL     1      38.995 -11.479   4.246  1.00  0.00     0.236 C 
ENDROOT
BRANCH   1  10
HETATM   10  C   UNL     1      40.114 -11.642   0.032  1.00  0.00     0.045 A 
HETATM   11  N   UNL     1      39.520 -12.638  -0.659  1.00  0.00    -0.233 NA
HETATM   12  C   UNL     1      40.018 -12.913  -1.887  1.00  0.00     0.160 A 
HETATM   13  N   UNL     1      41.075 -12.286  -2.430  1.00  0.00    -0.233 NA
HETATM   14  C   UNL     1      41.656 -11.300  -1.719  1.00  0.00     0.043 A 
HETATM   15  C   UNL     1      41.198 -10.941  -0.467  1.00  0.00     0.055 A 
BRANCH  12  16
HETATM   16  C   UNL     1      39.375 -13.974  -2.684  1.00  0.00     0.014 A 
HETATM   17  C   UNL     1      37.985 -14.002  -2.874  1.00  0.00     0.034 A 
HETATM   18  C   UNL     1      37.419 -15.012  -3.635  1.00  0.00     0.117 A 
HETATM   19  N   UNL     1      38.132 -15.994  -4.221  1.00  0.00    -0.273 NA
HETATM   20  C   UNL     1      39.463 -15.974  -4.024  1.00  0.00     0.117 A 
HETATM   21  C   UNL     1      40.117 -15.005  -3.279  1.00  0.00     0.034 A 
ENDBRANCH  12  16
BRANCH  14  22
HETATM   22  C   UNL     1      42.871 -10.615  -2.321  1.00  0.00     0.037 C 
BRANCH  22  23
HETATM   23  C   UNL     1      43.725  -9.913  -1.241  1.00  0.00     0.006 C 
HETATM   24  C   UNL     1      44.095  -8.480  -1.604  1.00  0.00     0.006 C 
ENDBRANCH  22  23
BRANCH  22  25
HETATM   25  C   UNL     1      42.446  -9.592  -3.397  1.00  0.00     0.006 C 
HETATM   26  C   UNL     1      42.596 -10.116  -4.821  1.00  0.00     0.006 C 
ENDBRANCH  22  25
ENDBRANCH  14  22
ENDBRANCH   1  10
BRANCH   4  27
HETATM   27  C   UNL     1      40.348 -14.887   2.976  1.00  0.00     0.157 C 
BRANCH  27  28
HETATM   28  N   UNL     1      41.660 -15.527   2.831  1.00  0.00    -0.341 N 
HETATM   29  C   UNL     1      42.048 -16.576   3.630  1.00  0.00     0.320 C 
HETATM   30  N   UNL     1      43.190 -17.188   3.185  1.00  0.00    -0.309 N 
HETATM   31  O   UNL     1      41.415 -16.858   4.642  1.00  0.00    -0.247 OA
HETATM   32  H   UNL     1      43.743 -16.690   2.502  1.00  0.00     0.170 HD
HETATM   33  H   UNL     1      42.004 -15.586   1.880  1.00  0.00     0.164 HD
BRANCH  30  34
HETATM   34  C   UNL     1      43.760 -18.371   3.710  1.00  0.00     0.037 A 
HETATM   35  C   UNL     1      43.805 -19.581   3.012  1.00  0.00     0.044 A 
HETATM   36  C   UNL     1      44.389 -20.726   3.578  1.00  0.00     0.011 A 
HETATM   37  C   UNL     1      44.941 -20.654   4.860  1.00  0.00     0.015 A 
HETATM   38  C   UNL     1      44.914 -19.445   5.558  1.00  0.00     0.003 A 
HETATM   39  C   UNL     1      44.330 -18.310   4.986  1.00  0.00     0.029 A 
BRANCH  36  40
HETATM   40  C   UNL     1      44.386 -21.983   2.774  1.00  0.00     0.155 C 
HETATM   41  C   UNL     1      44.012 -21.921   1.316  1.00  0.00     0.096 C 
HETATM   42  O   UNL     1      44.698 -23.048   3.307  1.00  0.00    -0.293 OA
ENDBRANCH  36  40
ENDBRANCH  30  34
ENDBRANCH  27  28
ENDBRANCH   4  27
TORSDOF 9
ENDMDL
MODEL 4
REMARK VINA RESULT:      -9.0      3.206      8.543
REMARK  9 active torsions:
REMARK  status: ('A' for Active; 'I' for Inactive)
REMARK    1  A    between atoms: C_2  and  C_3 
REMARK    2  A    between atoms: C_3  and  C_4 
REMARK    3  A    between atoms: C_3  and  C_39 
REMARK    4  A    between atoms: C_6  and  C_7 
REMARK    5  A    between atoms: C_14  and  C_15 
REMARK    6  A    between atoms: C_18  and  C_19 
REMARK    7  A    between atoms: C_19  and  N_20 
REMARK       I    between atoms: N_20  and  C_21 
REMARK       I    between atoms: C_21  and  N_22 
REMARK    8  A    between atoms: N_22  and  C_23 
REMARK    9  A    between atoms: C_25  and  C_26 
ROOT
HETATM    1  C   UNL     1      38.902 -12.033   1.920  1.00  0.00     0.068 C 
HETATM    2  C   UNL     1      37.809 -13.006   1.394  1.00  0.00     0.001 C 
HETATM    3  C   UNL     1      38.457 -14.341   0.957  1.00  0.00     0.040 C 
HETATM    4  C   UNL     1      39.403 -14.121  -0.239  1.00  0.00     0.206 C 
HETATM    5  N   UNL     1      39.541 -12.611  -0.407  1.00  0.00    -0.065 N 
HETATM    6  H   UNL     1      40.288 -12.442  -1.114  1.00  0.00     0.280 HD
HETATM    7  C   UNL     1      40.010 -11.906   0.858  1.00  0.00     0.246 C 
HETATM    8  C   UNL     1      37.170 -12.356   0.144  1.00  0.00     0.033 C 
HETATM    9  C   UNL     1      38.246 -12.018  -0.895  1.00  0.00     0.236 C 
ENDROOT
BRANCH   1  10
HETATM   10  C   UNL     1      39.420 -12.421   3.288  1.00  0.00     0.045 A 
HETATM   11  N   UNL     1      39.208 -11.570   4.314  1.00  0.00    -0.233 NA
HETATM   12  C   UNL     1      39.712 -11.923   5.518  1.00  0.00     0.160 A 
HETATM   13  N   UNL     1      40.433 -13.037   5.736  1.00  0.00    -0.233 NA
HETATM   14  C   UNL     1      40.638 -13.868   4.697  1.00  0.00     0.043 A 
HETATM   15  C   UNL     1      40.140 -13.594   3.438  1.00  0.00     0.055 A 
BRANCH  12  16
HETATM   16  C   UNL     1      39.474 -11.033   6.668  1.00  0.00     0.014 A 
HETATM   17  C   UNL     1      39.411 -11.535   7.978  1.00  0.00     0.034 A 
HETATM   18  C   UNL     1      39.192 -10.665   9.034  1.00  0.00     0.117 A 
HETATM   19  N   UNL     1      39.034  -9.335   8.885  1.00  0.00    -0.273 NA
HETATM   20  C   UNL     1      39.079  -8.858   7.627  1.00  0.00     0.117 A 
HETATM   21  C   UNL     1      39.292  -9.651   6.510  1.00  0.00     0.034 A 
ENDBRANCH  12  16
BRANCH  14  22
HETATM   22  C   UNL     1      41.479 -15.110   4.938  1.00  0.00     0.037 C 
BRANCH  22  23
HETATM   23  C   UNL     1      40.783 -16.094   5.904  1.00  0.00     0.006 C 
HETATM   24  C   UNL     1      41.759 -16.858   6.791  1.00  0.00     0.006 C 
ENDBRANCH  22  23
BRANCH  22  25
HETATM   25  C   UNL     1      42.870 -14.730   5.491  1.00  0.00     0.006 C 
HETATM   26  C   UNL     1      43.745 -14.001   4.478  1.00  0.00     0.006 C 
ENDBRANCH  22  25
ENDBRANCH  14  22
ENDBRANCH   1  10
BRANCH   4  27
HETATM   27  C   UNL     1      40.758 -14.866  -0.101  1.00  0.00     0.157 C 
BRANCH  27  28
HETATM   28  N   UNL     1      40.733 -16.115   0.668  1.00  0.00    -0.341 N 
HETATM   29  C   UNL     1      41.888 -16.760   1.042  1.00  0.00     0.320 C 
HETATM   30  N   UNL     1      41.666 -17.762   1.950  1.00  0.00    -0.309 N 
HETATM   31  O   UNL     1      42.966 -16.448   0.549  1.00  0.00    -0.247 OA
HETATM   32  H   UNL     1      40.714 -18.079   2.063  1.00  0.00     0.170 HD
HETATM   33  H   UNL     1      39.985 -16.184   1.348  1.00  0.00     0.164 HD
BRANCH  30  34
HETATM   34  C   UNL     1      42.658 -18.512   2.622  1.00  0.00     0.037 A 
HETATM   35  C   UNL     1      43.028 -19.809   2.254  1.00  0.00     0.044 A 
HETATM   36  C   UNL     1      44.024 -20.507   2.953  1.00  0.00     0.011 A 
HETATM   37  C   UNL     1      44.664 -19.895   4.034  1.00  0.00     0.015 A 
HETATM   38  C   UNL     1      44.311 -18.595   4.400  1.00  0.00     0.003 A 
HETATM   39  C   UNL     1      43.317 -17.906   3.697  1.00  0.00     0.029 A 
BRANCH  36  40
HETATM   40  C   UNL     1      44.353 -21.893   2.505  1.00  0.00     0.155 C 
HETATM   41  C   UNL     1      44.742 -22.923   3.533  1.00  0.00     0.096 C 
HETATM   42  O   UNL     1      44.291 -22.178   1.310  1.00  0.00    -0.293 OA
ENDBRANCH  36  40
ENDBRANCH  30  34
ENDBRANCH  27  28
ENDBRANCH   4  27
TORSDOF 9
ENDMDL
MODEL 5
REMARK VINA RESULT:      -8.9      1.175      1.912
REMARK  9 active torsions:
REMARK  status: ('A' for Active; 'I' for Inactive)
REMARK    1  A    between atoms: C_2  and  C_3 
REMARK    2  A    between atoms: C_3  and  C_4 
REMARK    3  A    between atoms: C_3  and  C_39 
REMARK    4  A    between atoms: C_6  and  C_7 
REMARK    5  A    between atoms: C_14  and  C_15 
REMARK    6  A    between atoms: C_18  and  C_19 
REMARK    7  A    between atoms: C_19  and  N_20 
REMARK       I    between atoms: N_20  and  C_21 
REMARK       I    between atoms: C_21  and  N_22 
REMARK    8  A    between atoms: N_22  and  C_23 
REMARK    9  A    between atoms: C_25  and  C_26 
ROOT
HETATM    1  C   UNL     1      41.268 -16.069   1.663  1.00  0.00     0.068 C 
HETATM    2  C   UNL     1      41.990 -14.786   1.162  1.00  0.00     0.001 C 
HETATM    3  C   UNL     1      41.924 -13.686   2.248  1.00  0.00     0.040 C 
HETATM    4  C   UNL     1      40.467 -13.253   2.496  1.00  0.00     0.206 C 
HETATM    5  N   UNL     1      39.588 -14.246   1.743  1.00  0.00    -0.065 N 
HETATM    6  H   UNL     1      38.599 -14.058   2.017  1.00  0.00     0.280 HD
HETATM    7  C   UNL     1      39.850 -15.695   2.130  1.00  0.00     0.246 C 
HETATM    8  C   UNL     1      41.221 -14.275  -0.079  1.00  0.00     0.033 C 
HETATM    9  C   UNL     1      39.741 -14.059   0.257  1.00  0.00     0.236 C 
ENDROOT
BRANCH   1  10
HETATM   10  C   UNL     1      42.068 -16.819   2.707  1.00  0.00     0.045 A 
HETATM   11  N   UNL     1      42.509 -18.058   2.402  1.00  0.00    -0.233 NA
HETATM   12  C   UNL     1      43.190 -18.720   3.365  1.00  0.00     0.160 A 
HETATM   13  N   UNL     1      43.414 -18.236   4.599  1.00  0.00    -0.233 NA
HETATM   14  C   UNL     1      42.959 -17.001   4.883  1.00  0.00     0.043 A 
HETATM   15  C   UNL     1      42.273 -16.248   3.951  1.00  0.00     0.055 A 
BRANCH  12  16
HETATM   16  C   UNL     1      43.713 -20.064   3.058  1.00  0.00     0.014 A 
HETATM   17  C   UNL     1      44.361 -20.835   4.036  1.00  0.00     0.034 A 
HETATM   18  C   UNL     1      44.833 -22.097   3.711  1.00  0.00     0.117 A 
HETATM   19  N   UNL     1      44.707 -22.648   2.488  1.00  0.00    -0.273 NA
HETATM   20  C   UNL     1      44.099 -21.901   1.547  1.00  0.00     0.117 A 
HETATM   21  C   UNL     1      43.596 -20.630   1.780  1.00  0.00     0.034 A 
ENDBRANCH  12  16
BRANCH  14  22
HETATM   22  C   UNL     1      43.185 -16.468   6.288  1.00  0.00     0.037 C 
BRANCH  22  23
HETATM   23  C   UNL     1      43.416 -14.941   6.290  1.00  0.00     0.006 C 
HETATM   24  C   UNL     1      44.719 -14.530   6.964  1.00  0.00     0.006 C 
ENDBRANCH  22  23
BRANCH  22  25
HETATM   25  C   UNL     1      44.382 -17.178   6.956  1.00  0.00     0.006 C 
HETATM   26  C   UNL     1      43.971 -18.152   8.055  1.00  0.00     0.006 C 
ENDBRANCH  22  25
ENDBRANCH  14  22
ENDBRANCH   1  10
BRANCH   4  27
HETATM   27  C   UNL     1      40.112 -13.110   4.001  1.00  0.00     0.157 C 
BRANCH  27  28
HETATM   28  N   UNL     1      40.837 -12.073   4.741  1.00  0.00    -0.341 N 
HETATM   29  C   UNL     1      40.800 -11.999   6.114  1.00  0.00     0.320 C 
HETATM   30  N   UNL     1      41.724 -11.126   6.623  1.00  0.00    -0.309 N 
HETATM   31  O   UNL     1      39.976 -12.645   6.751  1.00  0.00    -0.247 OA
HETATM   32  H   UNL     1      42.147 -10.474   5.978  1.00  0.00     0.170 HD
HETATM   33  H   UNL     1      41.728 -11.805   4.339  1.00  0.00     0.164 HD
BRANCH  30  34
HETATM   34  C   UNL     1      42.021 -10.933   7.992  1.00  0.00     0.037 A 
HETATM   35  C   UNL     1      41.144 -10.325   8.894  1.00  0.00     0.044 A 
HETATM   36  C   UNL     1      41.487 -10.163  10.246  1.00  0.00     0.011 A 
HETATM   37  C   UNL     1      42.726 -10.623  10.701  1.00  0.00     0.015 A 
HETATM   38  C   UNL     1      43.603 -11.245   9.809  1.00  0.00     0.003 A 
HETATM   39  C   UNL     1      43.252 -11.402   8.465  1.00  0.00     0.029 A 
BRANCH  36  40
HETATM   40  C   UNL     1      40.501  -9.492  11.144  1.00  0.00     0.155 C 
HETATM   41  C   UNL     1      39.843 -10.292  12.237  1.00  0.00     0.096 C 
HETATM   42  O   UNL     1      40.248  -8.299  10.986  1.00  0.00    -0.293 OA
ENDBRANCH  36  40
ENDBRANCH  30  34
ENDBRANCH  27  28
ENDBRANCH   4  27
TORSDOF 9
ENDMDL
MODEL 6
REMARK VINA RESULT:      -8.9      3.297      8.598
REMARK  9 active torsions:
REMARK  status: ('A' for Active; 'I' for Inactive)
REMARK    1  A    between atoms: C_2  and  C_3 
REMARK    2  A    between atoms: C_3  and  C_4 
REMARK    3  A    between atoms: C_3  and  C_39 
REMARK    4  A    between atoms: C_6  and  C_7 
REMARK    5  A    between atoms: C_14  and  C_15 
REMARK    6  A    between atoms: C_18  and  C_19 
REMARK    7  A    between atoms: C_19  and  N_20 
REMARK       I    between atoms: N_20  and  C_21 
REMARK       I    between atoms: C_21  and  N_22 
REMARK    8  A    between atoms: N_22  and  C_23 
REMARK    9  A    between atoms: C_25  and  C_26 
ROOT
HETATM    1  C   UNL     1      40.828  -8.669   8.789  1.00  0.00     0.068 C 
HETATM    2  C   UNL     1      39.442  -9.348   8.601  1.00  0.00     0.001 C 
HETATM    3  C   UNL     1      39.537 -10.450   7.519  1.00  0.00     0.040 C 
HETATM    4  C   UNL     1      39.869  -9.837   6.146  1.00  0.00     0.206 C 
HETATM    5  N   UNL     1      40.223  -8.375   6.400  1.00  0.00    -0.065 N 
HETATM    6  H   UNL     1      40.591  -7.982   5.507  1.00  0.00     0.280 HD
HETATM    7  C   UNL     1      41.342  -8.196   7.417  1.00  0.00     0.246 C 
HETATM    8  C   UNL     1      38.459  -8.267   8.094  1.00  0.00     0.033 C 
HETATM    9  C   UNL     1      38.999  -7.605   6.820  1.00  0.00     0.236 C 
ENDROOT
BRANCH   1  10
HETATM   10  C   UNL     1      41.812  -9.546   9.532  1.00  0.00     0.045 A 
HETATM   11  N   UNL     1      42.717 -10.241   8.809  1.00  0.00    -0.233 NA
HETATM   12  C   UNL     1      43.562 -11.045   9.495  1.00  0.00     0.160 A 
HETATM   13  N   UNL     1      43.525 -11.216  10.827  1.00  0.00    -0.233 NA
HETATM   14  C   UNL     1      42.609 -10.519  11.527  1.00  0.00     0.043 A 
HETATM   15  C   UNL     1      41.723  -9.660  10.908  1.00  0.00     0.055 A 
BRANCH  12  16
HETATM   16  C   UNL     1      44.583 -11.796   8.742  1.00  0.00     0.014 A 
HETATM   17  C   UNL     1      45.935 -11.420   8.776  1.00  0.00     0.034 A 
HETATM   18  C   UNL     1      46.867 -12.155   8.060  1.00  0.00     0.117 A 
HETATM   19  N   UNL     1      46.554 -13.235   7.317  1.00  0.00    -0.273 NA
HETATM   20  C   UNL     1      45.255 -13.584   7.273  1.00  0.00     0.117 A 
HETATM   21  C   UNL     1      44.254 -12.909   7.955  1.00  0.00     0.034 A 
ENDBRANCH  12  16
BRANCH  14  22
HETATM   22  C   UNL     1      42.548 -10.738  13.029  1.00  0.00     0.037 C 
BRANCH  22  23
HETATM   23  C   UNL     1      41.093 -10.884  13.526  1.00  0.00     0.006 C 
HETATM   24  C   UNL     1      40.293 -11.924  12.752  1.00  0.00     0.006 C 
ENDBRANCH  22  23
BRANCH  22  25
HETATM   25  C   UNL     1      43.243  -9.582  13.780  1.00  0.00     0.006 C 
HETATM   26  C   UNL     1      42.538  -9.190  15.074  1.00  0.00     0.006 C 
ENDBRANCH  22  25
ENDBRANCH  14  22
ENDBRANCH   1  10
BRANCH   4  27
HETATM   27  C   UNL     1      40.957 -10.622   5.364  1.00  0.00     0.157 C 
BRANCH  27  28
HETATM   28  N   UNL     1      41.391 -11.890   5.959  1.00  0.00    -0.341 N 
HETATM   29  C   UNL     1      41.193 -13.095   5.326  1.00  0.00     0.320 C 
HETATM   30  N   UNL     1      41.876 -14.124   5.918  1.00  0.00    -0.309 N 
HETATM   31  O   UNL     1      40.443 -13.177   4.360  1.00  0.00    -0.247 OA
HETATM   32  H   UNL     1      42.235 -13.963   6.848  1.00  0.00     0.170 HD
HETATM   33  H   UNL     1      42.253 -11.842   6.490  1.00  0.00     0.164 HD
BRANCH  30  34
HETATM   34  C   UNL     1      41.984 -15.445   5.425  1.00  0.00     0.037 A 
HETATM   35  C   UNL     1      42.755 -15.793   4.313  1.00  0.00     0.044 A 
HETATM   36  C   UNL     1      42.832 -17.122   3.868  1.00  0.00     0.011 A 
HETATM   37  C   UNL     1      42.130 -18.118   4.553  1.00  0.00     0.015 A 
HETATM   38  C   UNL     1      41.369 -17.781   5.673  1.00  0.00     0.003 A 
HETATM   39  C   UNL     1      41.298 -16.454   6.109  1.00  0.00     0.029 A 
BRANCH  36  40
HETATM   40  C   UNL     1      43.668 -17.411   2.665  1.00  0.00     0.155 C 
HETATM   41  C   UNL     1      43.917 -18.843   2.273  1.00  0.00     0.096 C 
HETATM   42  O   UNL     1      44.130 -16.480   2.007  1.00  0.00    -0.293 OA
ENDBRANCH  36  40
ENDBRANCH  30  34
ENDBRANCH  27  28
ENDBRANCH   4  27
TORSDOF 9
ENDMDL
MODEL 7
REMARK VINA RESULT:      -8.8      3.121      7.423
REMARK  9 active torsions:
REMARK  status: ('A' for Active; 'I' for Inactive)
REMARK    1  A    between atoms: C_2  and  C_3 
REMARK    2  A    between atoms: C_3  and  C_4 
REMARK    3  A    between atoms: C_3  and  C_39 
REMARK    4  A    between atoms: C_6  and  C_7 
REMARK    5  A    between atoms: C_14  and  C_15 
REMARK    6  A    between atoms: C_18  and  C_19 
REMARK    7  A    between atoms: C_19  and  N_20 
REMARK       I    between atoms: N_20  and  C_21 
REMARK       I    between atoms: C_21  and  N_22 
REMARK    8  A    between atoms: N_22  and  C_23 
REMARK    9  A    between atoms: C_25  and  C_26 
ROOT
HETATM    1  C   UNL     1      39.937 -10.374   2.949  1.00  0.00     0.068 C 
HETATM    2  C   UNL     1      40.913  -9.798   4.013  1.00  0.00     0.001 C 
HETATM    3  C   UNL     1      41.339 -10.914   4.997  1.00  0.00     0.040 C 
HETATM    4  C   UNL     1      40.126 -11.421   5.801  1.00  0.00     0.206 C 
HETATM    5  N   UNL     1      38.891 -10.798   5.159  1.00  0.00    -0.065 N 
HETATM    6  H   UNL     1      38.054 -11.242   5.595  1.00  0.00     0.280 HD
HETATM    7  C   UNL     1      38.778 -11.088   3.669  1.00  0.00     0.246 C 
HETATM    8  C   UNL     1      40.144  -8.723   4.816  1.00  0.00     0.033 C 
HETATM    9  C   UNL     1      38.861  -9.314   5.412  1.00  0.00     0.236 C 
ENDROOT
BRANCH   1  10
HETATM   10  C   UNL     1      40.635 -11.242   1.924  1.00  0.00     0.045 A 
HETATM   11  N   UNL     1      40.516 -12.582   2.037  1.00  0.00    -0.233 NA
HETATM   12  C   UNL     1      41.180 -13.334   1.130  1.00  0.00     0.160 A 
HETATM   13  N   UNL     1      41.968 -12.831   0.164  1.00  0.00    -0.233 NA
HETATM   14  C   UNL     1      42.077 -11.492   0.074  1.00  0.00     0.043 A 
HETATM   15  C   UNL     1      41.417 -10.649   0.947  1.00  0.00     0.055 A 
BRANCH  12  16
HETATM   16  C   UNL     1      41.049 -14.801   1.204  1.00  0.00     0.014 A 
HETATM   17  C   UNL     1      40.338 -15.418   2.245  1.00  0.00     0.034 A 
HETATM   18  C   UNL     1      40.232 -16.799   2.276  1.00  0.00     0.117 A 
HETATM   19  N   UNL     1      40.777 -17.610   1.349  1.00  0.00    -0.273 NA
HETATM   20  C   UNL     1      41.472 -17.018   0.360  1.00  0.00     0.117 A 
HETATM   21  C   UNL     1      41.632 -15.646   0.247  1.00  0.00     0.034 A 
ENDBRANCH  12  16
BRANCH  14  22
HETATM   22  C   UNL     1      42.993 -10.926  -0.998  1.00  0.00     0.037 C 
BRANCH  22  23
HETATM   23  C   UNL     1      43.501  -9.515  -0.629  1.00  0.00     0.006 C 
HETATM   24  C   UNL     1      43.358  -8.508  -1.764  1.00  0.00     0.006 C 
ENDBRANCH  22  23
BRANCH  22  25
HETATM   25  C   UNL     1      42.275 -10.883  -2.364  1.00  0.00     0.006 C 
HETATM   26  C   UNL     1      42.492 -12.138  -3.201  1.00  0.00     0.006 C 
ENDBRANCH  22  25
ENDBRANCH  14  22
ENDBRANCH   1  10
BRANCH   4  27
HETATM   27  C   UNL     1      40.065 -12.968   5.918  1.00  0.00     0.157 C 
BRANCH  27  28
HETATM   28  N   UNL     1      41.351 -13.656   6.065  1.00  0.00    -0.341 N 
HETATM   29  C   UNL     1      41.483 -15.005   5.833  1.00  0.00     0.320 C 
HETATM   30  N   UNL     1      42.791 -15.410   5.787  1.00  0.00    -0.309 N 
HETATM   31  O   UNL     1      40.493 -15.721   5.727  1.00  0.00    -0.247 OA
HETATM   32  H   UNL     1      43.484 -14.772   6.151  1.00  0.00     0.170 HD
HETATM   33  H   UNL     1      42.162 -13.112   5.795  1.00  0.00     0.164 HD
BRANCH  30  34
HETATM   34  C   UNL     1      43.252 -16.699   5.433  1.00  0.00     0.037 A 
HETATM   35  C   UNL     1      43.408 -17.127   4.112  1.00  0.00     0.044 A 
HETATM   36  C   UNL     1      43.876 -18.417   3.816  1.00  0.00     0.011 A 
HETATM   37  C   UNL     1      44.198 -19.288   4.860  1.00  0.00     0.015 A 
HETATM   38  C   UNL     1      44.059 -18.864   6.183  1.00  0.00     0.003 A 
HETATM   39  C   UNL     1      43.592 -17.576   6.468  1.00  0.00     0.029 A 
BRANCH  36  40
HETATM   40  C   UNL     1      44.002 -18.804   2.379  1.00  0.00     0.155 C 
HETATM   41  C   UNL     1      43.590 -20.188   1.954  1.00  0.00     0.096 C 
HETATM   42  O   UNL     1      44.429 -17.987   1.564  1.00  0.00    -0.293 OA
ENDBRANCH  36  40
ENDBRANCH  30  34
ENDBRANCH  27  28
ENDBRANCH   4  27
TORSDOF 9
ENDMDL
MODEL 8
REMARK VINA RESULT:      -8.7      2.989      9.809
REMARK  9 active torsions:
REMARK  status: ('A' for Active; 'I' for Inactive)
REMARK    1  A    between atoms: C_2  and  C_3 
REMARK    2  A    between atoms: C_3  and  C_4 
REMARK    3  A    between atoms: C_3  and  C_39 
REMARK    4  A    between atoms: C_6  and  C_7 
REMARK    5  A    between atoms: C_14  and  C_15 
REMARK    6  A    between atoms: C_18  and  C_19 
REMARK    7  A    between atoms: C_19  and  N_20 
REMARK       I    between atoms: N_20  and  C_21 
REMARK       I    between atoms: C_21  and  N_22 
REMARK    8  A    between atoms: N_22  and  C_23 
REMARK    9  A    between atoms: C_25  and  C_26 
ROOT
HETATM    1  C   UNL     1      40.415 -10.721   6.300  1.00  0.00     0.068 C 
HETATM    2  C   UNL     1      39.465 -11.945   6.178  1.00  0.00     0.001 C 
HETATM    3  C   UNL     1      40.289 -13.255   6.172  1.00  0.00     0.040 C 
HETATM    4  C   UNL     1      41.191 -13.324   4.924  1.00  0.00     0.206 C 
HETATM    5  N   UNL     1      41.118 -11.952   4.263  1.00  0.00    -0.065 N 
HETATM    6  H   UNL     1      41.832 -11.932   3.503  1.00  0.00     0.280 HD
HETATM    7  C   UNL     1      41.490 -10.812   5.201  1.00  0.00     0.246 C 
HETATM    8  C   UNL     1      38.737 -11.836   4.818  1.00  0.00     0.033 C 
HETATM    9  C   UNL     1      39.751 -11.726   3.673  1.00  0.00     0.236 C 
ENDROOT
BRANCH   1  10
HETATM   10  C   UNL     1      40.988 -10.562   7.692  1.00  0.00     0.045 A 
HETATM   11  N   UNL     1      40.206 -10.008   8.642  1.00  0.00    -0.233 NA
HETATM   12  C   UNL     1      40.754  -9.844   9.868  1.00  0.00     0.160 A 
HETATM   13  N   UNL     1      42.024 -10.163  10.175  1.00  0.00    -0.233 NA
HETATM   14  C   UNL     1      42.787 -10.708   9.209  1.00  0.00     0.043 A 
HETATM   15  C   UNL     1      42.300 -10.929   7.936  1.00  0.00     0.055 A 
BRANCH  12  16
HETATM   16  C   UNL     1      39.921  -9.270  10.940  1.00  0.00     0.014 A 
HETATM   17  C   UNL     1      38.569  -9.623  11.081  1.00  0.00     0.034 A 
HETATM   18  C   UNL     1      37.820  -9.066  12.105  1.00  0.00     0.117 A 
HETATM   19  N   UNL     1      38.315  -8.188  12.999  1.00  0.00    -0.273 NA
HETATM   20  C   UNL     1      39.606  -7.838  12.852  1.00  0.00     0.117 A 
HETATM   21  C   UNL     1      40.432  -8.341  11.859  1.00  0.00     0.034 A 
ENDBRANCH  12  16
BRANCH  14  22
HETATM   22  C   UNL     1      44.231 -11.037   9.549  1.00  0.00     0.037 C 
BRANCH  22  23
HETATM   23  C   UNL     1      44.701 -12.334   8.854  1.00  0.00     0.006 C 
HETATM   24  C   UNL     1      46.142 -12.267   8.364  1.00  0.00     0.006 C 
ENDBRANCH  22  23
BRANCH  22  25
HETATM   25  C   UNL     1      44.419 -11.166  11.076  1.00  0.00     0.006 C 
HETATM   26  C   UNL     1      44.259 -12.593  11.587  1.00  0.00     0.006 C 
ENDBRANCH  22  25
ENDBRANCH  14  22
ENDBRANCH   1  10
BRANCH   4  27
HETATM   27  C   UNL     1      42.636 -13.800   5.231  1.00  0.00     0.157 C 
BRANCH  27  28
HETATM   28  N   UNL     1      43.108 -14.964   4.473  1.00  0.00    -0.341 N 
HETATM   29  C   UNL     1      43.486 -16.131   5.094  1.00  0.00     0.320 C 
HETATM   30  N   UNL     1      43.660 -17.167   4.215  1.00  0.00    -0.309 N 
HETATM   31  O   UNL     1      43.668 -16.163   6.306  1.00  0.00    -0.247 OA
HETATM   32  H   UNL     1      43.734 -16.933   3.235  1.00  0.00     0.170 HD
HETATM   33  H   UNL     1      42.654 -15.103   3.577  1.00  0.00     0.164 HD
BRANCH  30  34
HETATM   34  C   UNL     1      43.914 -18.515   4.557  1.00  0.00     0.037 A 
HETATM   35  C   UNL     1      44.038 -19.540   3.614  1.00  0.00     0.044 A 
HETATM   36  C   UNL     1      44.297 -20.863   4.007  1.00  0.00     0.011 A 
HETATM   37  C   UNL     1      44.438 -21.161   5.365  1.00  0.00     0.015 A 
HETATM   38  C   UNL     1      44.329 -20.142   6.312  1.00  0.00     0.003 A 
HETATM   39  C   UNL     1      44.072 -18.827   5.911  1.00  0.00     0.029 A 
BRANCH  36  40
HETATM   40  C   UNL     1      44.403 -21.902   2.940  1.00  0.00     0.155 C 
HETATM   41  C   UNL     1      44.036 -21.540   1.525  1.00  0.00     0.096 C 
HETATM   42  O   UNL     1      44.798 -23.031   3.228  1.00  0.00    -0.293 OA
ENDBRANCH  36  40
ENDBRANCH  30  34
ENDBRANCH  27  28
ENDBRANCH   4  27
TORSDOF 9
ENDMDL
MODEL 9
REMARK VINA RESULT:      -8.7      4.006      8.807
REMARK  9 active torsions:
REMARK  status: ('A' for Active; 'I' for Inactive)
REMARK    1  A    between atoms: C_2  and  C_3 
REMARK    2  A    between atoms: C_3  and  C_4 
REMARK    3  A    between atoms: C_3  and  C_39 
REMARK    4  A    between atoms: C_6  and  C_7 
REMARK    5  A    between atoms: C_14  and  C_15 
REMARK    6  A    between atoms: C_18  and  C_19 
REMARK    7  A    between atoms: C_19  and  N_20 
REMARK       I    between atoms: N_20  and  C_21 
REMARK       I    between atoms: C_21  and  N_22 
REMARK    8  A    between atoms: N_22  and  C_23 
REMARK    9  A    between atoms: C_25  and  C_26 
ROOT
HETATM    1  C   UNL     1      40.943 -11.792  -0.984  1.00  0.00     0.068 C 
HETATM    2  C   UNL     1      40.188 -12.136  -2.299  1.00  0.00     0.001 C 
HETATM    3  C   UNL     1      39.778 -13.628  -2.297  1.00  0.00     0.040 C 
HETATM    4  C   UNL     1      41.025 -14.534  -2.305  1.00  0.00     0.206 C 
HETATM    5  N   UNL     1      42.223 -13.621  -2.068  1.00  0.00    -0.065 N 
HETATM    6  H   UNL     1      43.057 -14.230  -1.924  1.00  0.00     0.280 HD
HETATM    7  C   UNL     1      42.103 -12.788  -0.799  1.00  0.00     0.246 C 
HETATM    8  C   UNL     1      41.171 -11.914  -3.472  1.00  0.00     0.033 C 
HETATM    9  C   UNL     1      42.450 -12.734  -3.264  1.00  0.00     0.236 C 
ENDROOT
BRANCH   1  10
HETATM   10  C   UNL     1      40.023 -11.710   0.214  1.00  0.00     0.045 A 
HETATM   11  N   UNL     1      40.317 -12.461   1.296  1.00  0.00    -0.233 NA
HETATM   12  C   UNL     1      39.459 -12.397   2.339  1.00  0.00     0.160 A 
HETATM   13  N   UNL     1      38.329 -11.668   2.343  1.00  0.00    -0.233 NA
HETATM   14  C   UNL     1      38.052 -10.931   1.250  1.00  0.00     0.043 A 
HETATM   15  C   UNL     1      38.885 -10.923   0.149  1.00  0.00     0.055 A 
BRANCH  12  16
HETATM   16  C   UNL     1      39.764 -13.181   3.550  1.00  0.00     0.014 A 
HETATM   17  C   UNL     1      40.331 -14.462   3.465  1.00  0.00     0.034 A 
HETATM   18  C   UNL     1      40.610 -15.165   4.626  1.00  0.00     0.117 A 
HETATM   19  N   UNL     1      40.368 -14.688   5.863  1.00  0.00    -0.273 NA
HETATM   20  C   UNL     1      39.810 -13.466   5.942  1.00  0.00     0.117 A 
HETATM   21  C   UNL     1      39.496 -12.690   4.837  1.00  0.00     0.034 A 
ENDBRANCH  12  16
BRANCH  14  22
HETATM   22  C   UNL     1      36.759 -10.134   1.243  1.00  0.00     0.037 C 
BRANCH  22  23
HETATM   23  C   UNL     1      36.491  -9.466   2.610  1.00  0.00     0.006 C 
HETATM   24  C   UNL     1      37.286  -8.184   2.819  1.00  0.00     0.006 C 
ENDBRANCH  22  23
BRANCH  22  25
HETATM   25  C   UNL     1      35.564 -11.032   0.856  1.00  0.00     0.006 C 
HETATM   26  C   UNL     1      34.699 -10.443  -0.252  1.00  0.00     0.006 C 
ENDBRANCH  22  25
ENDBRANCH  14  22
ENDBRANCH   1  10
BRANCH   4  27
HETATM   27  C   UNL     1      40.931 -15.723  -1.310  1.00  0.00     0.157 C 
BRANCH  27  28
HETATM   28  N   UNL     1      42.127 -15.985  -0.503  1.00  0.00    -0.341 N 
HETATM   29  C   UNL     1      42.100 -16.830   0.581  1.00  0.00     0.320 C 
HETATM   30  N   UNL     1      43.352 -17.132   1.050  1.00  0.00    -0.309 N 
HETATM   31  O   UNL     1      41.033 -17.207   1.053  1.00  0.00    -0.247 OA
HETATM   32  H   UNL     1      44.114 -16.548   0.737  1.00  0.00     0.170 HD
HETATM   33  H   UNL     1      42.997 -16.011  -1.022  1.00  0.00     0.164 HD
BRANCH  30  34
HETATM   34  C   UNL     1      43.659 -18.073   2.059  1.00  0.00     0.037 A 
HETATM   35  C   UNL     1      43.821 -19.440   1.815  1.00  0.00     0.044 A 
HETATM   36  C   UNL     1      44.131 -20.332   2.854  1.00  0.00     0.011 A 
HETATM   37  C   UNL     1      44.288 -19.846   4.155  1.00  0.00     0.015 A 
HETATM   38  C   UNL     1      44.142 -18.480   4.405  1.00  0.00     0.003 A 
HETATM   39  C   UNL     1      43.832 -17.599   3.363  1.00  0.00     0.029 A 
BRANCH  36  40
HETATM   40  C   UNL     1      44.276 -21.779   2.515  1.00  0.00     0.155 C 
HETATM   41  C   UNL     1      44.650 -22.753   3.600  1.00  0.00     0.096 C 
HETATM   42  O   UNL     1      44.077 -22.156   1.360  1.00  0.00    -0.293 OA
ENDBRANCH  36  40
ENDBRANCH  30  34
ENDBRANCH  27  28
ENDBRANCH   4  27
TORSDOF 9
ENDMDL
MODEL 10
REMARK VINA RESULT:      -8.7      4.009      8.627
REMARK  9 active torsions:
REMARK  status: ('A' for Active; 'I' for Inactive)
REMARK    1  A    between atoms: C_2  and  C_3 
REMARK    2  A    between atoms: C_3  and  C_4 
REMARK    3  A    between atoms: C_3  and  C_39 
REMARK    4  A    between atoms: C_6  and  C_7 
REMARK    5  A    between atoms: C_14  and  C_15 
REMARK    6  A    between atoms: C_18  and  C_19 
REMARK    7  A    between atoms: C_19  and  N_20 
REMARK       I    between atoms: N_20  and  C_21 
REMARK       I    between atoms: C_21  and  N_22 
REMARK    8  A    between atoms: N_22  and  C_23 
REMARK    9  A    between atoms: C_25  and  C_26 
ROOT
HETATM    1  C   UNL     1      39.553 -11.111   1.278  1.00  0.00     0.068 C 
HETATM    2  C   UNL     1      40.656 -11.137   2.373  1.00  0.00     0.001 C 
HETATM    3  C   UNL     1      41.047 -12.600   2.692  1.00  0.00     0.040 C 
HETATM    4  C   UNL     1      39.856 -13.359   3.308  1.00  0.00     0.206 C 
HETATM    5  N   UNL     1      38.641 -12.450   3.156  1.00  0.00    -0.065 N 
HETATM    6  H   UNL     1      37.800 -13.002   3.433  1.00  0.00     0.280 HD
HETATM    7  C   UNL     1      38.389 -12.017   1.719  1.00  0.00     0.246 C 
HETATM    8  C   UNL     1      40.055 -10.515   3.654  1.00  0.00     0.033 C 
HETATM    9  C   UNL     1      38.770 -11.249   4.056  1.00  0.00     0.236 C 
ENDROOT
BRANCH   1  10
HETATM   10  C   UNL     1      40.088 -11.443  -0.099  1.00  0.00     0.045 A 
HETATM   11  N   UNL     1      39.487 -12.434  -0.793  1.00  0.00    -0.233 NA
HETATM   12  C   UNL     1      40.007 -12.735  -2.004  1.00  0.00     0.160 A 
HETATM   13  N   UNL     1      41.092 -12.140  -2.529  1.00  0.00    -0.233 NA
HETATM   14  C   UNL     1      41.679 -11.160  -1.816  1.00  0.00     0.043 A 
HETATM   15  C   UNL     1      41.201 -10.775  -0.579  1.00  0.00     0.055 A 
BRANCH  12  16
HETATM   16  C   UNL     1      39.359 -13.791  -2.804  1.00  0.00     0.014 A 
HETATM   17  C   UNL     1      40.087 -14.889  -3.288  1.00  0.00     0.034 A 
HETATM   18  C   UNL     1      39.441 -15.865  -4.031  1.00  0.00     0.117 A 
HETATM   19  N   UNL     1      38.127 -15.829  -4.325  1.00  0.00    -0.273 NA
HETATM   20  C   UNL     1      37.434 -14.767  -3.874  1.00  0.00     0.117 A 
HETATM   21  C   UNL     1      37.995 -13.744  -3.125  1.00  0.00     0.034 A 
ENDBRANCH  12  16
BRANCH  14  22
HETATM   22  C   UNL     1      42.925 -10.511  -2.395  1.00  0.00     0.037 C 
BRANCH  22  23
HETATM   23  C   UNL     1      43.826  -9.915  -1.291  1.00  0.00     0.006 C 
HETATM   24  C   UNL     1      43.955  -8.399  -1.374  1.00  0.00     0.006 C 
ENDBRANCH  22  23
BRANCH  22  25
HETATM   25  C   UNL     1      42.547  -9.411  -3.411  1.00  0.00     0.006 C 
HETATM   26  C   UNL     1      42.515  -9.905  -4.853  1.00  0.00     0.006 C 
ENDBRANCH  22  25
ENDBRANCH  14  22
ENDBRANCH   1  10
BRANCH   4  27
HETATM   27  C   UNL     1      39.657 -14.781   2.717  1.00  0.00     0.157 C 
BRANCH  27  28
HETATM   28  N   UNL     1      40.877 -15.492   2.320  1.00  0.00    -0.341 N 
HETATM   29  C   UNL     1      41.495 -16.394   3.153  1.00  0.00     0.320 C 
HETATM   30  N   UNL     1      42.465 -17.124   2.518  1.00  0.00    -0.309 N 
HETATM   31  O   UNL     1      41.189 -16.462   4.338  1.00  0.00    -0.247 OA
HETATM   32  H   UNL     1      42.788 -16.782   1.624  1.00  0.00     0.170 HD
HETATM   33  H   UNL     1      40.929 -15.736   1.338  1.00  0.00     0.164 HD
BRANCH  30  34
HETATM   34  C   UNL     1      43.179 -18.215   3.065  1.00  0.00     0.037 A 
HETATM   35  C   UNL     1      43.301 -18.447   4.438  1.00  0.00     0.044 A 
HETATM   36  C   UNL     1      44.017 -19.551   4.928  1.00  0.00     0.011 A 
HETATM   37  C   UNL     1      44.614 -20.438   4.028  1.00  0.00     0.015 A 
HETATM   38  C   UNL     1      44.486 -20.221   2.655  1.00  0.00     0.003 A 
HETATM   39  C   UNL     1      43.770 -19.119   2.176  1.00  0.00     0.029 A 
BRANCH  36  40
HETATM   40  C   UNL     1      44.112 -19.723   6.408  1.00  0.00     0.155 C 
HETATM   41  C   UNL     1      43.745 -21.050   7.017  1.00  0.00     0.096 C 
HETATM   42  O   UNL     1      44.497 -18.786   7.106  1.00  0.00    -0.293 OA
ENDBRANCH  36  40
ENDBRANCH  30  34
ENDBRANCH  27  28
ENDBRANCH   4  27
TORSDOF 9
ENDMDL
