MODEL 1
REMARK VINA RESULT:      -9.9      0.000      0.000
REMARK  6 active torsions:
REMARK  status: ('A' for Active; 'I' for Inactive)
REMARK    1  A    between atoms: C_5  and  N_6 
REMARK    2  A    between atoms: N_6  and  C_7 
REMARK    3  A    between atoms: C_7  and  C_8 
REMARK    4  A    between atoms: N_10  and  C_12 
REMARK    5  A    between atoms: C_12  and  C_13 
REMARK    6  A    between atoms: C_14  and  C_15 
ROOT
HETATM    1  C   UNL     1      44.217 -15.893   6.626  1.00  0.00     0.031 C 
HETATM    2  C   UNL     1      43.138 -15.783   5.545  1.00  0.00     0.241 C 
HETATM    3  N   UNL     1      42.184 -16.928   5.827  1.00  0.00    -0.067 N 
HETATM    4  H   UNL     1      41.254 -16.528   6.007  1.00  0.00     0.280 HD
HETATM    5  C   UNL     1      42.634 -17.604   7.099  1.00  0.00     0.235 C 
HETATM    6  C   UNL     1      43.471 -16.539   7.788  1.00  0.00     0.035 C 
ENDROOT
BRANCH   3   7
HETATM    7  C   UNL     1      41.973 -17.893   4.682  1.00  0.00     0.277 C 
BRANCH   7   8
HETATM    8  C   UNL     1      42.833 -17.628   3.499  1.00  0.00     0.016 A 
HETATM    9  C   UNL     1      43.832 -18.502   2.954  1.00  0.00     0.102 A 
HETATM   10  N   UNL     1      44.423 -17.933   1.898  1.00  0.00    -0.174 NA
HETATM   11  N   UNL     1      43.796 -16.771   1.713  1.00  0.00    -0.288 N 
HETATM   12  H   UNL     1      44.075 -16.198   0.920  1.00  0.00     0.188 HD
HETATM   13  C   UNL     1      42.841 -16.528   2.658  1.00  0.00     0.120 A 
BRANCH   9  14
HETATM   14  C   UNL     1      44.219 -19.845   3.375  1.00  0.00     0.072 A 
HETATM   15  C   UNL     1      44.779 -20.070   4.636  1.00  0.00     0.132 A 
HETATM   16  F   UNL     1      45.043 -19.038   5.453  1.00  0.00    -0.205 F 
HETATM   17  C   UNL     1      45.099 -21.356   5.074  1.00  0.00     0.043 A 
HETATM   18  C   UNL     1      44.862 -22.449   4.243  1.00  0.00     0.006 A 
HETATM   19  C   UNL     1      44.320 -22.245   2.975  1.00  0.00     0.043 A 
HETATM   20  C   UNL     1      44.004 -20.953   2.549  1.00  0.00     0.132 A 
HETATM   21  F   UNL     1      43.532 -20.798   1.304  1.00  0.00    -0.205 F 
ENDBRANCH   9  14
ENDBRANCH   7   8
ENDBRANCH   3   7
BRANCH   1  22
HETATM   22  C   UNL     1      44.852 -14.535   6.951  1.00  0.00     0.127 C 
BRANCH  22  23
HETATM   23  N   UNL     1      43.999 -13.740   7.831  1.00  0.00    -0.376 N 
HETATM   24  H   UNL     1      43.008 -13.946   7.836  1.00  0.00     0.161 HD
BRANCH  23  25
HETATM   25  C   UNL     1      44.518 -12.831   8.732  1.00  0.00     0.101 A 
HETATM   26  N   UNL     1      43.855 -12.633   9.887  1.00  0.00    -0.347 N 
HETATM   27  C   UNL     1      44.247 -11.776  10.849  1.00  0.00     0.007 A 
HETATM   28  H   UNL     1      43.004 -13.164  10.036  1.00  0.00     0.167 HD
HETATM   29  C   UNL     1      43.417 -11.643  12.086  1.00  0.00     0.068 C 
HETATM   30  C   UNL     1      45.410 -11.034  10.666  1.00  0.00     0.025 A 
HETATM   31  C   UNL     1      46.135 -11.192   9.495  1.00  0.00     0.006 A 
HETATM   32  C   UNL     1      45.686 -12.088   8.525  1.00  0.00     0.048 A 
ENDBRANCH  23  25
ENDBRANCH  22  23
ENDBRANCH   1  22
TORSDOF 6
ENDMDL
MODEL 2
REMARK VINA RESULT:      -9.4      2.270      3.068
REMARK  6 active torsions:
REMARK  status: ('A' for Active; 'I' for Inactive)
REMARK    1  A    between atoms: C_5  and  N_6 
REMARK    2  A    between atoms: N_6  and  C_7 
REMARK    3  A    between atoms: C_7  and  C_8 
REMARK    4  A    between atoms: N_10  and  C_12 
REMARK    5  A    between atoms: C_12  and  C_13 
REMARK    6  A    between atoms: C_14  and  C_15 
ROOT
HETATM    1  C   UNL     1      43.511 -14.704   5.529  1.00  0.00     0.031 C 
HETATM    2  C   UNL     1      43.865 -13.987   4.222  1.00  0.00     0.241 C 
HETATM    3  N   UNL     1      42.531 -13.597   3.616  1.00  0.00    -0.067 N 
HETATM    4  H   UNL     1      42.513 -12.573   3.520  1.00  0.00     0.280 HD
HETATM    5  C   UNL     1      41.448 -13.973   4.597  1.00  0.00     0.235 C 
HETATM    6  C   UNL     1      42.187 -14.060   5.922  1.00  0.00     0.035 C 
ENDROOT
BRANCH   3   7
HETATM    7  C   UNL     1      42.276 -14.118   2.219  1.00  0.00     0.277 C 
BRANCH   7   8
HETATM    8  C   UNL     1      41.086 -15.001   2.108  1.00  0.00     0.016 A 
HETATM    9  C   UNL     1      41.052 -16.423   2.302  1.00  0.00     0.102 A 
HETATM   10  N   UNL     1      39.816 -16.891   2.106  1.00  0.00    -0.174 NA
HETATM   11  N   UNL     1      39.057 -15.822   1.865  1.00  0.00    -0.288 N 
HETATM   12  H   UNL     1      38.058 -15.964   1.729  1.00  0.00     0.188 HD
HETATM   13  C   UNL     1      39.772 -14.659   1.837  1.00  0.00     0.120 A 
BRANCH   9  14
HETATM   14  C   UNL     1      42.128 -17.332   2.686  1.00  0.00     0.072 A 
HETATM   15  C   UNL     1      42.252 -17.782   4.004  1.00  0.00     0.132 A 
HETATM   16  F   UNL     1      41.426 -17.321   4.957  1.00  0.00    -0.205 F 
HETATM   17  C   UNL     1      43.239 -18.697   4.373  1.00  0.00     0.043 A 
HETATM   18  C   UNL     1      44.130 -19.177   3.416  1.00  0.00     0.006 A 
HETATM   19  C   UNL     1      44.034 -18.729   2.099  1.00  0.00     0.043 A 
HETATM   20  C   UNL     1      43.041 -17.813   1.744  1.00  0.00     0.132 A 
HETATM   21  F   UNL     1      43.017 -17.371   0.478  1.00  0.00    -0.205 F 
ENDBRANCH   9  14
ENDBRANCH   7   8
ENDBRANCH   3   7
BRANCH   1  22
HETATM   22  C   UNL     1      44.621 -14.576   6.579  1.00  0.00     0.127 C 
BRANCH  22  23
HETATM   23  N   UNL     1      44.099 -14.094   7.855  1.00  0.00    -0.376 N 
HETATM   24  H   UNL     1      43.351 -14.622   8.286  1.00  0.00     0.161 HD
BRANCH  23  25
HETATM   25  C   UNL     1      44.679 -13.040   8.534  1.00  0.00     0.101 A 
HETATM   26  N   UNL     1      44.042 -12.555   9.616  1.00  0.00    -0.347 N 
HETATM   27  C   UNL     1      44.493 -11.530  10.367  1.00  0.00     0.007 A 
HETATM   28  H   UNL     1      43.164 -12.990   9.878  1.00  0.00     0.167 HD
HETATM   29  C   UNL     1      43.686 -11.082  11.543  1.00  0.00     0.068 C 
HETATM   30  C   UNL     1      45.694 -10.915  10.026  1.00  0.00     0.025 A 
HETATM   31  C   UNL     1      46.395 -11.368   8.919  1.00  0.00     0.006 A 
HETATM   32  C   UNL     1      45.885 -12.428   8.170  1.00  0.00     0.048 A 
ENDBRANCH  23  25
ENDBRANCH  22  23
ENDBRANCH   1  22
TORSDOF 6
ENDMDL
MODEL 3
REMARK VINA RESULT:      -9.3      2.268      3.358
REMARK  6 active torsions:
REMARK  status: ('A' for Active; 'I' for Inactive)
REMARK    1  A    between atoms: C_5  and  N_6 
REMARK    2  A    between atoms: N_6  and  C_7 
REMARK    3  A    between atoms: C_7  and  C_8 
REMARK    4  A    between atoms: N_10  and  C_12 
REMARK    5  A    between atoms: C_12  and  C_13 
REMARK    6  A    between atoms: C_14  and  C_15 
ROOT
HETATM    1  C   UNL     1      44.489 -13.901   6.902  1.00  0.00     0.031 C 
HETATM    2  C   UNL     1      43.264 -13.359   6.159  1.00  0.00     0.241 C 
HETATM    3  N   UNL     1      42.707 -14.550   5.403  1.00  0.00    -0.067 N 
HETATM    4  H   UNL     1      41.744 -14.709   5.727  1.00  0.00     0.280 HD
HETATM    5  C   UNL     1      43.515 -15.764   5.790  1.00  0.00     0.235 C 
HETATM    6  C   UNL     1      44.134 -15.367   7.119  1.00  0.00     0.035 C 
ENDROOT
BRANCH   3   7
HETATM    7  C   UNL     1      42.584 -14.368   3.906  1.00  0.00     0.277 C 
BRANCH   7   8
HETATM    8  C   UNL     1      41.344 -14.945   3.325  1.00  0.00     0.016 A 
HETATM    9  C   UNL     1      41.198 -16.246   2.737  1.00  0.00     0.102 A 
HETATM   10  N   UNL     1      39.947 -16.424   2.302  1.00  0.00    -0.174 NA
HETATM   11  N   UNL     1      39.282 -15.322   2.650  1.00  0.00    -0.288 N 
HETATM   12  H   UNL     1      38.287 -15.278   2.442  1.00  0.00     0.188 HD
HETATM   13  C   UNL     1      40.077 -14.391   3.254  1.00  0.00     0.120 A 
BRANCH   9  14
HETATM   14  C   UNL     1      42.181 -17.318   2.601  1.00  0.00     0.072 A 
HETATM   15  C   UNL     1      42.979 -17.420   1.458  1.00  0.00     0.132 A 
HETATM   16  F   UNL     1      42.799 -16.577   0.429  1.00  0.00    -0.205 F 
HETATM   17  C   UNL     1      43.962 -18.404   1.340  1.00  0.00     0.043 A 
HETATM   18  C   UNL     1      44.160 -19.312   2.378  1.00  0.00     0.006 A 
HETATM   19  C   UNL     1      43.363 -19.238   3.519  1.00  0.00     0.043 A 
HETATM   20  C   UNL     1      42.383 -18.248   3.624  1.00  0.00     0.132 A 
HETATM   21  F   UNL     1      41.607 -18.245   4.717  1.00  0.00    -0.205 F 
ENDBRANCH   9  14
ENDBRANCH   7   8
ENDBRANCH   3   7
BRANCH   1  22
HETATM   22  C   UNL     1      44.781 -13.117   8.187  1.00  0.00     0.127 C 
BRANCH  22  23
HETATM   23  N   UNL     1      43.749 -12.117   8.451  1.00  0.00    -0.376 N 
HETATM   24  H   UNL     1      43.070 -11.938   7.721  1.00  0.00     0.161 HD
BRANCH  23  25
HETATM   25  C   UNL     1      43.601 -11.525   9.690  1.00  0.00     0.101 A 
HETATM   26  N   UNL     1      42.396 -11.593  10.286  1.00  0.00    -0.347 N 
HETATM   27  C   UNL     1      42.113 -11.057  11.490  1.00  0.00     0.007 A 
HETATM   28  H   UNL     1      41.655 -12.078   9.792  1.00  0.00     0.167 HD
HETATM   29  C   UNL     1      40.730 -11.198  12.040  1.00  0.00     0.068 C 
HETATM   30  C   UNL     1      43.112 -10.384  12.186  1.00  0.00     0.025 A 
HETATM   31  C   UNL     1      44.374 -10.278  11.622  1.00  0.00     0.006 A 
HETATM   32  C   UNL     1      44.618 -10.844  10.371  1.00  0.00     0.048 A 
ENDBRANCH  23  25
ENDBRANCH  22  23
ENDBRANCH   1  22
TORSDOF 6
ENDMDL
MODEL 4
REMARK VINA RESULT:      -9.2      1.243      2.048
REMARK  6 active torsions:
REMARK  status: ('A' for Active; 'I' for Inactive)
REMARK    1  A    between atoms: C_5  and  N_6 
REMARK    2  A    between atoms: N_6  and  C_7 
REMARK    3  A    between atoms: C_7  and  C_8 
REMARK    4  A    between atoms: N_10  and  C_12 
REMARK    5  A    between atoms: C_12  and  C_13 
REMARK    6  A    between atoms: C_14  and  C_15 
ROOT
HETATM    1  C   UNL     1      42.671 -15.067   5.928  1.00  0.00     0.031 C 
HETATM    2  C   UNL     1      42.639 -15.335   4.421  1.00  0.00     0.241 C 
HETATM    3  N   UNL     1      41.304 -16.009   4.172  1.00  0.00    -0.067 N 
HETATM    4  H   UNL     1      40.772 -15.425   3.513  1.00  0.00     0.280 HD
HETATM    5  C   UNL     1      40.542 -16.023   5.473  1.00  0.00     0.235 C 
HETATM    6  C   UNL     1      41.196 -14.912   6.277  1.00  0.00     0.035 C 
ENDROOT
BRANCH   3   7
HETATM    7  C   UNL     1      41.377 -17.367   3.509  1.00  0.00     0.277 C 
BRANCH   7   8
HETATM    8  C   UNL     1      42.277 -17.418   2.327  1.00  0.00     0.016 A 
HETATM    9  C   UNL     1      43.398 -18.294   2.141  1.00  0.00     0.102 A 
HETATM   10  N   UNL     1      43.991 -18.052   0.968  1.00  0.00    -0.174 NA
HETATM   11  N   UNL     1      43.254 -17.110   0.378  1.00  0.00    -0.288 N 
HETATM   12  H   UNL     1      43.520 -16.811  -0.559  1.00  0.00     0.188 HD
HETATM   13  C   UNL     1      42.220 -16.678   1.158  1.00  0.00     0.120 A 
BRANCH   9  14
HETATM   14  C   UNL     1      43.901 -19.355   3.010  1.00  0.00     0.072 A 
HETATM   15  C   UNL     1      43.920 -20.685   2.583  1.00  0.00     0.132 A 
HETATM   16  F   UNL     1      43.401 -21.021   1.391  1.00  0.00    -0.205 F 
HETATM   17  C   UNL     1      44.451 -21.701   3.380  1.00  0.00     0.043 A 
HETATM   18  C   UNL     1      44.974 -21.393   4.634  1.00  0.00     0.006 A 
HETATM   19  C   UNL     1      44.951 -20.074   5.086  1.00  0.00     0.043 A 
HETATM   20  C   UNL     1      44.416 -19.068   4.278  1.00  0.00     0.132 A 
HETATM   21  F   UNL     1      44.367 -17.823   4.772  1.00  0.00    -0.205 F 
ENDBRANCH   9  14
ENDBRANCH   7   8
ENDBRANCH   3   7
BRANCH   1  22
HETATM   22  C   UNL     1      43.542 -13.855   6.282  1.00  0.00     0.127 C 
BRANCH  22  23
HETATM   23  N   UNL     1      44.332 -14.097   7.488  1.00  0.00    -0.376 N 
HETATM   24  H   UNL     1      44.631 -15.046   7.671  1.00  0.00     0.161 HD
BRANCH  23  25
HETATM   25  C   UNL     1      44.782 -13.065   8.289  1.00  0.00     0.101 A 
HETATM   26  N   UNL     1      43.989 -12.652   9.295  1.00  0.00    -0.347 N 
HETATM   27  C   UNL     1      44.302 -11.656  10.148  1.00  0.00     0.007 A 
HETATM   28  H   UNL     1      43.098 -13.121   9.414  1.00  0.00     0.167 HD
HETATM   29  C   UNL     1      43.330 -11.288  11.223  1.00  0.00     0.068 C 
HETATM   30  C   UNL     1      45.518 -10.994  10.004  1.00  0.00     0.025 A 
HETATM   31  C   UNL     1      46.376 -11.373   8.982  1.00  0.00     0.006 A 
HETATM   32  C   UNL     1      46.006 -12.406   8.122  1.00  0.00     0.048 A 
ENDBRANCH  23  25
ENDBRANCH  22  23
ENDBRANCH   1  22
TORSDOF 6
ENDMDL
MODEL 5
REMARK VINA RESULT:      -9.1      3.068      6.049
REMARK  6 active torsions:
REMARK  status: ('A' for Active; 'I' for Inactive)
REMARK    1  A    between atoms: C_5  and  N_6 
REMARK    2  A    between atoms: N_6  and  C_7 
REMARK    3  A    between atoms: C_7  and  C_8 
REMARK    4  A    between atoms: N_10  and  C_12 
REMARK    5  A    between atoms: C_12  and  C_13 
REMARK    6  A    between atoms: C_14  and  C_15 
ROOT
HETATM    1  C   UNL     1      42.118 -14.572   5.698  1.00  0.00     0.031 C 
HETATM    2  C   UNL     1      42.415 -15.842   6.501  1.00  0.00     0.241 C 
HETATM    3  N   UNL     1      43.896 -15.765   6.820  1.00  0.00    -0.067 N 
HETATM    4  H   UNL     1      44.000 -15.766   7.844  1.00  0.00     0.280 HD
HETATM    5  C   UNL     1      44.410 -14.439   6.319  1.00  0.00     0.235 C 
HETATM    6  C   UNL     1      43.155 -13.587   6.224  1.00  0.00     0.035 C 
ENDROOT
BRANCH   3   7
HETATM    7  C   UNL     1      44.722 -16.942   6.349  1.00  0.00     0.277 C 
BRANCH   7   8
HETATM    8  C   UNL     1      44.287 -18.250   6.906  1.00  0.00     0.016 A 
HETATM    9  C   UNL     1      43.941 -19.426   6.159  1.00  0.00     0.102 A 
HETATM   10  N   UNL     1      43.581 -20.413   6.985  1.00  0.00    -0.174 NA
HETATM   11  N   UNL     1      43.749 -19.934   8.218  1.00  0.00    -0.288 N 
HETATM   12  H   UNL     1      43.565 -20.557   9.002  1.00  0.00     0.188 HD
HETATM   13  C   UNL     1      44.156 -18.631   8.230  1.00  0.00     0.120 A 
BRANCH   9  14
HETATM   14  C   UNL     1      43.967 -19.649   4.717  1.00  0.00     0.072 A 
HETATM   15  C   UNL     1      44.842 -20.580   4.149  1.00  0.00     0.132 A 
HETATM   16  F   UNL     1      45.732 -21.228   4.918  1.00  0.00    -0.205 F 
HETATM   17  C   UNL     1      44.837 -20.846   2.779  1.00  0.00     0.043 A 
HETATM   18  C   UNL     1      43.945 -20.173   1.947  1.00  0.00     0.006 A 
HETATM   19  C   UNL     1      43.074 -19.229   2.490  1.00  0.00     0.043 A 
HETATM   20  C   UNL     1      43.090 -18.973   3.863  1.00  0.00     0.132 A 
HETATM   21  F   UNL     1      42.272 -18.022   4.335  1.00  0.00    -0.205 F 
ENDBRANCH   9  14
ENDBRANCH   7   8
ENDBRANCH   3   7
BRANCH   1  22
HETATM   22  C   UNL     1      40.663 -14.114   5.857  1.00  0.00     0.127 C 
BRANCH  22  23
HETATM   23  N   UNL     1      39.773 -14.827   4.944  1.00  0.00    -0.376 N 
HETATM   24  H   UNL     1      38.959 -15.280   5.339  1.00  0.00     0.161 HD
BRANCH  23  25
HETATM   25  C   UNL     1      39.941 -14.785   3.574  1.00  0.00     0.101 A 
HETATM   26  N   UNL     1      40.250 -15.929   2.936  1.00  0.00    -0.347 N 
HETATM   27  C   UNL     1      40.445 -16.029   1.607  1.00  0.00     0.007 A 
HETATM   28  H   UNL     1      40.346 -16.768   3.498  1.00  0.00     0.167 HD
HETATM   29  C   UNL     1      40.791 -17.360   1.021  1.00  0.00     0.068 C 
HETATM   30  C   UNL     1      40.323 -14.891   0.815  1.00  0.00     0.025 A 
HETATM   31  C   UNL     1      40.008 -13.681   1.414  1.00  0.00     0.006 A 
HETATM   32  C   UNL     1      39.821 -13.627   2.795  1.00  0.00     0.048 A 
ENDBRANCH  23  25
ENDBRANCH  22  23
ENDBRANCH   1  22
TORSDOF 6
ENDMDL
MODEL 6
REMARK VINA RESULT:      -9.1      3.072      6.151
REMARK  6 active torsions:
REMARK  status: ('A' for Active; 'I' for Inactive)
REMARK    1  A    between atoms: C_5  and  N_6 
REMARK    2  A    between atoms: N_6  and  C_7 
REMARK    3  A    between atoms: C_7  and  C_8 
REMARK    4  A    between atoms: N_10  and  C_12 
REMARK    5  A    between atoms: C_12  and  C_13 
REMARK    6  A    between atoms: C_14  and  C_15 
ROOT
HETATM    1  C   UNL     1      42.279 -14.516   5.323  1.00  0.00     0.031 C 
HETATM    2  C   UNL     1      42.410 -15.823   6.108  1.00  0.00     0.241 C 
HETATM    3  N   UNL     1      43.770 -15.745   6.775  1.00  0.00    -0.067 N 
HETATM    4  H   UNL     1      43.628 -15.800   7.792  1.00  0.00     0.280 HD
HETATM    5  C   UNL     1      44.353 -14.386   6.478  1.00  0.00     0.235 C 
HETATM    6  C   UNL     1      43.136 -13.547   6.129  1.00  0.00     0.035 C 
ENDROOT
BRANCH   3   7
HETATM    7  C   UNL     1      44.714 -16.882   6.456  1.00  0.00     0.277 C 
BRANCH   7   8
HETATM    8  C   UNL     1      44.281 -18.199   6.992  1.00  0.00     0.016 A 
HETATM    9  C   UNL     1      43.893 -19.350   6.227  1.00  0.00     0.102 A 
HETATM   10  N   UNL     1      43.547 -20.355   7.038  1.00  0.00    -0.174 NA
HETATM   11  N   UNL     1      43.764 -19.911   8.277  1.00  0.00    -0.288 N 
HETATM   12  H   UNL     1      43.599 -20.552   9.050  1.00  0.00     0.188 HD
HETATM   13  C   UNL     1      44.189 -18.615   8.310  1.00  0.00     0.120 A 
BRANCH   9  14
HETATM   14  C   UNL     1      43.867 -19.535   4.779  1.00  0.00     0.072 A 
HETATM   15  C   UNL     1      42.893 -18.914   3.993  1.00  0.00     0.132 A 
HETATM   16  F   UNL     1      41.914 -18.198   4.568  1.00  0.00    -0.205 F 
HETATM   17  C   UNL     1      42.890 -19.035   2.602  1.00  0.00     0.043 A 
HETATM   18  C   UNL     1      43.876 -19.792   1.972  1.00  0.00     0.006 A 
HETATM   19  C   UNL     1      44.848 -20.433   2.739  1.00  0.00     0.043 A 
HETATM   20  C   UNL     1      44.838 -20.303   4.130  1.00  0.00     0.132 A 
HETATM   21  F   UNL     1      45.760 -20.977   4.832  1.00  0.00    -0.205 F 
ENDBRANCH   9  14
ENDBRANCH   7   8
ENDBRANCH   3   7
BRANCH   1  22
HETATM   22  C   UNL     1      40.816 -14.086   5.153  1.00  0.00     0.127 C 
BRANCH  22  23
HETATM   23  N   UNL     1      40.098 -14.978   4.246  1.00  0.00    -0.376 N 
HETATM   24  H   UNL     1      39.235 -15.391   4.578  1.00  0.00     0.161 HD
BRANCH  23  25
HETATM   25  C   UNL     1      40.486 -15.158   2.932  1.00  0.00     0.101 A 
HETATM   26  N   UNL     1      40.908 -14.082   2.242  1.00  0.00    -0.347 N 
HETATM   27  C   UNL     1      41.312 -14.114   0.957  1.00  0.00     0.007 A 
HETATM   28  H   UNL     1      40.918 -13.190   2.725  1.00  0.00     0.167 HD
HETATM   29  C   UNL     1      41.753 -12.845   0.302  1.00  0.00     0.068 C 
HETATM   30  C   UNL     1      41.304 -15.326   0.273  1.00  0.00     0.025 A 
HETATM   31  C   UNL     1      40.876 -16.470   0.930  1.00  0.00     0.006 A 
HETATM   32  C   UNL     1      40.463 -16.385   2.258  1.00  0.00     0.048 A 
ENDBRANCH  23  25
ENDBRANCH  22  23
ENDBRANCH   1  22
TORSDOF 6
ENDMDL
MODEL 7
REMARK VINA RESULT:      -9.1      4.037      7.959
REMARK  6 active torsions:
REMARK  status: ('A' for Active; 'I' for Inactive)
REMARK    1  A    between atoms: C_5  and  N_6 
REMARK    2  A    between atoms: N_6  and  C_7 
REMARK    3  A    between atoms: C_7  and  C_8 
REMARK    4  A    between atoms: N_10  and  C_12 
REMARK    5  A    between atoms: C_12  and  C_13 
REMARK    6  A    between atoms: C_14  and  C_15 
ROOT
HETATM    1  C   UNL     1      40.040 -16.099   2.005  1.00  0.00     0.031 C 
HETATM    2  C   UNL     1      40.900 -15.926   3.260  1.00  0.00     0.241 C 
HETATM    3  N   UNL     1      41.942 -17.026   3.175  1.00  0.00    -0.067 N 
HETATM    4  H   UNL     1      42.870 -16.583   3.157  1.00  0.00     0.280 HD
HETATM    5  C   UNL     1      41.759 -17.735   1.856  1.00  0.00     0.235 C 
HETATM    6  C   UNL     1      41.012 -16.719   1.008  1.00  0.00     0.035 C 
ENDROOT
BRANCH   3   7
HETATM    7  C   UNL     1      41.988 -17.968   4.357  1.00  0.00     0.277 C 
BRANCH   7   8
HETATM    8  C   UNL     1      43.233 -17.870   5.163  1.00  0.00     0.016 A 
HETATM    9  C   UNL     1      44.296 -18.833   5.218  1.00  0.00     0.102 A 
HETATM   10  N   UNL     1      45.251 -18.425   6.060  1.00  0.00    -0.174 NA
HETATM   11  N   UNL     1      44.870 -17.219   6.484  1.00  0.00    -0.288 N 
HETATM   12  H   UNL     1      45.493 -16.713   7.110  1.00  0.00     0.188 HD
HETATM   13  C   UNL     1      43.655 -16.842   5.990  1.00  0.00     0.120 A 
BRANCH   9  14
HETATM   14  C   UNL     1      44.447 -20.090   4.493  1.00  0.00     0.072 A 
HETATM   15  C   UNL     1      44.441 -21.314   5.167  1.00  0.00     0.132 A 
HETATM   16  F   UNL     1      44.375 -21.348   6.507  1.00  0.00    -0.205 F 
HETATM   17  C   UNL     1      44.525 -22.527   4.480  1.00  0.00     0.043 A 
HETATM   18  C   UNL     1      44.621 -22.529   3.090  1.00  0.00     0.006 A 
HETATM   19  C   UNL     1      44.645 -21.319   2.399  1.00  0.00     0.043 A 
HETATM   20  C   UNL     1      44.559 -20.113   3.099  1.00  0.00     0.132 A 
HETATM   21  F   UNL     1      44.636 -18.972   2.400  1.00  0.00    -0.205 F 
ENDBRANCH   9  14
ENDBRANCH   7   8
ENDBRANCH   3   7
BRANCH   1  22
HETATM   22  C   UNL     1      39.412 -14.777   1.547  1.00  0.00     0.127 C 
BRANCH  22  23
HETATM   23  N   UNL     1      40.047 -14.274   0.331  1.00  0.00    -0.376 N 
HETATM   24  H   UNL     1      41.055 -14.182   0.331  1.00  0.00     0.161 HD
BRANCH  23  25
HETATM   25  C   UNL     1      39.335 -14.056  -0.832  1.00  0.00     0.101 A 
HETATM   26  N   UNL     1      39.489 -14.930  -1.844  1.00  0.00    -0.347 N 
HETATM   27  C   UNL     1      38.860 -14.835  -3.032  1.00  0.00     0.007 A 
HETATM   28  H   UNL     1      40.124 -15.707  -1.699  1.00  0.00     0.167 HD
HETATM   29  C   UNL     1      39.123 -15.871  -4.078  1.00  0.00     0.068 C 
HETATM   30  C   UNL     1      37.986 -13.775  -3.255  1.00  0.00     0.025 A 
HETATM   31  C   UNL     1      37.788 -12.840  -2.251  1.00  0.00     0.006 A 
HETATM   32  C   UNL     1      38.466 -12.977  -1.041  1.00  0.00     0.048 A 
ENDBRANCH  23  25
ENDBRANCH  22  23
ENDBRANCH   1  22
TORSDOF 6
ENDMDL
MODEL 8
REMARK VINA RESULT:      -9.0      2.026      3.893
REMARK  6 active torsions:
REMARK  status: ('A' for Active; 'I' for Inactive)
REMARK    1  A    between atoms: C_5  and  N_6 
REMARK    2  A    between atoms: N_6  and  C_7 
REMARK    3  A    between atoms: C_7  and  C_8 
REMARK    4  A    between atoms: N_10  and  C_12 
REMARK    5  A    between atoms: C_12  and  C_13 
REMARK    6  A    between atoms: C_14  and  C_15 
ROOT
HETATM    1  C   UNL     1      44.097 -15.744   6.750  1.00  0.00     0.031 C 
HETATM    2  C   UNL     1      42.784 -15.495   6.002  1.00  0.00     0.241 C 
HETATM    3  N   UNL     1      41.888 -16.657   6.385  1.00  0.00    -0.067 N 
HETATM    4  H   UNL     1      41.050 -16.273   6.843  1.00  0.00     0.280 HD
HETATM    5  C   UNL     1      42.618 -17.485   7.413  1.00  0.00     0.235 C 
HETATM    6  C   UNL     1      43.644 -16.520   7.982  1.00  0.00     0.035 C 
ENDROOT
BRANCH   3   7
HETATM    7  C   UNL     1      41.355 -17.473   5.229  1.00  0.00     0.277 C 
BRANCH   7   8
HETATM    8  C   UNL     1      42.381 -17.830   4.214  1.00  0.00     0.016 A 
HETATM    9  C   UNL     1      42.601 -17.179   2.954  1.00  0.00     0.102 A 
HETATM   10  N   UNL     1      43.596 -17.774   2.289  1.00  0.00    -0.174 NA
HETATM   11  N   UNL     1      44.056 -18.726   3.102  1.00  0.00    -0.288 N 
HETATM   12  H   UNL     1      44.855 -19.275   2.792  1.00  0.00     0.188 HD
HETATM   13  C   UNL     1      43.351 -18.816   4.267  1.00  0.00     0.120 A 
BRANCH   9  14
HETATM   14  C   UNL     1      41.931 -16.015   2.382  1.00  0.00     0.072 A 
HETATM   15  C   UNL     1      42.565 -14.770   2.337  1.00  0.00     0.132 A 
HETATM   16  F   UNL     1      43.775 -14.607   2.895  1.00  0.00    -0.205 F 
HETATM   17  C   UNL     1      41.960 -13.663   1.741  1.00  0.00     0.043 A 
HETATM   18  C   UNL     1      40.693 -13.789   1.175  1.00  0.00     0.006 A 
HETATM   19  C   UNL     1      40.036 -15.018   1.222  1.00  0.00     0.043 A 
HETATM   20  C   UNL     1      40.654 -16.117   1.823  1.00  0.00     0.132 A 
HETATM   21  F   UNL     1      39.966 -17.266   1.891  1.00  0.00    -0.205 F 
ENDBRANCH   9  14
ENDBRANCH   7   8
ENDBRANCH   3   7
BRANCH   1  22
HETATM   22  C   UNL     1      44.846 -14.442   7.055  1.00  0.00     0.127 C 
BRANCH  22  23
HETATM   23  N   UNL     1      43.992 -13.481   7.748  1.00  0.00    -0.376 N 
HETATM   24  H   UNL     1      42.999 -13.507   7.552  1.00  0.00     0.161 HD
BRANCH  23  25
HETATM   25  C   UNL     1      44.476 -12.651   8.741  1.00  0.00     0.101 A 
HETATM   26  N   UNL     1      43.771 -12.550   9.883  1.00  0.00    -0.347 N 
HETATM   27  C   UNL     1      44.126 -11.776  10.928  1.00  0.00     0.007 A 
HETATM   28  H   UNL     1      42.917 -13.091   9.957  1.00  0.00     0.167 HD
HETATM   29  C   UNL     1      43.252 -11.748  12.141  1.00  0.00     0.068 C 
HETATM   30  C   UNL     1      45.293 -11.022  10.850  1.00  0.00     0.025 A 
HETATM   31  C   UNL     1      46.060 -11.081   9.696  1.00  0.00     0.006 A 
HETATM   32  C   UNL     1      45.649 -11.892   8.639  1.00  0.00     0.048 A 
ENDBRANCH  23  25
ENDBRANCH  22  23
ENDBRANCH   1  22
TORSDOF 6
ENDMDL
MODEL 9
REMARK VINA RESULT:      -9.0      3.739      7.404
REMARK  6 active torsions:
REMARK  status: ('A' for Active; 'I' for Inactive)
REMARK    1  A    between atoms: C_5  and  N_6 
REMARK    2  A    between atoms: N_6  and  C_7 
REMARK    3  A    between atoms: C_7  and  C_8 
REMARK    4  A    between atoms: N_10  and  C_12 
REMARK    5  A    between atoms: C_12  and  C_13 
REMARK    6  A    between atoms: C_14  and  C_15 
ROOT
HETATM    1  C   UNL     1      40.395 -16.013   1.842  1.00  0.00     0.031 C 
HETATM    2  C   UNL     1      41.303 -15.868   3.067  1.00  0.00     0.241 C 
HETATM    3  N   UNL     1      42.161 -17.118   3.068  1.00  0.00    -0.067 N 
HETATM    4  H   UNL     1      43.145 -16.828   3.001  1.00  0.00     0.280 HD
HETATM    5  C   UNL     1      41.839 -17.902   1.820  1.00  0.00     0.235 C 
HETATM    6  C   UNL     1      41.236 -16.860   0.894  1.00  0.00     0.035 C 
ENDROOT
BRANCH   3   7
HETATM    7  C   UNL     1      42.092 -17.950   4.330  1.00  0.00     0.277 C 
BRANCH   7   8
HETATM    8  C   UNL     1      43.322 -17.893   5.162  1.00  0.00     0.016 A 
HETATM    9  C   UNL     1      44.332 -18.907   5.269  1.00  0.00     0.102 A 
HETATM   10  N   UNL     1      45.288 -18.525   6.122  1.00  0.00    -0.174 NA
HETATM   11  N   UNL     1      44.960 -17.290   6.504  1.00  0.00    -0.288 N 
HETATM   12  H   UNL     1      45.594 -16.799   7.131  1.00  0.00     0.188 HD
HETATM   13  C   UNL     1      43.778 -16.866   5.971  1.00  0.00     0.120 A 
BRANCH   9  14
HETATM   14  C   UNL     1      44.434 -20.190   4.581  1.00  0.00     0.072 A 
HETATM   15  C   UNL     1      44.620 -20.251   3.197  1.00  0.00     0.132 A 
HETATM   16  F   UNL     1      44.629 -19.125   2.465  1.00  0.00    -0.205 F 
HETATM   17  C   UNL     1      44.778 -21.469   2.534  1.00  0.00     0.043 A 
HETATM   18  C   UNL     1      44.748 -22.659   3.258  1.00  0.00     0.006 A 
HETATM   19  C   UNL     1      44.548 -22.622   4.637  1.00  0.00     0.043 A 
HETATM   20  C   UNL     1      44.392 -21.396   5.287  1.00  0.00     0.132 A 
HETATM   21  F   UNL     1      44.151 -21.409   6.606  1.00  0.00    -0.205 F 
ENDBRANCH   9  14
ENDBRANCH   7   8
ENDBRANCH   3   7
BRANCH   1  22
HETATM   22  C   UNL     1      39.965 -14.655   1.275  1.00  0.00     0.127 C 
BRANCH  22  23
HETATM   23  N   UNL     1      39.619 -14.750  -0.141  1.00  0.00    -0.376 N 
HETATM   24  H   UNL     1      38.691 -15.078  -0.377  1.00  0.00     0.161 HD
BRANCH  23  25
HETATM   25  C   UNL     1      40.460 -14.286  -1.135  1.00  0.00     0.101 A 
HETATM   26  N   UNL     1      41.255 -13.237  -0.854  1.00  0.00    -0.347 N 
HETATM   27  C   UNL     1      42.117 -12.683  -1.729  1.00  0.00     0.007 A 
HETATM   28  H   UNL     1      41.195 -12.838   0.076  1.00  0.00     0.167 HD
HETATM   29  C   UNL     1      42.942 -11.513  -1.295  1.00  0.00     0.068 C 
HETATM   30  C   UNL     1      42.215 -13.210  -3.014  1.00  0.00     0.025 A 
HETATM   31  C   UNL     1      41.419 -14.290  -3.363  1.00  0.00     0.006 A 
HETATM   32  C   UNL     1      40.538 -14.826  -2.425  1.00  0.00     0.048 A 
ENDBRANCH  23  25
ENDBRANCH  22  23
ENDBRANCH   1  22
TORSDOF 6
ENDMDL
MODEL 10
REMARK VINA RESULT:      -9.0      3.505      7.966
REMARK  6 active torsions:
REMARK  status: ('A' for Active; 'I' for Inactive)
REMARK    1  A    between atoms: C_5  and  N_6 
REMARK    2  A    between atoms: N_6  and  C_7 
REMARK    3  A    between atoms: C_7  and  C_8 
REMARK    4  A    between atoms: N_10  and  C_12 
REMARK    5  A    between atoms: C_12  and  C_13 
REMARK    6  A    between atoms: C_14  and  C_15 
ROOT
HETATM    1  C   UNL     1      43.413 -18.627   2.221  1.00  0.00     0.031 C 
HETATM    2  C   UNL     1      43.330 -17.890   3.560  1.00  0.00     0.241 C 
HETATM    3  N   UNL     1      43.882 -18.868   4.580  1.00  0.00    -0.067 N 
HETATM    4  H   UNL     1      44.699 -18.431   5.028  1.00  0.00     0.280 HD
HETATM    5  C   UNL     1      44.376 -20.083   3.836  1.00  0.00     0.235 C 
HETATM    6  C   UNL     1      44.595 -19.568   2.423  1.00  0.00     0.035 C 
ENDROOT
BRANCH   3   7
HETATM    7  C   UNL     1      42.952 -19.206   5.724  1.00  0.00     0.277 C 
BRANCH   7   8
HETATM    8  C   UNL     1      43.294 -18.531   7.003  1.00  0.00     0.016 A 
HETATM    9  C   UNL     1      43.065 -17.153   7.333  1.00  0.00     0.102 A 
HETATM   10  N   UNL     1      43.513 -16.887   8.564  1.00  0.00    -0.174 NA
HETATM   11  N   UNL     1      43.952 -18.049   9.049  1.00  0.00    -0.288 N 
HETATM   12  H   UNL     1      44.300 -18.068  10.005  1.00  0.00     0.188 HD
HETATM   13  C   UNL     1      43.860 -19.069   8.147  1.00  0.00     0.120 A 
BRANCH   9  14
HETATM   14  C   UNL     1      42.422 -16.106   6.545  1.00  0.00     0.072 A 
HETATM   15  C   UNL     1      41.046 -16.131   6.303  1.00  0.00     0.132 A 
HETATM   16  F   UNL     1      40.303 -17.165   6.728  1.00  0.00    -0.205 F 
HETATM   17  C   UNL     1      40.408 -15.106   5.602  1.00  0.00     0.043 A 
HETATM   18  C   UNL     1      41.152 -14.029   5.124  1.00  0.00     0.006 A 
HETATM   19  C   UNL     1      42.528 -13.992   5.340  1.00  0.00     0.043 A 
HETATM   20  C   UNL     1      43.153 -15.024   6.044  1.00  0.00     0.132 A 
HETATM   21  F   UNL     1      44.485 -14.974   6.185  1.00  0.00    -0.205 F 
ENDBRANCH   9  14
ENDBRANCH   7   8
ENDBRANCH   3   7
BRANCH   1  22
HETATM   22  C   UNL     1      43.559 -17.663   1.037  1.00  0.00     0.127 C 
BRANCH  22  23
HETATM   23  N   UNL     1      43.153 -16.306   1.398  1.00  0.00    -0.376 N 
HETATM   24  H   UNL     1      43.726 -15.806   2.066  1.00  0.00     0.161 HD
BRANCH  23  25
HETATM   25  C   UNL     1      42.111 -15.659   0.763  1.00  0.00     0.101 A 
HETATM   26  N   UNL     1      41.950 -15.860  -0.558  1.00  0.00    -0.347 N 
HETATM   27  C   UNL     1      40.981 -15.291  -1.300  1.00  0.00     0.007 A 
HETATM   28  H   UNL     1      42.607 -16.479  -1.022  1.00  0.00     0.167 HD
HETATM   29  C   UNL     1      40.914 -15.591  -2.764  1.00  0.00     0.068 C 
HETATM   30  C   UNL     1      40.070 -14.435  -0.687  1.00  0.00     0.025 A 
HETATM   31  C   UNL     1      40.186 -14.186   0.672  1.00  0.00     0.006 A 
HETATM   32  C   UNL     1      41.209 -14.795   1.396  1.00  0.00     0.048 A 
ENDBRANCH  23  25
ENDBRANCH  22  23
ENDBRANCH   1  22
TORSDOF 6
ENDMDL
