MODEL 1
REMARK VINA RESULT:      -8.2      0.000      0.000
REMARK  6 active torsions:
REMARK  status: ('A' for Active; 'I' for Inactive)
REMARK    1  A    between atoms: O_2  and  C_3 
REMARK    2  A    between atoms: C_6  and  C_7 
REMARK    3  A    between atoms: C_7  and  C_8 
REMARK    4  A    between atoms: C_8  and  C_9 
REMARK       I    between atoms: C_9  and  N_10 
REMARK    5  A    between atoms: N_10  and  N_11 
REMARK    6  A    between atoms: C_12  and  C_13 
ROOT
HETATM    1  C   UNL     1      44.823 -13.703   7.350  1.00  0.00     0.237 C 
HETATM    2  N   UNL     1      44.037 -14.826   7.566  1.00  0.00    -0.247 N 
HETATM    3  O   UNL     1      45.878 -13.677   6.722  1.00  0.00    -0.272 OA
HETATM    4  H   UNL     1      43.169 -14.757   8.085  1.00  0.00     0.192 HD
ENDROOT
BRANCH   2   5
HETATM    5  N   UNL     1      44.426 -16.032   7.060  1.00  0.00    -0.184 NA
HETATM    6  C   UNL     1      43.699 -16.504   6.099  1.00  0.00     0.152 C 
BRANCH   6   7
HETATM    7  C   UNL     1      44.042 -17.776   5.499  1.00  0.00     0.011 A 
HETATM    8  C   UNL     1      43.749 -18.219   4.169  1.00  0.00     0.004 A 
HETATM    9  C   UNL     1      44.271 -19.507   4.034  1.00  0.00     0.043 A 
HETATM   10  C   UNL     1      43.085 -17.647   3.062  1.00  0.00     0.014 A 
HETATM   11  C   UNL     1      44.165 -20.250   2.852  1.00  0.00     0.030 A 
HETATM   12  N   UNL     1      44.857 -19.836   5.234  1.00  0.00    -0.364 N 
HETATM   13  C   UNL     1      43.503 -19.660   1.772  1.00  0.00     0.002 A 
HETATM   14  C   UNL     1      42.970 -18.378   1.872  1.00  0.00     0.001 A 
HETATM   15  H   UNL     1      45.318 -20.714   5.430  1.00  0.00     0.165 HD
HETATM   16  C   UNL     1      44.723 -18.805   6.122  1.00  0.00     0.102 A 
ENDBRANCH   6   7
ENDBRANCH   2   5
BRANCH   1  17
HETATM   17  C   UNL     1      44.268 -12.460   8.007  1.00  0.00     0.109 C 
BRANCH  17  18
HETATM   18  C   UNL     1      45.234 -11.947   9.070  1.00  0.00     0.048 C 
BRANCH  18  19
HETATM   19  C   UNL     1      44.520 -11.565  10.341  1.00  0.00    -0.058 A 
HETATM   20  C   UNL     1      44.113 -12.538  11.259  1.00  0.00     0.010 A 
HETATM   21  C   UNL     1      43.451 -12.166  12.431  1.00  0.00     0.037 A 
HETATM   22  C   UNL     1      43.182 -10.823  12.706  1.00  0.00     0.068 A 
HETATM   23  C   UNL     1      43.572  -9.850  11.786  1.00  0.00     0.037 A 
HETATM   24  C   UNL     1      44.236 -10.220  10.611  1.00  0.00     0.010 A 
BRANCH  22  25
HETATM   25  O   UNL     1      42.536 -10.598  13.889  1.00  0.00    -0.356 OA
HETATM   26  C   UNL     1      41.279  -9.934  13.815  1.00  0.00     0.210 C 
ENDBRANCH  22  25
ENDBRANCH  18  19
ENDBRANCH  17  18
ENDBRANCH   1  17
TORSDOF 6
ENDMDL
MODEL 2
REMARK VINA RESULT:      -8.2      7.099     10.713
REMARK  6 active torsions:
REMARK  status: ('A' for Active; 'I' for Inactive)
REMARK    1  A    between atoms: O_2  and  C_3 
REMARK    2  A    between atoms: C_6  and  C_7 
REMARK    3  A    between atoms: C_7  and  C_8 
REMARK    4  A    between atoms: C_8  and  C_9 
REMARK       I    between atoms: C_9  and  N_10 
REMARK    5  A    between atoms: N_10  and  N_11 
REMARK    6  A    between atoms: C_12  and  C_13 
ROOT
HETATM    1  C   UNL     1      41.692 -15.915   0.629  1.00  0.00     0.237 C 
HETATM    2  N   UNL     1      42.787 -15.749   1.464  1.00  0.00    -0.247 N 
HETATM    3  O   UNL     1      41.212 -16.991   0.280  1.00  0.00    -0.272 OA
HETATM    4  H   UNL     1      43.110 -14.823   1.715  1.00  0.00     0.192 HD
ENDROOT
BRANCH   2   5
HETATM    5  N   UNL     1      43.425 -16.846   1.969  1.00  0.00    -0.184 NA
HETATM    6  C   UNL     1      43.163 -17.136   3.202  1.00  0.00     0.152 C 
BRANCH   6   7
HETATM    7  C   UNL     1      43.791 -18.285   3.818  1.00  0.00     0.011 A 
HETATM    8  C   UNL     1      43.914 -19.605   3.275  1.00  0.00     0.004 A 
HETATM    9  C   UNL     1      44.592 -20.381   4.218  1.00  0.00     0.043 A 
HETATM   10  C   UNL     1      43.511 -20.218   2.070  1.00  0.00     0.014 A 
HETATM   11  C   UNL     1      44.888 -21.735   4.016  1.00  0.00     0.030 A 
HETATM   12  N   UNL     1      44.870 -19.567   5.291  1.00  0.00    -0.364 N 
HETATM   13  C   UNL     1      44.476 -22.316   2.814  1.00  0.00     0.002 A 
HETATM   14  C   UNL     1      43.798 -21.572   1.853  1.00  0.00     0.001 A 
HETATM   15  H   UNL     1      45.356 -19.861   6.127  1.00  0.00     0.165 HD
HETATM   16  C   UNL     1      44.391 -18.307   5.062  1.00  0.00     0.102 A 
ENDBRANCH   6   7
ENDBRANCH   2   5
BRANCH   1  17
HETATM   17  C   UNL     1      41.127 -14.604   0.131  1.00  0.00     0.109 C 
BRANCH  17  18
HETATM   18  C   UNL     1      41.438 -14.423  -1.351  1.00  0.00     0.048 C 
BRANCH  18  19
HETATM   19  C   UNL     1      40.220 -14.641  -2.211  1.00  0.00    -0.058 A 
HETATM   20  C   UNL     1      39.045 -13.915  -1.993  1.00  0.00     0.010 A 
HETATM   21  C   UNL     1      37.925 -14.132  -2.799  1.00  0.00     0.037 A 
HETATM   22  C   UNL     1      37.956 -15.073  -3.830  1.00  0.00     0.068 A 
HETATM   23  C   UNL     1      39.121 -15.810  -4.042  1.00  0.00     0.037 A 
HETATM   24  C   UNL     1      40.245 -15.595  -3.237  1.00  0.00     0.010 A 
BRANCH  22  25
HETATM   25  O   UNL     1      36.796 -15.179  -4.546  1.00  0.00    -0.356 OA
HETATM   26  C   UNL     1      36.055 -13.982  -4.745  1.00  0.00     0.210 C 
ENDBRANCH  22  25
ENDBRANCH  18  19
ENDBRANCH  17  18
ENDBRANCH   1  17
TORSDOF 6
ENDMDL
MODEL 3
REMARK VINA RESULT:      -7.9      6.741      9.759
REMARK  6 active torsions:
REMARK  status: ('A' for Active; 'I' for Inactive)
REMARK    1  A    between atoms: O_2  and  C_3 
REMARK    2  A    between atoms: C_6  and  C_7 
REMARK    3  A    between atoms: C_7  and  C_8 
REMARK    4  A    between atoms: C_8  and  C_9 
REMARK       I    between atoms: C_9  and  N_10 
REMARK    5  A    between atoms: N_10  and  N_11 
REMARK    6  A    between atoms: C_12  and  C_13 
ROOT
HETATM    1  C   UNL     1      40.163 -15.428   2.511  1.00  0.00     0.237 C 
HETATM    2  N   UNL     1      41.218 -15.376   3.411  1.00  0.00    -0.247 N 
HETATM    3  O   UNL     1      39.638 -16.451   2.081  1.00  0.00    -0.272 OA
HETATM    4  H   UNL     1      41.583 -14.485   3.728  1.00  0.00     0.192 HD
ENDROOT
BRANCH   2   5
HETATM    5  N   UNL     1      41.755 -16.535   3.892  1.00  0.00    -0.184 NA
HETATM    6  C   UNL     1      43.001 -16.741   3.610  1.00  0.00     0.152 C 
BRANCH   6   7
HETATM    7  C   UNL     1      43.653 -17.944   4.083  1.00  0.00     0.011 A 
HETATM    8  C   UNL     1      43.780 -19.194   3.395  1.00  0.00     0.004 A 
HETATM    9  C   UNL     1      44.483 -20.061   4.234  1.00  0.00     0.043 A 
HETATM   10  C   UNL     1      43.360 -19.675   2.137  1.00  0.00     0.014 A 
HETATM   11  C   UNL     1      44.790 -21.380   3.879  1.00  0.00     0.030 A 
HETATM   12  N   UNL     1      44.773 -19.367   5.386  1.00  0.00    -0.364 N 
HETATM   13  C   UNL     1      44.362 -21.830   2.627  1.00  0.00     0.002 A 
HETATM   14  C   UNL     1      43.658 -20.993   1.767  1.00  0.00     0.001 A 
HETATM   15  H   UNL     1      45.277 -19.745   6.176  1.00  0.00     0.165 HD
HETATM   16  C   UNL     1      44.276 -18.096   5.307  1.00  0.00     0.102 A 
ENDBRANCH   6   7
ENDBRANCH   2   5
BRANCH   1  17
HETATM   17  C   UNL     1      39.711 -14.059   2.053  1.00  0.00     0.109 C 
BRANCH  17  18
HETATM   18  C   UNL     1      40.708 -13.480   1.054  1.00  0.00     0.048 C 
BRANCH  18  19
HETATM   19  C   UNL     1      40.484 -14.017  -0.337  1.00  0.00    -0.058 A 
HETATM   20  C   UNL     1      41.317 -15.006  -0.868  1.00  0.00     0.010 A 
HETATM   21  C   UNL     1      41.097 -15.491  -2.160  1.00  0.00     0.037 A 
HETATM   22  C   UNL     1      40.049 -14.999  -2.940  1.00  0.00     0.068 A 
HETATM   23  C   UNL     1      39.225 -14.001  -2.419  1.00  0.00     0.037 A 
HETATM   24  C   UNL     1      39.442 -13.514  -1.126  1.00  0.00     0.010 A 
BRANCH  22  25
HETATM   25  O   UNL     1      39.941 -15.564  -4.180  1.00  0.00    -0.356 OA
HETATM   26  C   UNL     1      38.707 -16.201  -4.488  1.00  0.00     0.210 C 
ENDBRANCH  22  25
ENDBRANCH  18  19
ENDBRANCH  17  18
ENDBRANCH   1  17
TORSDOF 6
ENDMDL
MODEL 4
REMARK VINA RESULT:      -7.8      1.862      3.106
REMARK  6 active torsions:
REMARK  status: ('A' for Active; 'I' for Inactive)
REMARK    1  A    between atoms: O_2  and  C_3 
REMARK    2  A    between atoms: C_6  and  C_7 
REMARK    3  A    between atoms: C_7  and  C_8 
REMARK    4  A    between atoms: C_8  and  C_9 
REMARK       I    between atoms: C_9  and  N_10 
REMARK    5  A    between atoms: N_10  and  N_11 
REMARK    6  A    between atoms: C_12  and  C_13 
ROOT
HETATM    1  C   UNL     1      44.075 -11.627   9.005  1.00  0.00     0.237 C 
HETATM    2  N   UNL     1      44.592 -12.847   8.593  1.00  0.00    -0.247 N 
HETATM    3  O   UNL     1      43.219 -10.975   8.414  1.00  0.00    -0.272 OA
HETATM    4  H   UNL     1      45.289 -13.328   9.150  1.00  0.00     0.192 HD
ENDROOT
BRANCH   2   5
HETATM    5  N   UNL     1      44.144 -13.415   7.436  1.00  0.00    -0.184 NA
HETATM    6  C   UNL     1      44.279 -14.699   7.345  1.00  0.00     0.152 C 
BRANCH   6   7
HETATM    7  C   UNL     1      43.826 -15.385   6.154  1.00  0.00     0.011 A 
HETATM    8  C   UNL     1      44.055 -16.754   5.798  1.00  0.00     0.004 A 
HETATM    9  C   UNL     1      43.433 -16.972   4.567  1.00  0.00     0.043 A 
HETATM   10  C   UNL     1      44.735 -17.831   6.404  1.00  0.00     0.014 A 
HETATM   11  C   UNL     1      43.454 -18.211   3.914  1.00  0.00     0.030 A 
HETATM   12  N   UNL     1      42.849 -15.785   4.189  1.00  0.00    -0.364 N 
HETATM   13  C   UNL     1      44.136 -19.260   4.537  1.00  0.00     0.002 A 
HETATM   14  C   UNL     1      44.768 -19.076   5.763  1.00  0.00     0.001 A 
HETATM   15  H   UNL     1      42.327 -15.646   3.335  1.00  0.00     0.165 HD
HETATM   16  C   UNL     1      43.082 -14.825   5.133  1.00  0.00     0.102 A 
ENDBRANCH   6   7
ENDBRANCH   2   5
BRANCH   1  17
HETATM   17  C   UNL     1      44.704 -11.123  10.285  1.00  0.00     0.109 C 
BRANCH  17  18
HETATM   18  C   UNL     1      44.144 -11.880  11.484  1.00  0.00     0.048 C 
BRANCH  18  19
HETATM   19  C   UNL     1      43.256 -11.007  12.333  1.00  0.00    -0.058 A 
HETATM   20  C   UNL     1      43.715  -9.785  12.835  1.00  0.00     0.010 A 
HETATM   21  C   UNL     1      42.879  -8.989  13.622  1.00  0.00     0.037 A 
HETATM   22  C   UNL     1      41.578  -9.397  13.922  1.00  0.00     0.068 A 
HETATM   23  C   UNL     1      41.121 -10.622  13.437  1.00  0.00     0.037 A 
HETATM   24  C   UNL     1      41.955 -11.421  12.648  1.00  0.00     0.010 A 
BRANCH  22  25
HETATM   25  O   UNL     1      40.866  -8.522  14.694  1.00  0.00    -0.356 OA
HETATM   26  C   UNL     1      39.856  -7.765  14.038  1.00  0.00     0.210 C 
ENDBRANCH  22  25
ENDBRANCH  18  19
ENDBRANCH  17  18
ENDBRANCH   1  17
TORSDOF 6
ENDMDL
MODEL 5
REMARK VINA RESULT:      -7.7      6.585     11.076
REMARK  6 active torsions:
REMARK  status: ('A' for Active; 'I' for Inactive)
REMARK    1  A    between atoms: O_2  and  C_3 
REMARK    2  A    between atoms: C_6  and  C_7 
REMARK    3  A    between atoms: C_7  and  C_8 
REMARK    4  A    between atoms: C_8  and  C_9 
REMARK       I    between atoms: C_9  and  N_10 
REMARK    5  A    between atoms: N_10  and  N_11 
REMARK    6  A    between atoms: C_12  and  C_13 
ROOT
HETATM    1  C   UNL     1      41.400 -15.486   0.502  1.00  0.00     0.237 C 
HETATM    2  N   UNL     1      42.387 -16.445   0.323  1.00  0.00    -0.247 N 
HETATM    3  O   UNL     1      40.617 -15.430   1.447  1.00  0.00    -0.272 OA
HETATM    4  H   UNL     1      43.003 -16.409  -0.481  1.00  0.00     0.192 HD
ENDROOT
BRANCH   2   5
HETATM    5  N   UNL     1      42.544 -17.435   1.250  1.00  0.00    -0.184 NA
HETATM    6  C   UNL     1      43.751 -17.870   1.415  1.00  0.00     0.152 C 
BRANCH   6   7
HETATM    7  C   UNL     1      44.009 -18.916   2.381  1.00  0.00     0.011 A 
HETATM    8  C   UNL     1      44.017 -18.801   3.809  1.00  0.00     0.004 A 
HETATM    9  C   UNL     1      44.313 -20.064   4.327  1.00  0.00     0.043 A 
HETATM   10  C   UNL     1      43.803 -17.740   4.715  1.00  0.00     0.014 A 
HETATM   11  C   UNL     1      44.403 -20.320   5.701  1.00  0.00     0.030 A 
HETATM   12  N   UNL     1      44.479 -20.913   3.258  1.00  0.00    -0.364 N 
HETATM   13  C   UNL     1      44.187 -19.251   6.575  1.00  0.00     0.002 A 
HETATM   14  C   UNL     1      43.891 -17.979   6.093  1.00  0.00     0.001 A 
HETATM   15  H   UNL     1      44.703 -21.896   3.332  1.00  0.00     0.165 HD
HETATM   16  C   UNL     1      44.302 -20.234   2.085  1.00  0.00     0.102 A 
ENDBRANCH   6   7
ENDBRANCH   2   5
BRANCH   1  17
HETATM   17  C   UNL     1      41.338 -14.486  -0.631  1.00  0.00     0.109 C 
BRANCH  17  18
HETATM   18  C   UNL     1      41.348 -15.207  -1.974  1.00  0.00     0.048 C 
BRANCH  18  19
HETATM   19  C   UNL     1      40.010 -15.128  -2.663  1.00  0.00    -0.058 A 
HETATM   20  C   UNL     1      39.040 -14.209  -2.249  1.00  0.00     0.010 A 
HETATM   21  C   UNL     1      37.804 -14.151  -2.898  1.00  0.00     0.037 A 
HETATM   22  C   UNL     1      37.515 -15.004  -3.965  1.00  0.00     0.068 A 
HETATM   23  C   UNL     1      38.474 -15.932  -4.372  1.00  0.00     0.037 A 
HETATM   24  C   UNL     1      39.713 -15.993  -3.724  1.00  0.00     0.010 A 
BRANCH  22  25
HETATM   25  O   UNL     1      36.275 -14.837  -4.514  1.00  0.00    -0.356 OA
HETATM   26  C   UNL     1      35.866 -13.500  -4.777  1.00  0.00     0.210 C 
ENDBRANCH  22  25
ENDBRANCH  18  19
ENDBRANCH  17  18
ENDBRANCH   1  17
TORSDOF 6
ENDMDL
MODEL 6
REMARK VINA RESULT:      -7.5      7.105      9.241
REMARK  6 active torsions:
REMARK  status: ('A' for Active; 'I' for Inactive)
REMARK    1  A    between atoms: O_2  and  C_3 
REMARK    2  A    between atoms: C_6  and  C_7 
REMARK    3  A    between atoms: C_7  and  C_8 
REMARK    4  A    between atoms: C_8  and  C_9 
REMARK       I    between atoms: C_9  and  N_10 
REMARK    5  A    between atoms: N_10  and  N_11 
REMARK    6  A    between atoms: C_12  and  C_13 
ROOT
HETATM    1  C   UNL     1      41.364 -15.848   0.779  1.00  0.00     0.237 C 
HETATM    2  N   UNL     1      41.742 -15.802   2.113  1.00  0.00    -0.247 N 
HETATM    3  O   UNL     1      41.345 -16.854   0.073  1.00  0.00    -0.272 OA
HETATM    4  H   UNL     1      41.714 -14.930   2.628  1.00  0.00     0.192 HD
ENDROOT
BRANCH   2   5
HETATM    5  N   UNL     1      42.136 -16.946   2.744  1.00  0.00    -0.184 NA
HETATM    6  C   UNL     1      43.394 -17.027   3.038  1.00  0.00     0.152 C 
BRANCH   6   7
HETATM    7  C   UNL     1      43.898 -18.203   3.713  1.00  0.00     0.011 A 
HETATM    8  C   UNL     1      43.988 -19.535   3.192  1.00  0.00     0.004 A 
HETATM    9  C   UNL     1      44.536 -20.338   4.194  1.00  0.00     0.043 A 
HETATM   10  C   UNL     1      43.651 -20.138   1.961  1.00  0.00     0.014 A 
HETATM   11  C   UNL     1      44.766 -21.709   4.028  1.00  0.00     0.030 A 
HETATM   12  N   UNL     1      44.770 -19.529   5.281  1.00  0.00    -0.364 N 
HETATM   13  C   UNL     1      44.424 -22.280   2.799  1.00  0.00     0.002 A 
HETATM   14  C   UNL     1      43.874 -21.509   1.779  1.00  0.00     0.001 A 
HETATM   15  H   UNL     1      45.165 -19.841   6.158  1.00  0.00     0.165 HD
HETATM   16  C   UNL     1      44.388 -18.246   5.004  1.00  0.00     0.102 A 
ENDBRANCH   6   7
ENDBRANCH   2   5
BRANCH   1  17
HETATM   17  C   UNL     1      40.990 -14.491   0.225  1.00  0.00     0.109 C 
BRANCH  17  18
HETATM   18  C   UNL     1      41.453 -14.366  -1.223  1.00  0.00     0.048 C 
BRANCH  18  19
HETATM   19  C   UNL     1      41.961 -12.981  -1.531  1.00  0.00    -0.058 A 
HETATM   20  C   UNL     1      42.345 -12.110  -0.507  1.00  0.00     0.010 A 
HETATM   21  C   UNL     1      42.812 -10.829  -0.811  1.00  0.00     0.037 A 
HETATM   22  C   UNL     1      42.903 -10.396  -2.135  1.00  0.00     0.068 A 
HETATM   23  C   UNL     1      42.507 -11.255  -3.159  1.00  0.00     0.037 A 
HETATM   24  C   UNL     1      42.040 -12.539  -2.859  1.00  0.00     0.010 A 
BRANCH  22  25
HETATM   25  O   UNL     1      43.383  -9.125  -2.292  1.00  0.00    -0.356 OA
HETATM   26  C   UNL     1      43.760  -8.433  -1.108  1.00  0.00     0.210 C 
ENDBRANCH  22  25
ENDBRANCH  18  19
ENDBRANCH  17  18
ENDBRANCH   1  17
TORSDOF 6
ENDMDL
MODEL 7
REMARK VINA RESULT:      -7.4      7.747     10.897
REMARK  6 active torsions:
REMARK  status: ('A' for Active; 'I' for Inactive)
REMARK    1  A    between atoms: O_2  and  C_3 
REMARK    2  A    between atoms: C_6  and  C_7 
REMARK    3  A    between atoms: C_7  and  C_8 
REMARK    4  A    between atoms: C_8  and  C_9 
REMARK       I    between atoms: C_9  and  N_10 
REMARK    5  A    between atoms: N_10  and  N_11 
REMARK    6  A    between atoms: C_12  and  C_13 
ROOT
HETATM    1  C   UNL     1      40.493 -15.992   1.342  1.00  0.00     0.237 C 
HETATM    2  N   UNL     1      41.295 -15.618   0.273  1.00  0.00    -0.247 N 
HETATM    3  O   UNL     1      39.474 -15.414   1.710  1.00  0.00    -0.272 OA
HETATM    4  H   UNL     1      42.114 -16.162   0.026  1.00  0.00     0.192 HD
ENDROOT
BRANCH   2   5
HETATM    5  N   UNL     1      40.968 -14.519  -0.466  1.00  0.00    -0.184 NA
HETATM    6  C   UNL     1      41.338 -14.539  -1.706  1.00  0.00     0.152 C 
BRANCH   6   7
HETATM    7  C   UNL     1      41.028 -13.415  -2.564  1.00  0.00     0.011 A 
HETATM    8  C   UNL     1      41.685 -12.143  -2.605  1.00  0.00     0.004 A 
HETATM    9  C   UNL     1      41.049 -11.377  -3.584  1.00  0.00     0.043 A 
HETATM   10  C   UNL     1      42.761 -11.564  -1.899  1.00  0.00     0.014 A 
HETATM   11  C   UNL     1      41.435 -10.067  -3.894  1.00  0.00     0.030 A 
HETATM   12  N   UNL     1      40.045 -12.152  -4.118  1.00  0.00    -0.364 N 
HETATM   13  C   UNL     1      42.503  -9.520  -3.179  1.00  0.00     0.002 A 
HETATM   14  C   UNL     1      43.159 -10.254  -2.196  1.00  0.00     0.001 A 
HETATM   15  H   UNL     1      39.416 -11.855  -4.852  1.00  0.00     0.165 HD
HETATM   16  C   UNL     1      40.022 -13.376  -3.511  1.00  0.00     0.102 A 
ENDBRANCH   6   7
ENDBRANCH   2   5
BRANCH   1  17
HETATM   17  C   UNL     1      41.016 -17.207   2.074  1.00  0.00     0.109 C 
BRANCH  17  18
HETATM   18  C   UNL     1      42.272 -17.738   1.390  1.00  0.00     0.048 C 
BRANCH  18  19
HETATM   19  C   UNL     1      43.084 -18.614   2.309  1.00  0.00    -0.058 A 
HETATM   20  C   UNL     1      43.566 -19.855   1.881  1.00  0.00     0.010 A 
HETATM   21  C   UNL     1      44.316 -20.654   2.746  1.00  0.00     0.037 A 
HETATM   22  C   UNL     1      44.597 -20.233   4.048  1.00  0.00     0.068 A 
HETATM   23  C   UNL     1      44.106 -19.003   4.484  1.00  0.00     0.037 A 
HETATM   24  C   UNL     1      43.355 -18.199   3.619  1.00  0.00     0.010 A 
BRANCH  22  25
HETATM   25  O   UNL     1      45.346 -21.107   4.785  1.00  0.00    -0.356 OA
HETATM   26  C   UNL     1      44.845 -22.433   4.909  1.00  0.00     0.210 C 
ENDBRANCH  22  25
ENDBRANCH  18  19
ENDBRANCH  17  18
ENDBRANCH   1  17
TORSDOF 6
ENDMDL
MODEL 8
REMARK VINA RESULT:      -7.3      5.530      8.160
REMARK  6 active torsions:
REMARK  status: ('A' for Active; 'I' for Inactive)
REMARK    1  A    between atoms: O_2  and  C_3 
REMARK    2  A    between atoms: C_6  and  C_7 
REMARK    3  A    between atoms: C_7  and  C_8 
REMARK    4  A    between atoms: C_8  and  C_9 
REMARK       I    between atoms: C_9  and  N_10 
REMARK    5  A    between atoms: N_10  and  N_11 
REMARK    6  A    between atoms: C_12  and  C_13 
ROOT
HETATM    1  C   UNL     1      43.014 -13.709   3.841  1.00  0.00     0.237 C 
HETATM    2  N   UNL     1      42.456 -14.893   4.301  1.00  0.00    -0.247 N 
HETATM    3  O   UNL     1      44.164 -13.569   3.435  1.00  0.00    -0.272 OA
HETATM    4  H   UNL     1      41.489 -14.925   4.604  1.00  0.00     0.192 HD
ENDROOT
BRANCH   2   5
HETATM    5  N   UNL     1      43.209 -16.031   4.326  1.00  0.00    -0.184 NA
HETATM    6  C   UNL     1      42.681 -17.047   4.929  1.00  0.00     0.152 C 
BRANCH   6   7
HETATM    7  C   UNL     1      43.409 -18.296   5.000  1.00  0.00     0.011 A 
HETATM    8  C   UNL     1      43.629 -19.236   3.942  1.00  0.00     0.004 A 
HETATM    9  C   UNL     1      44.381 -20.288   4.470  1.00  0.00     0.043 A 
HETATM   10  C   UNL     1      43.258 -19.297   2.582  1.00  0.00     0.014 A 
HETATM   11  C   UNL     1      44.781 -21.393   3.709  1.00  0.00     0.030 A 
HETATM   12  N   UNL     1      44.609 -20.000   5.796  1.00  0.00    -0.364 N 
HETATM   13  C   UNL     1      44.400 -21.427   2.365  1.00  0.00     0.002 A 
HETATM   14  C   UNL     1      43.650 -20.397   1.807  1.00  0.00     0.001 A 
HETATM   15  H   UNL     1      45.129 -20.588   6.433  1.00  0.00     0.165 HD
HETATM   16  C   UNL     1      44.027 -18.807   6.125  1.00  0.00     0.102 A 
ENDBRANCH   6   7
ENDBRANCH   2   5
BRANCH   1  17
HETATM   17  C   UNL     1      42.057 -12.540   3.912  1.00  0.00     0.109 C 
BRANCH  17  18
HETATM   18  C   UNL     1      40.854 -12.784   3.007  1.00  0.00     0.048 C 
BRANCH  18  19
HETATM   19  C   UNL     1      41.258 -12.926   1.562  1.00  0.00    -0.058 A 
HETATM   20  C   UNL     1      41.886 -11.876   0.884  1.00  0.00     0.010 A 
HETATM   21  C   UNL     1      42.252 -12.023  -0.456  1.00  0.00     0.037 A 
HETATM   22  C   UNL     1      41.999 -13.214  -1.140  1.00  0.00     0.068 A 
HETATM   23  C   UNL     1      41.359 -14.258  -0.472  1.00  0.00     0.037 A 
HETATM   24  C   UNL     1      40.992 -14.114   0.870  1.00  0.00     0.010 A 
BRANCH  22  25
HETATM   25  O   UNL     1      42.415 -13.227  -2.442  1.00  0.00    -0.356 OA
HETATM   26  C   UNL     1      41.427 -13.506  -3.426  1.00  0.00     0.210 C 
ENDBRANCH  22  25
ENDBRANCH  18  19
ENDBRANCH  17  18
ENDBRANCH   1  17
TORSDOF 6
ENDMDL
MODEL 9
REMARK VINA RESULT:      -7.3      2.877      3.180
REMARK  6 active torsions:
REMARK  status: ('A' for Active; 'I' for Inactive)
REMARK    1  A    between atoms: O_2  and  C_3 
REMARK    2  A    between atoms: C_6  and  C_7 
REMARK    3  A    between atoms: C_7  and  C_8 
REMARK    4  A    between atoms: C_8  and  C_9 
REMARK       I    between atoms: C_9  and  N_10 
REMARK    5  A    between atoms: N_10  and  N_11 
REMARK    6  A    between atoms: C_12  and  C_13 
ROOT
HETATM    1  C   UNL     1      41.213 -13.667   5.664  1.00  0.00     0.237 C 
HETATM    2  N   UNL     1      40.927 -14.923   6.179  1.00  0.00    -0.247 N 
HETATM    3  O   UNL     1      42.306 -13.297   5.243  1.00  0.00    -0.272 OA
HETATM    4  H   UNL     1      39.991 -15.152   6.492  1.00  0.00     0.192 HD
ENDROOT
BRANCH   2   5
HETATM    5  N   UNL     1      41.910 -15.867   6.246  1.00  0.00    -0.184 NA
HETATM    6  C   UNL     1      41.859 -16.802   5.354  1.00  0.00     0.152 C 
BRANCH   6   7
HETATM    7  C   UNL     1      42.865 -17.843   5.347  1.00  0.00     0.011 A 
HETATM    8  C   UNL     1      43.266 -18.660   4.241  1.00  0.00     0.004 A 
HETATM    9  C   UNL     1      44.264 -19.522   4.701  1.00  0.00     0.043 A 
HETATM   10  C   UNL     1      42.872 -18.754   2.889  1.00  0.00     0.014 A 
HETATM   11  C   UNL     1      44.889 -20.467   3.879  1.00  0.00     0.030 A 
HETATM   12  N   UNL     1      44.463 -19.241   6.032  1.00  0.00    -0.364 N 
HETATM   13  C   UNL     1      44.479 -20.538   2.544  1.00  0.00     0.002 A 
HETATM   14  C   UNL     1      43.486 -19.696   2.054  1.00  0.00     0.001 A 
HETATM   15  H   UNL     1      45.131 -19.712   6.628  1.00  0.00     0.165 HD
HETATM   16  C   UNL     1      43.626 -18.236   6.431  1.00  0.00     0.102 A 
ENDBRANCH   6   7
ENDBRANCH   2   5
BRANCH   1  17
HETATM   17  C   UNL     1      40.025 -12.732   5.695  1.00  0.00     0.109 C 
BRANCH  17  18
HETATM   18  C   UNL     1      40.480 -11.307   5.990  1.00  0.00     0.048 C 
BRANCH  18  19
HETATM   19  C   UNL     1      40.661 -11.069   7.467  1.00  0.00    -0.058 A 
HETATM   20  C   UNL     1      39.590 -11.207   8.355  1.00  0.00     0.010 A 
HETATM   21  C   UNL     1      39.775 -10.981   9.721  1.00  0.00     0.037 A 
HETATM   22  C   UNL     1      41.026 -10.615  10.223  1.00  0.00     0.068 A 
HETATM   23  C   UNL     1      42.094 -10.462   9.339  1.00  0.00     0.037 A 
HETATM   24  C   UNL     1      41.912 -10.688   7.971  1.00  0.00     0.010 A 
BRANCH  22  25
HETATM   25  O   UNL     1      41.070 -10.433  11.577  1.00  0.00    -0.356 OA
HETATM   26  C   UNL     1      40.433 -11.422  12.377  1.00  0.00     0.210 C 
ENDBRANCH  22  25
ENDBRANCH  18  19
ENDBRANCH  17  18
ENDBRANCH   1  17
TORSDOF 6
ENDMDL
MODEL 10
REMARK VINA RESULT:      -7.1      6.426      9.989
REMARK  6 active torsions:
REMARK  status: ('A' for Active; 'I' for Inactive)
REMARK    1  A    between atoms: O_2  and  C_3 
REMARK    2  A    between atoms: C_6  and  C_7 
REMARK    3  A    between atoms: C_7  and  C_8 
REMARK    4  A    between atoms: C_8  and  C_9 
REMARK       I    between atoms: C_9  and  N_10 
REMARK    5  A    between atoms: N_10  and  N_11 
REMARK    6  A    between atoms: C_12  and  C_13 
ROOT
HETATM    1  C   UNL     1      41.581 -16.930   0.956  1.00  0.00     0.237 C 
HETATM    2  N   UNL     1      41.961 -16.485  -0.303  1.00  0.00    -0.247 N 
HETATM    3  O   UNL     1      40.712 -16.426   1.662  1.00  0.00    -0.272 OA
HETATM    4  H   UNL     1      42.680 -16.970  -0.827  1.00  0.00     0.192 HD
ENDROOT
BRANCH   2   5
HETATM    5  N   UNL     1      41.346 -15.396  -0.850  1.00  0.00    -0.184 NA
HETATM    6  C   UNL     1      40.964 -15.519  -2.080  1.00  0.00     0.152 C 
BRANCH   6   7
HETATM    7  C   UNL     1      40.299 -14.415  -2.737  1.00  0.00     0.011 A 
HETATM    8  C   UNL     1      40.883 -13.182  -3.174  1.00  0.00     0.004 A 
HETATM    9  C   UNL     1      39.865 -12.422  -3.753  1.00  0.00     0.043 A 
HETATM   10  C   UNL     1      42.183 -12.635  -3.129  1.00  0.00     0.014 A 
HETATM   11  C   UNL     1      40.081 -11.147  -4.291  1.00  0.00     0.030 A 
HETATM   12  N   UNL     1      38.708 -13.161  -3.673  1.00  0.00    -0.364 N 
HETATM   13  C   UNL     1      41.379 -10.630  -4.233  1.00  0.00     0.002 A 
HETATM   14  C   UNL     1      42.416 -11.361  -3.662  1.00  0.00     0.001 A 
HETATM   15  H   UNL     1      37.806 -12.860  -4.014  1.00  0.00     0.165 HD
HETATM   16  C   UNL     1      38.957 -14.359  -3.062  1.00  0.00     0.102 A 
ENDBRANCH   6   7
ENDBRANCH   2   5
BRANCH   1  17
HETATM   17  C   UNL     1      42.385 -18.121   1.427  1.00  0.00     0.109 C 
BRANCH  17  18
HETATM   18  C   UNL     1      43.649 -17.657   2.143  1.00  0.00     0.048 C 
BRANCH  18  19
HETATM   19  C   UNL     1      43.731 -18.200   3.546  1.00  0.00    -0.058 A 
HETATM   20  C   UNL     1      43.280 -17.449   4.636  1.00  0.00     0.010 A 
HETATM   21  C   UNL     1      43.364 -17.967   5.931  1.00  0.00     0.037 A 
HETATM   22  C   UNL     1      43.899 -19.236   6.160  1.00  0.00     0.068 A 
HETATM   23  C   UNL     1      44.364 -19.983   5.078  1.00  0.00     0.037 A 
HETATM   24  C   UNL     1      44.280 -19.468   3.780  1.00  0.00     0.010 A 
BRANCH  22  25
HETATM   25  O   UNL     1      43.916 -19.623   7.471  1.00  0.00    -0.356 OA
HETATM   26  C   UNL     1      44.193 -18.613   8.433  1.00  0.00     0.210 C 
ENDBRANCH  22  25
ENDBRANCH  18  19
ENDBRANCH  17  18
ENDBRANCH   1  17
TORSDOF 6
ENDMDL
