MODEL 1
REMARK VINA RESULT:      -8.6      0.000      0.000
REMARK  8 active torsions:
REMARK  status: ('A' for Active; 'I' for Inactive)
REMARK    1  A    between atoms: C_2  and  C_3 
REMARK    2  A    between atoms: C_3  and  C_4 
REMARK       I    between atoms: C_4  and  N_5 
REMARK    3  A    between atoms: N_8  and  C_9 
REMARK    4  A    between atoms: C_12  and  N_13 
REMARK    5  A    between atoms: N_13  and  C_14 
REMARK    6  A    between atoms: C_14  and  N_15 
REMARK       I    between atoms: N_15  and  C_16 
REMARK    7  A    between atoms: C_16  and  C_17 
REMARK    8  A    between atoms: C_18  and  O_19 
ROOT
HETATM    1  C   UNL     1      40.934 -12.360   6.368  1.00  0.00     0.030 A 
HETATM    2  C   UNL     1      39.665 -12.255   6.955  1.00  0.00     0.031 A 
HETATM    3  C   UNL     1      39.416 -11.406   8.040  1.00  0.00     0.032 A 
HETATM    4  C   UNL     1      40.437 -10.629   8.579  1.00  0.00     0.034 A 
HETATM    5  C   UNL     1      41.687 -10.649   7.968  1.00  0.00     0.032 A 
HETATM    6  C   UNL     1      41.932 -11.521   6.894  1.00  0.00     0.031 A 
ENDROOT
BRANCH   4   7
HETATM    7  N   UNL     1      40.223  -9.784   9.691  1.00  0.00    -0.333 N 
HETATM    8  H   UNL     1      40.955  -9.111   9.880  1.00  0.00     0.168 HD
BRANCH   7   9
HETATM    9  C   UNL     1      39.327 -10.016  10.738  1.00  0.00     0.179 C 
HETATM   10  S   UNL     1      38.095  -8.969  11.182  1.00  0.00    -0.040 SA
BRANCH   9  11
HETATM   11  N   UNL     1      39.595 -11.260  11.335  1.00  0.00    -0.299 N 
HETATM   12  C   UNL     1      40.240 -11.642  12.513  1.00  0.00     0.260 C 
HETATM   13  O   UNL     1      39.954 -12.707  13.053  1.00  0.00    -0.267 OA
HETATM   14  H   UNL     1      39.037 -12.024  10.983  1.00  0.00     0.171 HD
BRANCH  12  15
HETATM   15  C   UNL     1      41.341 -10.803  13.034  1.00  0.00     0.067 A 
HETATM   16  C   UNL     1      42.518 -10.615  12.295  1.00  0.00     0.084 A 
HETATM   17  C   UNL     1      43.546  -9.835  12.840  1.00  0.00     0.039 A 
HETATM   18  C   UNL     1      43.381  -9.220  14.085  1.00  0.00     0.026 A 
HETATM   19  C   UNL     1      42.189  -9.382  14.790  1.00  0.00     0.035 A 
HETATM   20 CL   UNL     1      41.992  -8.624  16.321  1.00  0.00    -0.084 Cl
HETATM   21  C   UNL     1      41.163 -10.163  14.270  1.00  0.00     0.043 A 
BRANCH  16  22
HETATM   22  O   UNL     1      42.656 -11.285  11.110  1.00  0.00    -0.355 OA
HETATM   23  C   UNL     1      43.890 -11.983  10.969  1.00  0.00     0.210 C 
ENDBRANCH  16  22
ENDBRANCH  12  15
ENDBRANCH   9  11
ENDBRANCH   7   9
ENDBRANCH   4   7
BRANCH   1  24
HETATM   24  N   UNL     1      41.232 -13.301   5.376  1.00  0.00    -0.378 N 
HETATM   25  C   UNL     1      42.644 -13.439   4.962  1.00  0.00     0.143 C 
HETATM   26  C   UNL     1      42.874 -14.796   4.263  1.00  0.00     0.145 C 
HETATM   27  N   UNL     1      41.908 -15.079   3.192  1.00  0.00    -0.349 N 
HETATM   28  C   UNL     1      42.122 -16.025   2.192  1.00  0.00     0.219 C 
HETATM   29  C   UNL     1      40.509 -14.800   3.531  1.00  0.00     0.145 C 
HETATM   30  O   UNL     1      41.211 -16.412   1.459  1.00  0.00    -0.273 OA
HETATM   31  C   UNL     1      40.296 -13.456   4.242  1.00  0.00     0.143 C 
BRANCH  28  32
HETATM   32  C   UNL     1      43.538 -16.558   2.038  1.00  0.00     0.103 C 
BRANCH  32  33
HETATM   33  C   UNL     1      43.600 -17.744   1.074  1.00  0.00     0.005 C 
HETATM   34  C   UNL     1      43.580 -19.071   1.814  1.00  0.00     0.005 C 
ENDBRANCH  32  33
ENDBRANCH  28  32
ENDBRANCH   1  24
TORSDOF 8
ENDMDL
MODEL 2
REMARK VINA RESULT:      -8.1      6.293      8.629
REMARK  8 active torsions:
REMARK  status: ('A' for Active; 'I' for Inactive)
REMARK    1  A    between atoms: C_2  and  C_3 
REMARK    2  A    between atoms: C_3  and  C_4 
REMARK       I    between atoms: C_4  and  N_5 
REMARK    3  A    between atoms: N_8  and  C_9 
REMARK    4  A    between atoms: C_12  and  N_13 
REMARK    5  A    between atoms: N_13  and  C_14 
REMARK    6  A    between atoms: C_14  and  N_15 
REMARK       I    between atoms: N_15  and  C_16 
REMARK    7  A    between atoms: C_16  and  C_17 
REMARK    8  A    between atoms: C_18  and  O_19 
ROOT
HETATM    1  C   UNL     1      41.216 -13.542   1.945  1.00  0.00     0.030 A 
HETATM    2  C   UNL     1      40.332 -13.321   3.011  1.00  0.00     0.031 A 
HETATM    3  C   UNL     1      40.766 -13.290   4.342  1.00  0.00     0.032 A 
HETATM    4  C   UNL     1      42.109 -13.483   4.653  1.00  0.00     0.034 A 
HETATM    5  C   UNL     1      43.022 -13.623   3.613  1.00  0.00     0.032 A 
HETATM    6  C   UNL     1      42.573 -13.675   2.283  1.00  0.00     0.031 A 
ENDROOT
BRANCH   4   7
HETATM    7  N   UNL     1      42.572 -13.485   5.987  1.00  0.00    -0.333 N 
HETATM    8  H   UNL     1      42.480 -12.610   6.487  1.00  0.00     0.168 HD
BRANCH   7   9
HETATM    9  C   UNL     1      43.449 -14.416   6.551  1.00  0.00     0.179 C 
HETATM   10  S   UNL     1      45.113 -14.230   6.621  1.00  0.00    -0.040 SA
BRANCH   9  11
HETATM   11  N   UNL     1      42.727 -15.504   7.072  1.00  0.00    -0.299 N 
HETATM   12  C   UNL     1      42.524 -16.816   6.643  1.00  0.00     0.260 C 
HETATM   13  O   UNL     1      42.263 -17.696   7.458  1.00  0.00    -0.267 OA
HETATM   14  H   UNL     1      42.483 -15.417   8.048  1.00  0.00     0.171 HD
BRANCH  12  15
HETATM   15  C   UNL     1      42.518 -17.106   5.193  1.00  0.00     0.067 A 
HETATM   16  C   UNL     1      43.652 -17.631   4.555  1.00  0.00     0.084 A 
HETATM   17  C   UNL     1      43.610 -17.863   3.176  1.00  0.00     0.039 A 
HETATM   18  C   UNL     1      42.439 -17.614   2.453  1.00  0.00     0.026 A 
HETATM   19  C   UNL     1      41.306 -17.132   3.106  1.00  0.00     0.035 A 
HETATM   20 CL   UNL     1      39.869 -16.826   2.212  1.00  0.00    -0.084 Cl
HETATM   21  C   UNL     1      41.333 -16.883   4.474  1.00  0.00     0.043 A 
BRANCH  16  22
HETATM   22  O   UNL     1      44.791 -17.801   5.294  1.00  0.00    -0.355 OA
HETATM   23  C   UNL     1      45.126 -19.162   5.552  1.00  0.00     0.210 C 
ENDBRANCH  16  22
ENDBRANCH  12  15
ENDBRANCH   9  11
ENDBRANCH   7   9
ENDBRANCH   4   7
BRANCH   1  24
HETATM   24  N   UNL     1      40.780 -13.711   0.626  1.00  0.00    -0.378 N 
HETATM   25  C   UNL     1      39.349 -13.481   0.340  1.00  0.00     0.143 C 
HETATM   26  C   UNL     1      39.131 -13.225  -1.167  1.00  0.00     0.145 C 
HETATM   27  N   UNL     1      39.757 -14.235  -2.032  1.00  0.00    -0.349 N 
HETATM   28  C   UNL     1      39.399 -14.437  -3.363  1.00  0.00     0.219 C 
HETATM   29  C   UNL     1      41.131 -14.594  -1.669  1.00  0.00     0.145 C 
HETATM   30  O   UNL     1      40.092 -15.111  -4.127  1.00  0.00    -0.273 OA
HETATM   31  C   UNL     1      41.339 -14.828  -0.167  1.00  0.00     0.143 C 
BRANCH  28  32
HETATM   32  C   UNL     1      38.104 -13.793  -3.835  1.00  0.00     0.103 C 
BRANCH  32  33
HETATM   33  C   UNL     1      36.962 -14.807  -3.928  1.00  0.00     0.005 C 
HETATM   34  C   UNL     1      35.817 -14.285  -4.779  1.00  0.00     0.005 C 
ENDBRANCH  32  33
ENDBRANCH  28  32
ENDBRANCH   1  24
TORSDOF 8
ENDMDL
MODEL 3
REMARK VINA RESULT:      -7.9      8.345     10.796
REMARK  8 active torsions:
REMARK  status: ('A' for Active; 'I' for Inactive)
REMARK    1  A    between atoms: C_2  and  C_3 
REMARK    2  A    between atoms: C_3  and  C_4 
REMARK       I    between atoms: C_4  and  N_5 
REMARK    3  A    between atoms: N_8  and  C_9 
REMARK    4  A    between atoms: C_12  and  N_13 
REMARK    5  A    between atoms: N_13  and  C_14 
REMARK    6  A    between atoms: C_14  and  N_15 
REMARK       I    between atoms: N_15  and  C_16 
REMARK    7  A    between atoms: C_16  and  C_17 
REMARK    8  A    between atoms: C_18  and  O_19 
ROOT
HETATM    1  C   UNL     1      40.514 -14.563  -0.546  1.00  0.00     0.030 A 
HETATM    2  C   UNL     1      41.149 -15.812  -0.500  1.00  0.00     0.031 A 
HETATM    3  C   UNL     1      41.093 -16.634   0.633  1.00  0.00     0.032 A 
HETATM    4  C   UNL     1      40.396 -16.228   1.767  1.00  0.00     0.034 A 
HETATM    5  C   UNL     1      39.688 -15.031   1.724  1.00  0.00     0.032 A 
HETATM    6  C   UNL     1      39.769 -14.205   0.591  1.00  0.00     0.031 A 
ENDROOT
BRANCH   4   7
HETATM    7  N   UNL     1      40.345 -17.022   2.934  1.00  0.00    -0.333 N 
HETATM    8  H   UNL     1      39.447 -17.438   3.146  1.00  0.00     0.168 HD
BRANCH   7   9
HETATM    9  C   UNL     1      41.263 -16.994   3.987  1.00  0.00     0.179 C 
HETATM   10  S   UNL     1      40.937 -17.524   5.544  1.00  0.00    -0.040 SA
BRANCH   9  11
HETATM   11  N   UNL     1      42.496 -16.489   3.539  1.00  0.00    -0.299 N 
HETATM   12  C   UNL     1      43.623 -17.078   2.962  1.00  0.00     0.260 C 
HETATM   13  O   UNL     1      44.363 -16.413   2.243  1.00  0.00    -0.267 OA
HETATM   14  H   UNL     1      42.513 -15.491   3.391  1.00  0.00     0.171 HD
BRANCH  12  15
HETATM   15  C   UNL     1      43.967 -18.472   3.317  1.00  0.00     0.067 A 
HETATM   16  C   UNL     1      44.334 -18.815   4.626  1.00  0.00     0.084 A 
HETATM   17  C   UNL     1      44.678 -20.142   4.910  1.00  0.00     0.039 A 
HETATM   18  C   UNL     1      44.617 -21.117   3.910  1.00  0.00     0.026 A 
HETATM   19  C   UNL     1      44.211 -20.769   2.622  1.00  0.00     0.035 A 
HETATM   20 CL   UNL     1      44.138 -21.973   1.395  1.00  0.00    -0.084 Cl
HETATM   21  C   UNL     1      43.877 -19.454   2.319  1.00  0.00     0.043 A 
BRANCH  16  22
HETATM   22  O   UNL     1      44.436 -17.816   5.556  1.00  0.00    -0.355 OA
HETATM   23  C   UNL     1      45.320 -18.105   6.635  1.00  0.00     0.210 C 
ENDBRANCH  16  22
ENDBRANCH  12  15
ENDBRANCH   9  11
ENDBRANCH   7   9
ENDBRANCH   4   7
BRANCH   1  24
HETATM   24  N   UNL     1      40.673 -13.673  -1.614  1.00  0.00    -0.378 N 
HETATM   25  C   UNL     1      41.843 -12.772  -1.588  1.00  0.00     0.143 C 
HETATM   26  C   UNL     1      42.145 -12.233  -3.003  1.00  0.00     0.145 C 
HETATM   27  N   UNL     1      40.970 -11.666  -3.680  1.00  0.00    -0.349 N 
HETATM   28  C   UNL     1      41.051 -10.802  -4.770  1.00  0.00     0.219 C 
HETATM   29  C   UNL     1      39.751 -12.475  -3.584  1.00  0.00     0.145 C 
HETATM   30  O   UNL     1      40.068 -10.536  -5.463  1.00  0.00    -0.273 OA
HETATM   31  C   UNL     1      39.472 -13.020  -2.177  1.00  0.00     0.143 C 
BRANCH  28  32
HETATM   32  C   UNL     1      42.412 -10.191  -5.065  1.00  0.00     0.103 C 
BRANCH  32  33
HETATM   33  C   UNL     1      42.310  -8.701  -5.396  1.00  0.00     0.005 C 
HETATM   34  C   UNL     1      43.095  -8.348  -6.647  1.00  0.00     0.005 C 
ENDBRANCH  32  33
ENDBRANCH  28  32
ENDBRANCH   1  24
TORSDOF 8
ENDMDL
MODEL 4
REMARK VINA RESULT:      -7.7      3.073      4.560
REMARK  8 active torsions:
REMARK  status: ('A' for Active; 'I' for Inactive)
REMARK    1  A    between atoms: C_2  and  C_3 
REMARK    2  A    between atoms: C_3  and  C_4 
REMARK       I    between atoms: C_4  and  N_5 
REMARK    3  A    between atoms: N_8  and  C_9 
REMARK    4  A    between atoms: C_12  and  N_13 
REMARK    5  A    between atoms: N_13  and  C_14 
REMARK    6  A    between atoms: C_14  and  N_15 
REMARK       I    between atoms: N_15  and  C_16 
REMARK    7  A    between atoms: C_16  and  C_17 
REMARK    8  A    between atoms: C_18  and  O_19 
ROOT
HETATM    1  C   UNL     1      41.949 -15.301   5.190  1.00  0.00     0.030 A 
HETATM    2  C   UNL     1      40.552 -15.214   5.123  1.00  0.00     0.031 A 
HETATM    3  C   UNL     1      39.863 -14.040   5.452  1.00  0.00     0.032 A 
HETATM    4  C   UNL     1      40.556 -12.905   5.863  1.00  0.00     0.034 A 
HETATM    5  C   UNL     1      41.947 -12.934   5.862  1.00  0.00     0.032 A 
HETATM    6  C   UNL     1      42.626 -14.123   5.553  1.00  0.00     0.031 A 
ENDROOT
BRANCH   4   7
HETATM    7  N   UNL     1      39.887 -11.715   6.228  1.00  0.00    -0.333 N 
HETATM    8  H   UNL     1      39.795 -11.020   5.498  1.00  0.00     0.168 HD
BRANCH   7   9
HETATM    9  C   UNL     1      39.679 -11.256   7.531  1.00  0.00     0.179 C 
HETATM   10  S   UNL     1      38.920 -12.137   8.738  1.00  0.00    -0.040 SA
BRANCH   9  11
HETATM   11  N   UNL     1      40.226  -9.970   7.682  1.00  0.00    -0.299 N 
HETATM   12  C   UNL     1      41.466  -9.498   8.115  1.00  0.00     0.260 C 
HETATM   13  O   UNL     1      41.876  -8.406   7.731  1.00  0.00    -0.267 OA
HETATM   14  H   UNL     1      39.733  -9.242   7.184  1.00  0.00     0.171 HD
BRANCH  12  15
HETATM   15  C   UNL     1      42.221 -10.276   9.120  1.00  0.00     0.067 A 
HETATM   16  C   UNL     1      41.780 -10.363  10.449  1.00  0.00     0.084 A 
HETATM   17  C   UNL     1      42.541 -11.088  11.373  1.00  0.00     0.039 A 
HETATM   18  C   UNL     1      43.702 -11.752  10.964  1.00  0.00     0.026 A 
HETATM   19  C   UNL     1      44.107 -11.692   9.632  1.00  0.00     0.035 A 
HETATM   20 CL   UNL     1      45.537 -12.509   9.136  1.00  0.00    -0.084 Cl
HETATM   21  C   UNL     1      43.370 -10.966   8.703  1.00  0.00     0.043 A 
BRANCH  16  22
HETATM   22  O   UNL     1      40.671  -9.648  10.812  1.00  0.00    -0.355 OA
HETATM   23  C   UNL     1      40.097 -10.044  12.055  1.00  0.00     0.210 C 
ENDBRANCH  16  22
ENDBRANCH  12  15
ENDBRANCH   9  11
ENDBRANCH   7   9
ENDBRANCH   4   7
BRANCH   1  24
HETATM   24  N   UNL     1      42.642 -16.502   4.999  1.00  0.00    -0.378 N 
HETATM   25  C   UNL     1      42.723 -17.035   3.623  1.00  0.00     0.143 C 
HETATM   26  C   UNL     1      43.887 -18.043   3.501  1.00  0.00     0.145 C 
HETATM   27  N   UNL     1      43.880 -19.079   4.544  1.00  0.00    -0.349 N 
HETATM   28  C   UNL     1      44.573 -20.283   4.437  1.00  0.00     0.219 C 
HETATM   29  C   UNL     1      43.644 -18.587   5.904  1.00  0.00     0.145 C 
HETATM   30  O   UNL     1      44.748 -21.020   5.408  1.00  0.00    -0.273 OA
HETATM   31  C   UNL     1      42.498 -17.572   6.010  1.00  0.00     0.143 C 
BRANCH  28  32
HETATM   32  C   UNL     1      45.100 -20.656   3.060  1.00  0.00     0.103 C 
BRANCH  32  33
HETATM   33  C   UNL     1      44.449 -21.933   2.525  1.00  0.00     0.005 C 
HETATM   34  C   UNL     1      43.244 -21.625   1.653  1.00  0.00     0.005 C 
ENDBRANCH  32  33
ENDBRANCH  28  32
ENDBRANCH   1  24
TORSDOF 8
ENDMDL
MODEL 5
REMARK VINA RESULT:      -7.6      7.086      9.083
REMARK  8 active torsions:
REMARK  status: ('A' for Active; 'I' for Inactive)
REMARK    1  A    between atoms: C_2  and  C_3 
REMARK    2  A    between atoms: C_3  and  C_4 
REMARK       I    between atoms: C_4  and  N_5 
REMARK    3  A    between atoms: N_8  and  C_9 
REMARK    4  A    between atoms: C_12  and  N_13 
REMARK    5  A    between atoms: N_13  and  C_14 
REMARK    6  A    between atoms: C_14  and  N_15 
REMARK       I    between atoms: N_15  and  C_16 
REMARK    7  A    between atoms: C_16  and  C_17 
REMARK    8  A    between atoms: C_18  and  O_19 
ROOT
HETATM    1  C   UNL     1      41.438 -16.559   1.883  1.00  0.00     0.030 A 
HETATM    2  C   UNL     1      40.252 -15.905   2.246  1.00  0.00     0.031 A 
HETATM    3  C   UNL     1      39.615 -14.994   1.394  1.00  0.00     0.032 A 
HETATM    4  C   UNL     1      40.148 -14.704   0.142  1.00  0.00     0.034 A 
HETATM    5  C   UNL     1      41.279 -15.397  -0.280  1.00  0.00     0.032 A 
HETATM    6  C   UNL     1      41.922 -16.291   0.591  1.00  0.00     0.031 A 
ENDROOT
BRANCH   4   7
HETATM    7  N   UNL     1      39.544 -13.770  -0.727  1.00  0.00    -0.333 N 
HETATM    8  H   UNL     1      39.485 -14.045  -1.699  1.00  0.00     0.168 HD
BRANCH   7   9
HETATM    9  C   UNL     1      39.363 -12.407  -0.472  1.00  0.00     0.179 C 
HETATM   10  S   UNL     1      37.909 -11.713  -0.010  1.00  0.00    -0.040 SA
BRANCH   9  11
HETATM   11  N   UNL     1      40.581 -11.722  -0.629  1.00  0.00    -0.299 N 
HETATM   12  C   UNL     1      41.743 -11.639   0.140  1.00  0.00     0.260 C 
HETATM   13  O   UNL     1      42.816 -11.377  -0.396  1.00  0.00    -0.267 OA
HETATM   14  H   UNL     1      40.763 -11.398  -1.568  1.00  0.00     0.171 HD
BRANCH  12  15
HETATM   15  C   UNL     1      41.643 -11.763   1.610  1.00  0.00     0.067 A 
HETATM   16  C   UNL     1      40.882 -10.856   2.362  1.00  0.00     0.084 A 
HETATM   17  C   UNL     1      40.839 -10.996   3.754  1.00  0.00     0.039 A 
HETATM   18  C   UNL     1      41.512 -12.050   4.379  1.00  0.00     0.026 A 
HETATM   19  C   UNL     1      42.230 -12.968   3.616  1.00  0.00     0.035 A 
HETATM   20 CL   UNL     1      43.057 -14.263   4.390  1.00  0.00    -0.084 Cl
HETATM   21  C   UNL     1      42.295 -12.838   2.232  1.00  0.00     0.043 A 
BRANCH  16  22
HETATM   22  O   UNL     1      40.291  -9.808   1.710  1.00  0.00    -0.355 OA
HETATM   23  C   UNL     1      39.721  -8.827   2.572  1.00  0.00     0.210 C 
ENDBRANCH  16  22
ENDBRANCH  12  15
ENDBRANCH   9  11
ENDBRANCH   7   9
ENDBRANCH   4   7
BRANCH   1  24
HETATM   24  N   UNL     1      42.159 -17.364   2.772  1.00  0.00    -0.378 N 
HETATM   25  C   UNL     1      42.854 -18.545   2.219  1.00  0.00     0.143 C 
HETATM   26  C   UNL     1      43.962 -19.022   3.182  1.00  0.00     0.145 C 
HETATM   27  N   UNL     1      43.505 -19.194   4.568  1.00  0.00    -0.349 N 
HETATM   28  C   UNL     1      44.188 -19.952   5.516  1.00  0.00     0.219 C 
HETATM   29  C   UNL     1      42.679 -18.100   5.087  1.00  0.00     0.145 C 
HETATM   30  O   UNL     1      43.921 -19.885   6.717  1.00  0.00    -0.273 OA
HETATM   31  C   UNL     1      41.593 -17.622   4.114  1.00  0.00     0.143 C 
BRANCH  28  32
HETATM   32  C   UNL     1      45.280 -20.877   5.003  1.00  0.00     0.103 C 
BRANCH  32  33
HETATM   33  C   UNL     1      44.790 -22.321   4.871  1.00  0.00     0.005 C 
HETATM   34  C   UNL     1      44.593 -22.716   3.417  1.00  0.00     0.005 C 
ENDBRANCH  32  33
ENDBRANCH  28  32
ENDBRANCH   1  24
TORSDOF 8
ENDMDL
MODEL 6
REMARK VINA RESULT:      -7.6      8.964     11.411
REMARK  8 active torsions:
REMARK  status: ('A' for Active; 'I' for Inactive)
REMARK    1  A    between atoms: C_2  and  C_3 
REMARK    2  A    between atoms: C_3  and  C_4 
REMARK       I    between atoms: C_4  and  N_5 
REMARK    3  A    between atoms: N_8  and  C_9 
REMARK    4  A    between atoms: C_12  and  N_13 
REMARK    5  A    between atoms: N_13  and  C_14 
REMARK    6  A    between atoms: C_14  and  N_15 
REMARK       I    between atoms: N_15  and  C_16 
REMARK    7  A    between atoms: C_16  and  C_17 
REMARK    8  A    between atoms: C_18  and  O_19 
ROOT
HETATM    1  C   UNL     1      41.640 -14.960   1.568  1.00  0.00     0.030 A 
HETATM    2  C   UNL     1      40.402 -15.069   0.918  1.00  0.00     0.031 A 
HETATM    3  C   UNL     1      39.688 -13.945   0.485  1.00  0.00     0.032 A 
HETATM    4  C   UNL     1      40.192 -12.664   0.691  1.00  0.00     0.034 A 
HETATM    5  C   UNL     1      41.454 -12.526   1.260  1.00  0.00     0.032 A 
HETATM    6  C   UNL     1      42.151 -13.659   1.711  1.00  0.00     0.031 A 
ENDROOT
BRANCH   4   7
HETATM    7  N   UNL     1      39.482 -11.511   0.291  1.00  0.00    -0.333 N 
HETATM    8  H   UNL     1      39.732 -10.653   0.766  1.00  0.00     0.168 HD
BRANCH   7   9
HETATM    9  C   UNL     1      38.263 -11.493  -0.392  1.00  0.00     0.179 C 
HETATM   10  S   UNL     1      36.812 -12.046   0.240  1.00  0.00    -0.040 SA
BRANCH   9  11
HETATM   11  N   UNL     1      38.431 -10.916  -1.663  1.00  0.00    -0.299 N 
HETATM   12  C   UNL     1      38.753 -11.435  -2.918  1.00  0.00     0.260 C 
HETATM   13  O   UNL     1      38.394 -10.848  -3.936  1.00  0.00    -0.267 OA
HETATM   14  H   UNL     1      38.037  -9.992  -1.761  1.00  0.00     0.171 HD
BRANCH  12  15
HETATM   15  C   UNL     1      39.618 -12.631  -3.002  1.00  0.00     0.067 A 
HETATM   16  C   UNL     1      40.978 -12.564  -2.666  1.00  0.00     0.084 A 
HETATM   17  C   UNL     1      41.766 -13.715  -2.787  1.00  0.00     0.039 A 
HETATM   18  C   UNL     1      41.192 -14.923  -3.197  1.00  0.00     0.026 A 
HETATM   19  C   UNL     1      39.831 -14.985  -3.488  1.00  0.00     0.035 A 
HETATM   20 CL   UNL     1      39.131 -16.473  -3.993  1.00  0.00    -0.084 Cl
HETATM   21  C   UNL     1      39.035 -13.848  -3.385  1.00  0.00     0.043 A 
BRANCH  16  22
HETATM   22  O   UNL     1      41.505 -11.347  -2.327  1.00  0.00    -0.355 OA
HETATM   23  C   UNL     1      42.881 -11.384  -1.959  1.00  0.00     0.210 C 
ENDBRANCH  16  22
ENDBRANCH  12  15
ENDBRANCH   9  11
ENDBRANCH   7   9
ENDBRANCH   4   7
BRANCH   1  24
HETATM   24  N   UNL     1      42.299 -16.061   2.127  1.00  0.00    -0.378 N 
HETATM   25  C   UNL     1      42.753 -17.127   1.210  1.00  0.00     0.143 C 
HETATM   26  C   UNL     1      43.851 -17.984   1.877  1.00  0.00     0.145 C 
HETATM   27  N   UNL     1      43.491 -18.463   3.219  1.00  0.00    -0.349 N 
HETATM   28  C   UNL     1      44.125 -19.530   3.851  1.00  0.00     0.219 C 
HETATM   29  C   UNL     1      42.891 -17.454   4.096  1.00  0.00     0.145 C 
HETATM   30  O   UNL     1      43.973 -19.756   5.053  1.00  0.00    -0.273 OA
HETATM   31  C   UNL     1      41.815 -16.597   3.417  1.00  0.00     0.143 C 
BRANCH  28  32
HETATM   32  C   UNL     1      45.013 -20.414   2.990  1.00  0.00     0.103 C 
BRANCH  32  33
HETATM   33  C   UNL     1      44.382 -21.785   2.738  1.00  0.00     0.005 C 
HETATM   34  C   UNL     1      43.895 -21.925   1.306  1.00  0.00     0.005 C 
ENDBRANCH  32  33
ENDBRANCH  28  32
ENDBRANCH   1  24
TORSDOF 8
ENDMDL
MODEL 7
REMARK VINA RESULT:      -7.4      6.405      9.030
REMARK  8 active torsions:
REMARK  status: ('A' for Active; 'I' for Inactive)
REMARK    1  A    between atoms: C_2  and  C_3 
REMARK    2  A    between atoms: C_3  and  C_4 
REMARK       I    between atoms: C_4  and  N_5 
REMARK    3  A    between atoms: N_8  and  C_9 
REMARK    4  A    between atoms: C_12  and  N_13 
REMARK    5  A    between atoms: N_13  and  C_14 
REMARK    6  A    between atoms: C_14  and  N_15 
REMARK       I    between atoms: N_15  and  C_16 
REMARK    7  A    between atoms: C_16  and  C_17 
REMARK    8  A    between atoms: C_18  and  O_19 
ROOT
HETATM    1  C   UNL     1      40.820 -13.051   1.693  1.00  0.00     0.030 A 
HETATM    2  C   UNL     1      42.148 -13.500   1.738  1.00  0.00     0.031 A 
HETATM    3  C   UNL     1      42.844 -13.641   2.945  1.00  0.00     0.032 A 
HETATM    4  C   UNL     1      42.232 -13.333   4.156  1.00  0.00     0.034 A 
HETATM    5  C   UNL     1      40.891 -12.963   4.151  1.00  0.00     0.032 A 
HETATM    6  C   UNL     1      40.208 -12.803   2.934  1.00  0.00     0.031 A 
ENDROOT
BRANCH   4   7
HETATM    7  N   UNL     1      42.917 -13.438   5.386  1.00  0.00    -0.333 N 
HETATM    8  H   UNL     1      43.581 -12.700   5.585  1.00  0.00     0.168 HD
BRANCH   7   9
HETATM    9  C   UNL     1      43.051 -14.597   6.156  1.00  0.00     0.179 C 
HETATM   10  S   UNL     1      44.475 -15.087   6.892  1.00  0.00    -0.040 SA
BRANCH   9  11
HETATM   11  N   UNL     1      41.817 -15.264   6.242  1.00  0.00    -0.299 N 
HETATM   12  C   UNL     1      41.411 -16.573   5.980  1.00  0.00     0.260 C 
HETATM   13  O   UNL     1      40.431 -17.040   6.554  1.00  0.00    -0.267 OA
HETATM   14  H   UNL     1      41.124 -14.793   6.806  1.00  0.00     0.171 HD
BRANCH  12  15
HETATM   15  C   UNL     1      42.108 -17.344   4.928  1.00  0.00     0.067 A 
HETATM   16  C   UNL     1      41.769 -17.193   3.575  1.00  0.00     0.084 A 
HETATM   17  C   UNL     1      42.436 -17.964   2.616  1.00  0.00     0.039 A 
HETATM   18  C   UNL     1      43.455 -18.841   3.000  1.00  0.00     0.026 A 
HETATM   19  C   UNL     1      43.811 -18.951   4.343  1.00  0.00     0.035 A 
HETATM   20 CL   UNL     1      45.064 -20.033   4.810  1.00  0.00    -0.084 Cl
HETATM   21  C   UNL     1      43.150 -18.202   5.312  1.00  0.00     0.043 A 
BRANCH  16  22
HETATM   22  O   UNL     1      40.726 -16.367   3.256  1.00  0.00    -0.355 OA
HETATM   23  C   UNL     1      40.119 -16.646   1.998  1.00  0.00     0.210 C 
ENDBRANCH  16  22
ENDBRANCH  12  15
ENDBRANCH   9  11
ENDBRANCH   7   9
ENDBRANCH   4   7
BRANCH   1  24
HETATM   24  N   UNL     1      40.157 -12.774   0.493  1.00  0.00    -0.378 N 
HETATM   25  C   UNL     1      38.943 -13.558   0.183  1.00  0.00     0.143 C 
HETATM   26  C   UNL     1      38.082 -12.830  -0.872  1.00  0.00     0.145 C 
HETATM   27  N   UNL     1      38.838 -12.407  -2.059  1.00  0.00    -0.349 N 
HETATM   28  C   UNL     1      38.243 -12.084  -3.276  1.00  0.00     0.219 C 
HETATM   29  C   UNL     1      40.125 -11.765  -1.776  1.00  0.00     0.145 C 
HETATM   30  O   UNL     1      38.864 -11.508  -4.170  1.00  0.00    -0.273 OA
HETATM   31  C   UNL     1      40.963 -12.487  -0.713  1.00  0.00     0.143 C 
BRANCH  28  32
HETATM   32  C   UNL     1      36.787 -12.481  -3.459  1.00  0.00     0.103 C 
BRANCH  32  33
HETATM   33  C   UNL     1      36.631 -13.655  -4.428  1.00  0.00     0.005 C 
HETATM   34  C   UNL     1      37.166 -14.947  -3.835  1.00  0.00     0.005 C 
ENDBRANCH  32  33
ENDBRANCH  28  32
ENDBRANCH   1  24
TORSDOF 8
ENDMDL
MODEL 8
REMARK VINA RESULT:      -7.4      8.762     11.781
REMARK  8 active torsions:
REMARK  status: ('A' for Active; 'I' for Inactive)
REMARK    1  A    between atoms: C_2  and  C_3 
REMARK    2  A    between atoms: C_3  and  C_4 
REMARK       I    between atoms: C_4  and  N_5 
REMARK    3  A    between atoms: N_8  and  C_9 
REMARK    4  A    between atoms: C_12  and  N_13 
REMARK    5  A    between atoms: N_13  and  C_14 
REMARK    6  A    between atoms: C_14  and  N_15 
REMARK       I    between atoms: N_15  and  C_16 
REMARK    7  A    between atoms: C_16  and  C_17 
REMARK    8  A    between atoms: C_18  and  O_19 
ROOT
HETATM    1  C   UNL     1      39.857 -14.539   1.312  1.00  0.00     0.030 A 
HETATM    2  C   UNL     1      40.240 -13.365   0.648  1.00  0.00     0.031 A 
HETATM    3  C   UNL     1      39.304 -12.492   0.082  1.00  0.00     0.032 A 
HETATM    4  C   UNL     1      37.942 -12.766   0.161  1.00  0.00     0.034 A 
HETATM    5  C   UNL     1      37.525 -13.880   0.883  1.00  0.00     0.032 A 
HETATM    6  C   UNL     1      38.474 -14.761   1.428  1.00  0.00     0.031 A 
ENDROOT
BRANCH   4   7
HETATM    7  N   UNL     1      36.976 -11.919  -0.425  1.00  0.00    -0.333 N 
HETATM    8  H   UNL     1      36.018 -12.244  -0.379  1.00  0.00     0.168 HD
BRANCH   7   9
HETATM    9  C   UNL     1      37.227 -10.904  -1.352  1.00  0.00     0.179 C 
HETATM   10  S   UNL     1      37.934  -9.431  -0.978  1.00  0.00    -0.040 SA
BRANCH   9  11
HETATM   11  N   UNL     1      36.829 -11.315  -2.636  1.00  0.00    -0.299 N 
HETATM   12  C   UNL     1      37.298 -12.286  -3.522  1.00  0.00     0.260 C 
HETATM   13  O   UNL     1      36.539 -12.777  -4.353  1.00  0.00    -0.267 OA
HETATM   14  H   UNL     1      35.900 -11.023  -2.902  1.00  0.00     0.171 HD
BRANCH  12  15
HETATM   15  C   UNL     1      38.736 -12.631  -3.516  1.00  0.00     0.067 A 
HETATM   16  C   UNL     1      39.711 -11.671  -3.822  1.00  0.00     0.084 A 
HETATM   17  C   UNL     1      41.059 -12.049  -3.831  1.00  0.00     0.039 A 
HETATM   18  C   UNL     1      41.427 -13.357  -3.498  1.00  0.00     0.026 A 
HETATM   19  C   UNL     1      40.450 -14.290  -3.156  1.00  0.00     0.035 A 
HETATM   20 CL   UNL     1      40.909 -15.897  -2.749  1.00  0.00    -0.084 Cl
HETATM   21  C   UNL     1      39.106 -13.935  -3.154  1.00  0.00     0.043 A 
BRANCH  16  22
HETATM   22  O   UNL     1      39.297 -10.422  -4.198  1.00  0.00    -0.355 OA
HETATM   23  C   UNL     1      40.278  -9.402  -4.030  1.00  0.00     0.210 C 
ENDBRANCH  16  22
ENDBRANCH  12  15
ENDBRANCH   9  11
ENDBRANCH   7   9
ENDBRANCH   4   7
BRANCH   1  24
HETATM   24  N   UNL     1      40.781 -15.489   1.762  1.00  0.00    -0.378 N 
HETATM   25  C   UNL     1      41.148 -16.581   0.837  1.00  0.00     0.143 C 
HETATM   26  C   UNL     1      42.485 -17.226   1.263  1.00  0.00     0.145 C 
HETATM   27  N   UNL     1      42.529 -17.605   2.682  1.00  0.00    -0.349 N 
HETATM   28  C   UNL     1      43.443 -18.518   3.206  1.00  0.00     0.219 C 
HETATM   29  C   UNL     1      42.021 -16.591   3.610  1.00  0.00     0.145 C 
HETATM   30  O   UNL     1      43.618 -18.636   4.420  1.00  0.00    -0.273 OA
HETATM   31  C   UNL     1      40.702 -15.944   3.167  1.00  0.00     0.143 C 
BRANCH  28  32
HETATM   32  C   UNL     1      44.213 -19.371   2.211  1.00  0.00     0.103 C 
BRANCH  32  33
HETATM   33  C   UNL     1      44.424 -20.797   2.725  1.00  0.00     0.005 C 
HETATM   34  C   UNL     1      43.985 -21.832   1.704  1.00  0.00     0.005 C 
ENDBRANCH  32  33
ENDBRANCH  28  32
ENDBRANCH   1  24
TORSDOF 8
ENDMDL
MODEL 9
REMARK VINA RESULT:      -7.4      8.454     10.782
REMARK  8 active torsions:
REMARK  status: ('A' for Active; 'I' for Inactive)
REMARK    1  A    between atoms: C_2  and  C_3 
REMARK    2  A    between atoms: C_3  and  C_4 
REMARK       I    between atoms: C_4  and  N_5 
REMARK    3  A    between atoms: N_8  and  C_9 
REMARK    4  A    between atoms: C_12  and  N_13 
REMARK    5  A    between atoms: N_13  and  C_14 
REMARK    6  A    between atoms: C_14  and  N_15 
REMARK       I    between atoms: N_15  and  C_16 
REMARK    7  A    between atoms: C_16  and  C_17 
REMARK    8  A    between atoms: C_18  and  O_19 
ROOT
HETATM    1  C   UNL     1      39.565 -14.282   2.163  1.00  0.00     0.030 A 
HETATM    2  C   UNL     1      39.749 -12.996   2.689  1.00  0.00     0.031 A 
HETATM    3  C   UNL     1      38.910 -11.927   2.350  1.00  0.00     0.032 A 
HETATM    4  C   UNL     1      37.852 -12.112   1.464  1.00  0.00     0.034 A 
HETATM    5  C   UNL     1      37.595 -13.393   0.988  1.00  0.00     0.032 A 
HETATM    6  C   UNL     1      38.456 -14.453   1.318  1.00  0.00     0.031 A 
ENDROOT
BRANCH   4   7
HETATM    7  N   UNL     1      37.007 -11.047   1.081  1.00  0.00    -0.333 N 
HETATM    8  H   UNL     1      36.384 -10.698   1.799  1.00  0.00     0.168 HD
BRANCH   7   9
HETATM    9  C   UNL     1      36.682 -10.686  -0.230  1.00  0.00     0.179 C 
HETATM   10  S   UNL     1      35.182 -10.929  -0.937  1.00  0.00    -0.040 SA
BRANCH   9  11
HETATM   11  N   UNL     1      37.784 -10.067  -0.846  1.00  0.00    -0.299 N 
HETATM   12  C   UNL     1      38.684 -10.470  -1.834  1.00  0.00     0.260 C 
HETATM   13  O   UNL     1      39.249  -9.630  -2.529  1.00  0.00    -0.267 OA
HETATM   14  H   UNL     1      37.821  -9.065  -0.731  1.00  0.00     0.171 HD
BRANCH  12  15
HETATM   15  C   UNL     1      39.025 -11.904  -1.955  1.00  0.00     0.067 A 
HETATM   16  C   UNL     1      40.216 -12.411  -1.417  1.00  0.00     0.084 A 
HETATM   17  C   UNL     1      40.511 -13.770  -1.579  1.00  0.00     0.039 A 
HETATM   18  C   UNL     1      39.608 -14.615  -2.233  1.00  0.00     0.026 A 
HETATM   19  C   UNL     1      38.409 -14.105  -2.727  1.00  0.00     0.035 A 
HETATM   20 CL   UNL     1      37.303 -15.149  -3.531  1.00  0.00    -0.084 Cl
HETATM   21  C   UNL     1      38.105 -12.755  -2.585  1.00  0.00     0.043 A 
BRANCH  16  22
HETATM   22  O   UNL     1      41.093 -11.534  -0.839  1.00  0.00    -0.355 OA
HETATM   23  C   UNL     1      42.085 -12.149  -0.021  1.00  0.00     0.210 C 
ENDBRANCH  16  22
ENDBRANCH  12  15
ENDBRANCH   9  11
ENDBRANCH   7   9
ENDBRANCH   4   7
BRANCH   1  24
HETATM   24  N   UNL     1      40.472 -15.325   2.384  1.00  0.00    -0.378 N 
HETATM   25  C   UNL     1      40.317 -16.552   1.575  1.00  0.00     0.143 C 
HETATM   26  C   UNL     1      41.628 -17.368   1.572  1.00  0.00     0.145 C 
HETATM   27  N   UNL     1      42.178 -17.604   2.915  1.00  0.00    -0.349 N 
HETATM   28  C   UNL     1      43.108 -18.600   3.202  1.00  0.00     0.219 C 
HETATM   29  C   UNL     1      42.196 -16.429   3.791  1.00  0.00     0.145 C 
HETATM   30  O   UNL     1      43.728 -18.623   4.266  1.00  0.00    -0.273 OA
HETATM   31  C   UNL     1      40.895 -15.616   3.771  1.00  0.00     0.143 C 
BRANCH  28  32
HETATM   32  C   UNL     1      43.323 -19.669   2.142  1.00  0.00     0.103 C 
BRANCH  32  33
HETATM   33  C   UNL     1      44.357 -20.709   2.580  1.00  0.00     0.005 C 
HETATM   34  C   UNL     1      44.271 -21.973   1.742  1.00  0.00     0.005 C 
ENDBRANCH  32  33
ENDBRANCH  28  32
ENDBRANCH   1  24
TORSDOF 8
ENDMDL
MODEL 10
REMARK VINA RESULT:      -7.4      2.390      3.431
REMARK  8 active torsions:
REMARK  status: ('A' for Active; 'I' for Inactive)
REMARK    1  A    between atoms: C_2  and  C_3 
REMARK    2  A    between atoms: C_3  and  C_4 
REMARK       I    between atoms: C_4  and  N_5 
REMARK    3  A    between atoms: N_8  and  C_9 
REMARK    4  A    between atoms: C_12  and  N_13 
REMARK    5  A    between atoms: N_13  and  C_14 
REMARK    6  A    between atoms: C_14  and  N_15 
REMARK       I    between atoms: N_15  and  C_16 
REMARK    7  A    between atoms: C_16  and  C_17 
REMARK    8  A    between atoms: C_18  and  O_19 
ROOT
HETATM    1  C   UNL     1      41.319 -13.587   4.718  1.00  0.00     0.030 A 
HETATM    2  C   UNL     1      39.979 -13.182   4.798  1.00  0.00     0.031 A 
HETATM    3  C   UNL     1      39.561 -12.162   5.661  1.00  0.00     0.032 A 
HETATM    4  C   UNL     1      40.477 -11.508   6.480  1.00  0.00     0.034 A 
HETATM    5  C   UNL     1      41.825 -11.831   6.365  1.00  0.00     0.032 A 
HETATM    6  C   UNL     1      42.231 -12.871   5.513  1.00  0.00     0.031 A 
ENDROOT
BRANCH   4   7
HETATM    7  N   UNL     1      40.081 -10.495   7.380  1.00  0.00    -0.333 N 
HETATM    8  H   UNL     1      40.371  -9.555   7.141  1.00  0.00     0.168 HD
BRANCH   7   9
HETATM    9  C   UNL     1      39.673 -10.685   8.703  1.00  0.00     0.179 C 
HETATM   10  S   UNL     1      38.873 -12.048   9.263  1.00  0.00    -0.040 SA
BRANCH   9  11
HETATM   11  N   UNL     1      40.059  -9.585   9.489  1.00  0.00    -0.299 N 
HETATM   12  C   UNL     1      41.274  -9.179  10.042  1.00  0.00     0.260 C 
HETATM   13  O   UNL     1      41.474  -7.991  10.281  1.00  0.00    -0.267 OA
HETATM   14  H   UNL     1      39.406  -8.815   9.485  1.00  0.00     0.171 HD
BRANCH  12  15
HETATM   15  C   UNL     1      42.265 -10.204  10.434  1.00  0.00     0.067 A 
HETATM   16  C   UNL     1      42.138 -10.909  11.639  1.00  0.00     0.084 A 
HETATM   17  C   UNL     1      43.115 -11.852  11.982  1.00  0.00     0.039 A 
HETATM   18  C   UNL     1      44.178 -12.114  11.113  1.00  0.00     0.026 A 
HETATM   19  C   UNL     1      44.269 -11.437   9.899  1.00  0.00     0.035 A 
HETATM   20 CL   UNL     1      45.580 -11.763   8.834  1.00  0.00    -0.084 Cl
HETATM   21  C   UNL     1      43.315 -10.488   9.547  1.00  0.00     0.043 A 
BRANCH  16  22
HETATM   22  O   UNL     1      41.114 -10.574  12.483  1.00  0.00    -0.355 OA
HETATM   23  C   UNL     1      40.263 -11.661  12.835  1.00  0.00     0.210 C 
ENDBRANCH  16  22
ENDBRANCH  12  15
ENDBRANCH   9  11
ENDBRANCH   7   9
ENDBRANCH   4   7
BRANCH   1  24
HETATM   24  N   UNL     1      41.730 -14.692   3.965  1.00  0.00    -0.378 N 
HETATM   25  C   UNL     1      41.816 -15.997   4.653  1.00  0.00     0.143 C 
HETATM   26  C   UNL     1      41.794 -17.153   3.629  1.00  0.00     0.145 C 
HETATM   27  N   UNL     1      42.763 -16.989   2.536  1.00  0.00    -0.349 N 
HETATM   28  C   UNL     1      43.193 -18.037   1.725  1.00  0.00     0.219 C 
HETATM   29  C   UNL     1      42.805 -15.651   1.941  1.00  0.00     0.145 C 
HETATM   30  O   UNL     1      43.810 -17.837   0.677  1.00  0.00    -0.273 OA
HETATM   31  C   UNL     1      42.807 -14.511   2.968  1.00  0.00     0.143 C 
BRANCH  28  32
HETATM   32  C   UNL     1      42.873 -19.448   2.193  1.00  0.00     0.103 C 
BRANCH  32  33
HETATM   33  C   UNL     1      44.135 -20.297   2.356  1.00  0.00     0.005 C 
HETATM   34  C   UNL     1      43.973 -21.671   1.729  1.00  0.00     0.005 C 
ENDBRANCH  32  33
ENDBRANCH  28  32
ENDBRANCH   1  24
TORSDOF 8
ENDMDL
