MODEL 1
REMARK VINA RESULT:      -8.4      0.000      0.000
REMARK  8 active torsions:
REMARK  status: ('A' for Active; 'I' for Inactive)
REMARK    1  A    between atoms: C_2  and  N_3 
REMARK    2  A    between atoms: N_3  and  C_4 
REMARK    3  A    between atoms: C_4  and  N_5 
REMARK    4  A    between atoms: N_5  and  C_6 
REMARK    5  A    between atoms: N_5  and  C_21 
REMARK    6  A    between atoms: C_6  and  C_7 
REMARK    7  A    between atoms: C_21  and  C_22 
REMARK    8  A    between atoms: C_22  and  N_23 
ROOT
HETATM    1  N   UNL     1      41.690 -14.425   3.440  1.00  0.00    -0.352 N 
ENDROOT
BRANCH   1   2
HETATM    2  C   UNL     1      41.743 -13.757   4.650  1.00  0.00     0.174 C 
HETATM    3  S   UNL     1      41.685 -12.082   4.763  1.00  0.00    -0.041 SA
BRANCH   2   4
HETATM    4  N   UNL     1      41.589 -14.439   5.816  1.00  0.00    -0.333 N 
HETATM    5  H   UNL     1      41.049 -13.923   6.509  1.00  0.00     0.168 HD
BRANCH   4   6
HETATM    6  C   UNL     1      42.343 -15.490   6.380  1.00  0.00     0.034 A 
HETATM    7  C   UNL     1      41.804 -16.724   6.749  1.00  0.00     0.032 A 
HETATM    8  C   UNL     1      42.628 -17.725   7.273  1.00  0.00     0.044 A 
HETATM    9  C   UNL     1      43.991 -17.494   7.408  1.00  0.00     0.116 A 
HETATM   10  C   UNL     1      44.549 -16.285   7.019  1.00  0.00     0.044 A 
HETATM   11  F   UNL     1      44.778 -18.455   7.909  1.00  0.00    -0.206 F 
HETATM   12  C   UNL     1      43.726 -15.287   6.495  1.00  0.00     0.032 A 
ENDBRANCH   4   6
ENDBRANCH   2   4
ENDBRANCH   1   2
BRANCH   1  13
HETATM   13  C   UNL     1      42.927 -14.833   2.726  1.00  0.00     0.169 C 
BRANCH  13  14
HETATM   14  C   UNL     1      43.030 -16.325   2.589  1.00  0.00     0.029 A 
HETATM   15  C   UNL     1      42.715 -16.912   1.250  1.00  0.00     0.253 A 
HETATM   16  O   UNL     1      42.318 -16.206   0.326  1.00  0.00    -0.268 OA
HETATM   17  N   UNL     1      42.883 -18.260   1.094  1.00  0.00    -0.322 N 
HETATM   18  C   UNL     1      43.396 -19.101   2.089  1.00  0.00     0.048 A 
HETATM   19  H   UNL     1      42.670 -18.638   0.180  1.00  0.00     0.169 HD
HETATM   20  C   UNL     1      43.727 -18.549   3.346  1.00  0.00    -0.006 A 
HETATM   21  C   UNL     1      43.598 -20.454   1.813  1.00  0.00     0.070 A 
HETATM   22  C   UNL     1      44.279 -19.362   4.342  1.00  0.00     0.053 A 
HETATM   23  C   UNL     1      43.518 -17.116   3.563  1.00  0.00     0.028 A 
HETATM   24  C   UNL     1      44.487 -20.694   4.038  1.00  0.00     0.106 A 
HETATM   25  C   UNL     1      44.155 -21.223   2.813  1.00  0.00     0.107 A 
HETATM   26  O   UNL     1      45.037 -21.619   4.870  1.00  0.00    -0.323 OA
HETATM   27  O   UNL     1      44.452 -22.546   2.722  1.00  0.00    -0.323 OA
HETATM   28  C   UNL     1      45.047 -22.784   4.017  1.00  0.00     0.352 A 
ENDBRANCH  13  14
ENDBRANCH   1  13
BRANCH   1  29
HETATM   29  C   UNL     1      40.411 -14.625   2.717  1.00  0.00     0.153 C 
BRANCH  29  30
HETATM   30  C   UNL     1      40.050 -13.518   1.704  1.00  0.00     0.254 C 
BRANCH  30  31
HETATM   31  N   UNL     1      40.526 -13.850   0.299  1.00  0.00    -0.066 N 
HETATM   32  H   UNL     1      41.004 -14.763   0.357  1.00  0.00     0.280 HD
HETATM   33  C   UNL     1      39.403 -14.003  -0.722  1.00  0.00     0.261 C 
HETATM   34  C   UNL     1      40.005 -14.366  -2.084  1.00  0.00     0.195 C 
HETATM   35  O   UNL     1      40.935 -13.364  -2.512  1.00  0.00    -0.388 OA
HETATM   36  C   UNL     1      42.032 -13.237  -1.600  1.00  0.00     0.195 C 
HETATM   37  C   UNL     1      41.544 -12.835  -0.205  1.00  0.00     0.261 C 
ENDBRANCH  30  31
ENDBRANCH  29  30
ENDBRANCH   1  29
TORSDOF 8
ENDMDL
MODEL 2
REMARK VINA RESULT:      -7.8      2.501      3.826
REMARK  8 active torsions:
REMARK  status: ('A' for Active; 'I' for Inactive)
REMARK    1  A    between atoms: C_2  and  N_3 
REMARK    2  A    between atoms: N_3  and  C_4 
REMARK    3  A    between atoms: C_4  and  N_5 
REMARK    4  A    between atoms: N_5  and  C_6 
REMARK    5  A    between atoms: N_5  and  C_21 
REMARK    6  A    between atoms: C_6  and  C_7 
REMARK    7  A    between atoms: C_21  and  C_22 
REMARK    8  A    between atoms: C_22  and  N_23 
ROOT
HETATM    1  N   UNL     1      40.050 -13.750   1.022  1.00  0.00    -0.352 N 
ENDROOT
BRANCH   1   2
HETATM    2  C   UNL     1      40.119 -12.705   1.926  1.00  0.00     0.174 C 
HETATM    3  S   UNL     1      38.759 -12.061   2.672  1.00  0.00    -0.041 SA
BRANCH   2   4
HETATM    4  N   UNL     1      41.319 -12.322   2.440  1.00  0.00    -0.333 N 
HETATM    5  H   UNL     1      41.814 -11.663   1.841  1.00  0.00     0.168 HD
BRANCH   4   6
HETATM    6  C   UNL     1      42.161 -12.944   3.386  1.00  0.00     0.034 A 
HETATM    7  C   UNL     1      43.251 -13.748   3.049  1.00  0.00     0.032 A 
HETATM    8  C   UNL     1      44.055 -14.302   4.049  1.00  0.00     0.044 A 
HETATM    9  C   UNL     1      43.777 -14.033   5.384  1.00  0.00     0.116 A 
HETATM   10  C   UNL     1      42.716 -13.212   5.737  1.00  0.00     0.044 A 
HETATM   11  F   UNL     1      44.549 -14.563   6.340  1.00  0.00    -0.206 F 
HETATM   12  C   UNL     1      41.914 -12.659   4.737  1.00  0.00     0.032 A 
ENDBRANCH   4   6
ENDBRANCH   2   4
ENDBRANCH   1   2
BRANCH   1  13
HETATM   13  C   UNL     1      39.372 -15.026   1.365  1.00  0.00     0.169 C 
BRANCH  13  14
HETATM   14  C   UNL     1      40.250 -15.924   2.191  1.00  0.00     0.029 A 
HETATM   15  C   UNL     1      41.225 -16.788   1.457  1.00  0.00     0.253 A 
HETATM   16  O   UNL     1      41.250 -16.815   0.229  1.00  0.00    -0.268 OA
HETATM   17  N   UNL     1      42.082 -17.549   2.202  1.00  0.00    -0.322 N 
HETATM   18  C   UNL     1      42.144 -17.509   3.601  1.00  0.00     0.048 A 
HETATM   19  H   UNL     1      42.738 -18.124   1.689  1.00  0.00     0.169 HD
HETATM   20  C   UNL     1      41.250 -16.669   4.300  1.00  0.00    -0.006 A 
HETATM   21  C   UNL     1      43.103 -18.270   4.272  1.00  0.00     0.070 A 
HETATM   22  C   UNL     1      41.320 -16.581   5.694  1.00  0.00     0.053 A 
HETATM   23  C   UNL     1      40.286 -15.874   3.535  1.00  0.00     0.028 A 
HETATM   24  C   UNL     1      42.288 -17.330   6.335  1.00  0.00     0.106 A 
HETATM   25  C   UNL     1      43.151 -18.149   5.645  1.00  0.00     0.107 A 
HETATM   26  O   UNL     1      42.519 -17.347   7.675  1.00  0.00    -0.323 OA
HETATM   27  O   UNL     1      44.029 -18.784   6.465  1.00  0.00    -0.323 OA
HETATM   28  C   UNL     1      43.649 -18.243   7.748  1.00  0.00     0.352 A 
ENDBRANCH  13  14
ENDBRANCH   1  13
BRANCH   1  29
HETATM   29  C   UNL     1      40.783 -13.714  -0.267  1.00  0.00     0.153 C 
BRANCH  29  30
HETATM   30  C   UNL     1      39.953 -13.239  -1.479  1.00  0.00     0.254 C 
BRANCH  30  31
HETATM   31  N   UNL     1      39.254 -14.392  -2.181  1.00  0.00    -0.066 N 
HETATM   32  H   UNL     1      38.997 -15.072  -1.448  1.00  0.00     0.280 HD
HETATM   33  C   UNL     1      37.964 -14.000  -2.894  1.00  0.00     0.261 C 
HETATM   34  C   UNL     1      37.342 -15.248  -3.532  1.00  0.00     0.195 C 
HETATM   35  O   UNL     1      38.255 -15.857  -4.452  1.00  0.00    -0.388 OA
HETATM   36  C   UNL     1      39.455 -16.288  -3.800  1.00  0.00     0.195 C 
HETATM   37  C   UNL     1      40.184 -15.104  -3.155  1.00  0.00     0.261 C 
ENDBRANCH  30  31
ENDBRANCH  29  30
ENDBRANCH   1  29
TORSDOF 8
ENDMDL
MODEL 3
REMARK VINA RESULT:      -7.7      1.782      2.365
REMARK  8 active torsions:
REMARK  status: ('A' for Active; 'I' for Inactive)
REMARK    1  A    between atoms: C_2  and  N_3 
REMARK    2  A    between atoms: N_3  and  C_4 
REMARK    3  A    between atoms: C_4  and  N_5 
REMARK    4  A    between atoms: N_5  and  C_6 
REMARK    5  A    between atoms: N_5  and  C_21 
REMARK    6  A    between atoms: C_6  and  C_7 
REMARK    7  A    between atoms: C_21  and  C_22 
REMARK    8  A    between atoms: C_22  and  N_23 
ROOT
HETATM    1  N   UNL     1      40.726 -13.126   2.077  1.00  0.00    -0.352 N 
ENDROOT
BRANCH   1   2
HETATM    2  C   UNL     1      40.202 -12.482   3.183  1.00  0.00     0.174 C 
HETATM    3  S   UNL     1      38.685 -11.760   3.176  1.00  0.00    -0.041 SA
BRANCH   2   4
HETATM    4  N   UNL     1      40.787 -12.629   4.402  1.00  0.00    -0.333 N 
HETATM    5  H   UNL     1      41.335 -11.815   4.679  1.00  0.00     0.168 HD
BRANCH   4   6
HETATM    6  C   UNL     1      41.116 -13.787   5.138  1.00  0.00     0.034 A 
HETATM    7  C   UNL     1      40.182 -14.740   5.549  1.00  0.00     0.032 A 
HETATM    8  C   UNL     1      40.596 -15.877   6.249  1.00  0.00     0.044 A 
HETATM    9  C   UNL     1      41.945 -16.067   6.519  1.00  0.00     0.116 A 
HETATM   10  C   UNL     1      42.891 -15.145   6.093  1.00  0.00     0.044 A 
HETATM   11  F   UNL     1      42.339 -17.157   7.188  1.00  0.00    -0.206 F 
HETATM   12  C   UNL     1      42.477 -14.010   5.393  1.00  0.00     0.032 A 
ENDBRANCH   4   6
ENDBRANCH   2   4
ENDBRANCH   1   2
BRANCH   1  13
HETATM   13  C   UNL     1      40.055 -14.308   1.478  1.00  0.00     0.169 C 
BRANCH  13  14
HETATM   14  C   UNL     1      40.938 -15.523   1.494  1.00  0.00     0.029 A 
HETATM   15  C   UNL     1      41.647 -15.869   0.224  1.00  0.00     0.253 A 
HETATM   16  O   UNL     1      41.453 -15.227  -0.806  1.00  0.00    -0.268 OA
HETATM   17  N   UNL     1      42.514 -16.926   0.250  1.00  0.00    -0.322 N 
HETATM   18  C   UNL     1      42.825 -17.650   1.408  1.00  0.00     0.048 A 
HETATM   19  H   UNL     1      42.989 -17.142  -0.617  1.00  0.00     0.169 HD
HETATM   20  C   UNL     1      42.185 -17.308   2.620  1.00  0.00    -0.006 A 
HETATM   21  C   UNL     1      43.777 -18.668   1.351  1.00  0.00     0.070 A 
HETATM   22  C   UNL     1      42.509 -17.989   3.797  1.00  0.00     0.053 A 
HETATM   23  C   UNL     1      41.215 -16.210   2.619  1.00  0.00     0.028 A 
HETATM   24  C   UNL     1      43.468 -18.981   3.719  1.00  0.00     0.106 A 
HETATM   25  C   UNL     1      44.081 -19.310   2.533  1.00  0.00     0.107 A 
HETATM   26  O   UNL     1      43.925 -19.724   4.762  1.00  0.00    -0.323 OA
HETATM   27  O   UNL     1      44.998 -20.302   2.682  1.00  0.00    -0.323 OA
HETATM   28  C   UNL     1      44.923 -20.535   4.105  1.00  0.00     0.352 A 
ENDBRANCH  13  14
ENDBRANCH   1  13
BRANCH   1  29
HETATM   29  C   UNL     1      42.061 -12.775   1.533  1.00  0.00     0.153 C 
BRANCH  29  30
HETATM   30  C   UNL     1      42.053 -11.707   0.418  1.00  0.00     0.254 C 
BRANCH  30  31
HETATM   31  N   UNL     1      41.668 -12.292  -0.932  1.00  0.00    -0.066 N 
HETATM   32  H   UNL     1      41.565 -13.309  -0.795  1.00  0.00     0.280 HD
HETATM   33  C   UNL     1      40.339 -11.781  -1.478  1.00  0.00     0.261 C 
HETATM   34  C   UNL     1      40.050 -12.463  -2.820  1.00  0.00     0.195 C 
HETATM   35  O   UNL     1      41.104 -12.210  -3.756  1.00  0.00    -0.388 OA
HETATM   36  C   UNL     1      42.356 -12.729  -3.296  1.00  0.00     0.195 C 
HETATM   37  C   UNL     1      42.765 -12.081  -1.968  1.00  0.00     0.261 C 
ENDBRANCH  30  31
ENDBRANCH  29  30
ENDBRANCH   1  29
TORSDOF 8
ENDMDL
MODEL 4
REMARK VINA RESULT:      -7.7      2.730      6.108
REMARK  8 active torsions:
REMARK  status: ('A' for Active; 'I' for Inactive)
REMARK    1  A    between atoms: C_2  and  N_3 
REMARK    2  A    between atoms: N_3  and  C_4 
REMARK    3  A    between atoms: C_4  and  N_5 
REMARK    4  A    between atoms: N_5  and  C_6 
REMARK    5  A    between atoms: N_5  and  C_21 
REMARK    6  A    between atoms: C_6  and  C_7 
REMARK    7  A    between atoms: C_21  and  C_22 
REMARK    8  A    between atoms: C_22  and  N_23 
ROOT
HETATM    1  N   UNL     1      41.285 -14.670   2.758  1.00  0.00    -0.352 N 
ENDROOT
BRANCH   1   2
HETATM    2  C   UNL     1      40.507 -14.093   1.771  1.00  0.00     0.174 C 
HETATM    3  S   UNL     1      39.317 -12.955   2.106  1.00  0.00    -0.041 SA
BRANCH   2   4
HETATM    4  N   UNL     1      40.846 -14.234   0.462  1.00  0.00    -0.333 N 
HETATM    5  H   UNL     1      41.015 -15.204   0.199  1.00  0.00     0.168 HD
BRANCH   4   6
HETATM    6  C   UNL     1      41.392 -13.313  -0.458  1.00  0.00     0.034 A 
HETATM    7  C   UNL     1      42.183 -12.223  -0.091  1.00  0.00     0.032 A 
HETATM    8  C   UNL     1      42.712 -11.375  -1.069  1.00  0.00     0.044 A 
HETATM    9  C   UNL     1      42.463 -11.632  -2.411  1.00  0.00     0.116 A 
HETATM   10  C   UNL     1      41.704 -12.728  -2.796  1.00  0.00     0.044 A 
HETATM   11  F   UNL     1      42.972 -10.820  -3.346  1.00  0.00    -0.206 F 
HETATM   12  C   UNL     1      41.177 -13.575  -1.819  1.00  0.00     0.032 A 
ENDBRANCH   4   6
ENDBRANCH   2   4
ENDBRANCH   1   2
BRANCH   1  13
HETATM   13  C   UNL     1      42.704 -15.032   2.512  1.00  0.00     0.169 C 
BRANCH  13  14
HETATM   14  C   UNL     1      42.912 -16.520   2.513  1.00  0.00     0.029 A 
HETATM   15  C   UNL     1      42.767 -17.231   1.205  1.00  0.00     0.253 A 
HETATM   16  O   UNL     1      42.420 -16.630   0.192  1.00  0.00    -0.268 OA
HETATM   17  N   UNL     1      43.033 -18.572   1.181  1.00  0.00    -0.322 N 
HETATM   18  C   UNL     1      43.497 -19.294   2.287  1.00  0.00     0.048 A 
HETATM   19  H   UNL     1      42.935 -19.035   0.286  1.00  0.00     0.169 HD
HETATM   20  C   UNL     1      43.669 -18.623   3.518  1.00  0.00    -0.006 A 
HETATM   21  C   UNL     1      43.809 -20.647   2.147  1.00  0.00     0.070 A 
HETATM   22  C   UNL     1      44.169 -19.315   4.626  1.00  0.00     0.053 A 
HETATM   23  C   UNL     1      43.350 -17.196   3.592  1.00  0.00     0.028 A 
HETATM   24  C   UNL     1      44.488 -20.648   4.458  1.00  0.00     0.106 A 
HETATM   25  C   UNL     1      44.311 -21.294   3.256  1.00  0.00     0.107 A 
HETATM   26  O   UNL     1      45.009 -21.464   5.412  1.00  0.00    -0.323 OA
HETATM   27  O   UNL     1      44.698 -22.596   3.307  1.00  0.00    -0.323 OA
HETATM   28  C   UNL     1      45.176 -22.690   4.666  1.00  0.00     0.352 A 
ENDBRANCH  13  14
ENDBRANCH   1  13
BRANCH   1  29
HETATM   29  C   UNL     1      40.705 -15.105   4.052  1.00  0.00     0.153 C 
BRANCH  29  30
HETATM   30  C   UNL     1      41.043 -14.202   5.258  1.00  0.00     0.254 C 
BRANCH  30  31
HETATM   31  N   UNL     1      41.910 -14.917   6.282  1.00  0.00    -0.066 N 
HETATM   32  H   UNL     1      41.648 -14.540   7.206  1.00  0.00     0.280 HD
HETATM   33  C   UNL     1      41.693 -16.425   6.341  1.00  0.00     0.261 C 
HETATM   34  C   UNL     1      42.597 -17.022   7.425  1.00  0.00     0.195 C 
HETATM   35  O   UNL     1      43.973 -16.726   7.159  1.00  0.00    -0.388 OA
HETATM   36  C   UNL     1      44.219 -15.316   7.154  1.00  0.00     0.195 C 
HETATM   37  C   UNL     1      43.389 -14.618   6.071  1.00  0.00     0.261 C 
ENDBRANCH  30  31
ENDBRANCH  29  30
ENDBRANCH   1  29
TORSDOF 8
ENDMDL
MODEL 5
REMARK VINA RESULT:      -7.7      3.453      7.463
REMARK  8 active torsions:
REMARK  status: ('A' for Active; 'I' for Inactive)
REMARK    1  A    between atoms: C_2  and  N_3 
REMARK    2  A    between atoms: N_3  and  C_4 
REMARK    3  A    between atoms: C_4  and  N_5 
REMARK    4  A    between atoms: N_5  and  C_6 
REMARK    5  A    between atoms: N_5  and  C_21 
REMARK    6  A    between atoms: C_6  and  C_7 
REMARK    7  A    between atoms: C_21  and  C_22 
REMARK    8  A    between atoms: C_22  and  N_23 
ROOT
HETATM    1  N   UNL     1      42.497 -15.578   6.113  1.00  0.00    -0.352 N 
ENDROOT
BRANCH   1   2
HETATM    2  C   UNL     1      43.232 -16.749   6.074  1.00  0.00     0.174 C 
HETATM    3  S   UNL     1      43.059 -17.965   7.220  1.00  0.00    -0.041 SA
BRANCH   2   4
HETATM    4  N   UNL     1      43.942 -17.074   4.961  1.00  0.00    -0.333 N 
HETATM    5  H   UNL     1      44.404 -16.271   4.537  1.00  0.00     0.168 HD
BRANCH   4   6
HETATM    6  C   UNL     1      43.833 -18.172   4.081  1.00  0.00     0.034 A 
HETATM    7  C   UNL     1      43.076 -18.158   2.909  1.00  0.00     0.032 A 
HETATM    8  C   UNL     1      43.046 -19.280   2.075  1.00  0.00     0.044 A 
HETATM    9  C   UNL     1      43.790 -20.405   2.407  1.00  0.00     0.116 A 
HETATM   10  C   UNL     1      44.572 -20.427   3.553  1.00  0.00     0.044 A 
HETATM   11  F   UNL     1      43.761 -21.478   1.607  1.00  0.00    -0.206 F 
HETATM   12  C   UNL     1      44.601 -19.306   4.385  1.00  0.00     0.032 A 
ENDBRANCH   4   6
ENDBRANCH   2   4
ENDBRANCH   1   2
BRANCH   1  13
HETATM   13  C   UNL     1      41.018 -15.586   5.971  1.00  0.00     0.169 C 
BRANCH  13  14
HETATM   14  C   UNL     1      40.579 -15.052   4.637  1.00  0.00     0.029 A 
HETATM   15  C   UNL     1      39.880 -13.730   4.627  1.00  0.00     0.253 A 
HETATM   16  O   UNL     1      39.613 -13.146   5.673  1.00  0.00    -0.268 OA
HETATM   17  N   UNL     1      39.549 -13.199   3.411  1.00  0.00    -0.322 N 
HETATM   18  C   UNL     1      39.888 -13.787   2.186  1.00  0.00     0.048 A 
HETATM   19  H   UNL     1      39.081 -12.302   3.423  1.00  0.00     0.169 HD
HETATM   20  C   UNL     1      40.577 -15.020   2.186  1.00  0.00    -0.006 A 
HETATM   21  C   UNL     1      39.567 -13.134   0.994  1.00  0.00     0.070 A 
HETATM   22  C   UNL     1      40.962 -15.605   0.976  1.00  0.00     0.053 A 
HETATM   23  C   UNL     1      40.909 -15.640   3.471  1.00  0.00     0.028 A 
HETATM   24  C   UNL     1      40.650 -14.931  -0.189  1.00  0.00     0.106 A 
HETATM   25  C   UNL     1      39.972 -13.734  -0.179  1.00  0.00     0.107 A 
HETATM   26  O   UNL     1      40.969 -15.335  -1.447  1.00  0.00    -0.323 OA
HETATM   27  O   UNL     1      39.780 -13.238  -1.430  1.00  0.00    -0.323 OA
HETATM   28  C   UNL     1      40.447 -14.239  -2.229  1.00  0.00     0.352 A 
ENDBRANCH  13  14
ENDBRANCH   1  13
BRANCH   1  29
HETATM   29  C   UNL     1      43.153 -14.247   6.135  1.00  0.00     0.153 C 
BRANCH  29  30
HETATM   30  C   UNL     1      44.449 -14.170   6.970  1.00  0.00     0.254 C 
BRANCH  30  31
HETATM   31  N   UNL     1      44.338 -13.169   8.108  1.00  0.00    -0.066 N 
HETATM   32  H   UNL     1      43.970 -13.686   8.922  1.00  0.00     0.280 HD
HETATM   33  C   UNL     1      45.668 -12.557   8.536  1.00  0.00     0.261 C 
HETATM   34  C   UNL     1      45.427 -11.593   9.703  1.00  0.00     0.195 C 
HETATM   35  O   UNL     1      44.502 -10.565   9.331  1.00  0.00    -0.388 OA
HETATM   36  C   UNL     1      43.224 -11.106   8.978  1.00  0.00     0.195 C 
HETATM   37  C   UNL     1      43.342 -12.061   7.786  1.00  0.00     0.261 C 
ENDBRANCH  30  31
ENDBRANCH  29  30
ENDBRANCH   1  29
TORSDOF 8
ENDMDL
MODEL 6
REMARK VINA RESULT:      -7.7      3.908      6.587
REMARK  8 active torsions:
REMARK  status: ('A' for Active; 'I' for Inactive)
REMARK    1  A    between atoms: C_2  and  N_3 
REMARK    2  A    between atoms: N_3  and  C_4 
REMARK    3  A    between atoms: C_4  and  N_5 
REMARK    4  A    between atoms: N_5  and  C_6 
REMARK    5  A    between atoms: N_5  and  C_21 
REMARK    6  A    between atoms: C_6  and  C_7 
REMARK    7  A    between atoms: C_21  and  C_22 
REMARK    8  A    between atoms: C_22  and  N_23 
ROOT
HETATM    1  N   UNL     1      42.307 -16.332   3.999  1.00  0.00    -0.352 N 
ENDROOT
BRANCH   1   2
HETATM    2  C   UNL     1      42.945 -17.082   4.970  1.00  0.00     0.174 C 
HETATM    3  S   UNL     1      42.253 -17.405   6.466  1.00  0.00    -0.041 SA
BRANCH   2   4
HETATM    4  N   UNL     1      44.056 -17.803   4.658  1.00  0.00    -0.333 N 
HETATM    5  H   UNL     1      44.861 -17.216   4.444  1.00  0.00     0.168 HD
BRANCH   4   6
HETATM    6  C   UNL     1      44.198 -19.125   4.187  1.00  0.00     0.034 A 
HETATM    7  C   UNL     1      43.981 -19.507   2.862  1.00  0.00     0.032 A 
HETATM    8  C   UNL     1      44.175 -20.835   2.470  1.00  0.00     0.044 A 
HETATM    9  C   UNL     1      44.605 -21.772   3.401  1.00  0.00     0.116 A 
HETATM   10  C   UNL     1      44.856 -21.405   4.715  1.00  0.00     0.044 A 
HETATM   11  F   UNL     1      44.792 -23.043   3.023  1.00  0.00    -0.206 F 
HETATM   12  C   UNL     1      44.662 -20.078   5.105  1.00  0.00     0.032 A 
ENDBRANCH   4   6
ENDBRANCH   2   4
ENDBRANCH   1   2
BRANCH   1  13
HETATM   13  C   UNL     1      42.843 -15.019   3.557  1.00  0.00     0.169 C 
BRANCH  13  14
HETATM   14  C   UNL     1      42.950 -14.044   4.695  1.00  0.00     0.029 A 
HETATM   15  C   UNL     1      41.838 -13.056   4.853  1.00  0.00     0.253 A 
HETATM   16  O   UNL     1      40.918 -13.000   4.042  1.00  0.00    -0.268 OA
HETATM   17  N   UNL     1      41.886 -12.217   5.932  1.00  0.00    -0.322 N 
HETATM   18  C   UNL     1      42.873 -12.280   6.925  1.00  0.00     0.048 A 
HETATM   19  H   UNL     1      41.123 -11.559   6.027  1.00  0.00     0.169 HD
HETATM   20  C   UNL     1      43.908 -13.233   6.800  1.00  0.00    -0.006 A 
HETATM   21  C   UNL     1      42.798 -11.428   8.027  1.00  0.00     0.070 A 
HETATM   22  C   UNL     1      44.881 -13.342   7.798  1.00  0.00     0.053 A 
HETATM   23  C   UNL     1      43.913 -14.118   5.632  1.00  0.00     0.028 A 
HETATM   24  C   UNL     1      44.776 -12.500   8.888  1.00  0.00     0.106 A 
HETATM   25  C   UNL     1      43.768 -11.571   8.998  1.00  0.00     0.107 A 
HETATM   26  O   UNL     1      45.612 -12.486   9.961  1.00  0.00    -0.323 OA
HETATM   27  O   UNL     1      43.845 -10.856  10.151  1.00  0.00    -0.323 OA
HETATM   28  C   UNL     1      44.995 -11.466  10.777  1.00  0.00     0.352 A 
ENDBRANCH  13  14
ENDBRANCH   1  13
BRANCH   1  29
HETATM   29  C   UNL     1      40.976 -16.717   3.468  1.00  0.00     0.153 C 
BRANCH  29  30
HETATM   30  C   UNL     1      40.944 -17.048   1.960  1.00  0.00     0.254 C 
BRANCH  30  31
HETATM   31  N   UNL     1      40.094 -16.061   1.176  1.00  0.00    -0.066 N 
HETATM   32  H   UNL     1      39.487 -16.620   0.556  1.00  0.00     0.280 HD
HETATM   33  C   UNL     1      39.175 -15.204   2.040  1.00  0.00     0.261 C 
HETATM   34  C   UNL     1      38.353 -14.277   1.136  1.00  0.00     0.195 C 
HETATM   35  O   UNL     1      39.211 -13.447   0.345  1.00  0.00    -0.388 OA
HETATM   36  C   UNL     1      40.048 -14.224  -0.519  1.00  0.00     0.195 C 
HETATM   37  C   UNL     1      40.948 -15.165   0.288  1.00  0.00     0.261 C 
ENDBRANCH  30  31
ENDBRANCH  29  30
ENDBRANCH   1  29
TORSDOF 8
ENDMDL
MODEL 7
REMARK VINA RESULT:      -7.6      2.140      3.048
REMARK  8 active torsions:
REMARK  status: ('A' for Active; 'I' for Inactive)
REMARK    1  A    between atoms: C_2  and  N_3 
REMARK    2  A    between atoms: N_3  and  C_4 
REMARK    3  A    between atoms: C_4  and  N_5 
REMARK    4  A    between atoms: N_5  and  C_6 
REMARK    5  A    between atoms: N_5  and  C_21 
REMARK    6  A    between atoms: C_6  and  C_7 
REMARK    7  A    between atoms: C_21  and  C_22 
REMARK    8  A    between atoms: C_22  and  N_23 
ROOT
HETATM    1  N   UNL     1      41.324 -14.995   0.969  1.00  0.00    -0.352 N 
ENDROOT
BRANCH   1   2
HETATM    2  C   UNL     1      40.361 -14.504   1.832  1.00  0.00     0.174 C 
HETATM    3  S   UNL     1      39.660 -12.990   1.640  1.00  0.00    -0.041 SA
BRANCH   2   4
HETATM    4  N   UNL     1      39.758 -15.332   2.727  1.00  0.00    -0.333 N 
HETATM    5  H   UNL     1      38.741 -15.279   2.692  1.00  0.00     0.168 HD
BRANCH   4   6
HETATM    6  C   UNL     1      40.237 -15.911   3.921  1.00  0.00     0.034 A 
HETATM    7  C   UNL     1      40.578 -17.259   4.052  1.00  0.00     0.032 A 
HETATM    8  C   UNL     1      41.076 -17.746   5.264  1.00  0.00     0.044 A 
HETATM    9  C   UNL     1      41.248 -16.879   6.336  1.00  0.00     0.116 A 
HETATM   10  C   UNL     1      40.943 -15.531   6.216  1.00  0.00     0.044 A 
HETATM   11  F   UNL     1      41.726 -17.347   7.495  1.00  0.00    -0.206 F 
HETATM   12  C   UNL     1      40.446 -15.045   5.005  1.00  0.00     0.032 A 
ENDBRANCH   4   6
ENDBRANCH   2   4
ENDBRANCH   1   2
BRANCH   1  13
HETATM   13  C   UNL     1      42.773 -14.836   1.254  1.00  0.00     0.169 C 
BRANCH  13  14
HETATM   14  C   UNL     1      43.327 -16.006   2.016  1.00  0.00     0.029 A 
HETATM   15  C   UNL     1      43.694 -15.776   3.448  1.00  0.00     0.253 A 
HETATM   16  O   UNL     1      43.614 -14.659   3.952  1.00  0.00    -0.268 OA
HETATM   17  N   UNL     1      44.124 -16.853   4.172  1.00  0.00    -0.322 N 
HETATM   18  C   UNL     1      44.171 -18.160   3.670  1.00  0.00     0.048 A 
HETATM   19  H   UNL     1      44.363 -16.681   5.140  1.00  0.00     0.169 HD
HETATM   20  C   UNL     1      43.794 -18.391   2.328  1.00  0.00    -0.006 A 
HETATM   21  C   UNL     1      44.557 -19.208   4.507  1.00  0.00     0.070 A 
HETATM   22  C   UNL     1      43.794 -19.693   1.818  1.00  0.00     0.053 A 
HETATM   23  C   UNL     1      43.371 -17.252   1.510  1.00  0.00     0.028 A 
HETATM   24  C   UNL     1      44.162 -20.715   2.670  1.00  0.00     0.106 A 
HETATM   25  C   UNL     1      44.534 -20.479   3.974  1.00  0.00     0.107 A 
HETATM   26  O   UNL     1      44.193 -22.037   2.355  1.00  0.00    -0.323 OA
HETATM   27  O   UNL     1      44.846 -21.623   4.638  1.00  0.00    -0.323 OA
HETATM   28  C   UNL     1      44.591 -22.613   3.618  1.00  0.00     0.352 A 
ENDBRANCH  13  14
ENDBRANCH   1  13
BRANCH   1  29
HETATM   29  C   UNL     1      40.967 -15.559  -0.356  1.00  0.00     0.153 C 
BRANCH  29  30
HETATM   30  C   UNL     1      40.402 -14.543  -1.371  1.00  0.00     0.254 C 
BRANCH  30  31
HETATM   31  N   UNL     1      39.343 -15.160  -2.269  1.00  0.00    -0.066 N 
HETATM   32  H   UNL     1      38.929 -15.945  -1.743  1.00  0.00     0.280 HD
HETATM   33  C   UNL     1      38.199 -14.216  -2.627  1.00  0.00     0.261 C 
HETATM   34  C   UNL     1      37.188 -14.960  -3.506  1.00  0.00     0.195 C 
HETATM   35  O   UNL     1      37.815 -15.457  -4.694  1.00  0.00    -0.388 OA
HETATM   36  C   UNL     1      38.857 -16.391  -4.391  1.00  0.00     0.195 C 
HETATM   37  C   UNL     1      39.952 -15.735  -3.542  1.00  0.00     0.261 C 
ENDBRANCH  30  31
ENDBRANCH  29  30
ENDBRANCH   1  29
TORSDOF 8
ENDMDL
MODEL 8
REMARK VINA RESULT:      -7.6      3.664      6.786
REMARK  8 active torsions:
REMARK  status: ('A' for Active; 'I' for Inactive)
REMARK    1  A    between atoms: C_2  and  N_3 
REMARK    2  A    between atoms: N_3  and  C_4 
REMARK    3  A    between atoms: C_4  and  N_5 
REMARK    4  A    between atoms: N_5  and  C_6 
REMARK    5  A    between atoms: N_5  and  C_21 
REMARK    6  A    between atoms: C_6  and  C_7 
REMARK    7  A    between atoms: C_21  and  C_22 
REMARK    8  A    between atoms: C_22  and  N_23 
ROOT
HETATM    1  N   UNL     1      41.586 -13.903   0.159  1.00  0.00    -0.352 N 
ENDROOT
BRANCH   1   2
HETATM    2  C   UNL     1      41.770 -13.657  -1.190  1.00  0.00     0.174 C 
HETATM    3  S   UNL     1      42.750 -12.417  -1.759  1.00  0.00    -0.041 SA
BRANCH   2   4
HETATM    4  N   UNL     1      41.365 -14.569  -2.113  1.00  0.00    -0.333 N 
HETATM    5  H   UNL     1      42.142 -14.990  -2.621  1.00  0.00     0.168 HD
BRANCH   4   6
HETATM    6  C   UNL     1      40.127 -14.736  -2.769  1.00  0.00     0.034 A 
HETATM    7  C   UNL     1      39.798 -15.852  -3.541  1.00  0.00     0.032 A 
HETATM    8  C   UNL     1      38.535 -15.954  -4.131  1.00  0.00     0.044 A 
HETATM    9  C   UNL     1      37.598 -14.948  -3.931  1.00  0.00     0.116 A 
HETATM   10  C   UNL     1      37.896 -13.846  -3.142  1.00  0.00     0.044 A 
HETATM   11  F   UNL     1      36.388 -15.049  -4.496  1.00  0.00    -0.206 F 
HETATM   12  C   UNL     1      39.157 -13.746  -2.552  1.00  0.00     0.032 A 
ENDBRANCH   4   6
ENDBRANCH   2   4
ENDBRANCH   1   2
BRANCH   1  13
HETATM   13  C   UNL     1      40.690 -14.988   0.633  1.00  0.00     0.169 C 
BRANCH  13  14
HETATM   14  C   UNL     1      41.343 -15.835   1.688  1.00  0.00     0.029 A 
HETATM   15  C   UNL     1      40.766 -15.775   3.066  1.00  0.00     0.253 A 
HETATM   16  O   UNL     1      39.844 -15.009   3.335  1.00  0.00    -0.268 OA
HETATM   17  N   UNL     1      41.302 -16.603   4.013  1.00  0.00    -0.322 N 
HETATM   18  C   UNL     1      42.305 -17.543   3.748  1.00  0.00     0.048 A 
HETATM   19  H   UNL     1      40.895 -16.553   4.939  1.00  0.00     0.169 HD
HETATM   20  C   UNL     1      42.833 -17.629   2.441  1.00  0.00    -0.006 A 
HETATM   21  C   UNL     1      42.741 -18.394   4.765  1.00  0.00     0.070 A 
HETATM   22  C   UNL     1      43.806 -18.588   2.142  1.00  0.00     0.053 A 
HETATM   23  C   UNL     1      42.313 -16.726   1.411  1.00  0.00     0.028 A 
HETATM   24  C   UNL     1      44.208 -19.431   3.161  1.00  0.00     0.106 A 
HETATM   25  C   UNL     1      43.692 -19.335   4.432  1.00  0.00     0.107 A 
HETATM   26  O   UNL     1      45.118 -20.434   3.046  1.00  0.00    -0.323 OA
HETATM   27  O   UNL     1      44.215 -20.264   5.274  1.00  0.00    -0.323 OA
HETATM   28  C   UNL     1      45.092 -20.985   4.381  1.00  0.00     0.352 A 
ENDBRANCH  13  14
ENDBRANCH   1  13
BRANCH   1  29
HETATM   29  C   UNL     1      42.143 -13.002   1.197  1.00  0.00     0.153 C 
BRANCH  29  30
HETATM   30  C   UNL     1      41.121 -12.049   1.854  1.00  0.00     0.254 C 
BRANCH  30  31
HETATM   31  N   UNL     1      41.038 -12.249   3.359  1.00  0.00    -0.066 N 
HETATM   32  H   UNL     1      40.330 -12.981   3.521  1.00  0.00     0.280 HD
HETATM   33  C   UNL     1      42.334 -12.736   3.997  1.00  0.00     0.261 C 
HETATM   34  C   UNL     1      42.114 -12.927   5.502  1.00  0.00     0.195 C 
HETATM   35  O   UNL     1      41.686 -11.703   6.113  1.00  0.00    -0.388 OA
HETATM   36  C   UNL     1      40.440 -11.250   5.572  1.00  0.00     0.195 C 
HETATM   37  C   UNL     1      40.558 -10.987   4.067  1.00  0.00     0.261 C 
ENDBRANCH  30  31
ENDBRANCH  29  30
ENDBRANCH   1  29
TORSDOF 8
ENDMDL
MODEL 9
REMARK VINA RESULT:      -7.5      3.408      5.107
REMARK  8 active torsions:
REMARK  status: ('A' for Active; 'I' for Inactive)
REMARK    1  A    between atoms: C_2  and  N_3 
REMARK    2  A    between atoms: N_3  and  C_4 
REMARK    3  A    between atoms: C_4  and  N_5 
REMARK    4  A    between atoms: N_5  and  C_6 
REMARK    5  A    between atoms: N_5  and  C_21 
REMARK    6  A    between atoms: C_6  and  C_7 
REMARK    7  A    between atoms: C_21  and  C_22 
REMARK    8  A    between atoms: C_22  and  N_23 
ROOT
HETATM    1  N   UNL     1      41.651 -14.318   5.233  1.00  0.00    -0.352 N 
ENDROOT
BRANCH   1   2
HETATM    2  C   UNL     1      40.829 -15.414   5.043  1.00  0.00     0.174 C 
HETATM    3  S   UNL     1      40.508 -16.527   6.259  1.00  0.00    -0.041 SA
BRANCH   2   4
HETATM    4  N   UNL     1      40.043 -15.497   3.936  1.00  0.00    -0.333 N 
HETATM    5  H   UNL     1      39.109 -15.847   4.139  1.00  0.00     0.168 HD
BRANCH   4   6
HETATM    6  C   UNL     1      40.378 -15.587   2.568  1.00  0.00     0.034 A 
HETATM    7  C   UNL     1      40.525 -14.482   1.727  1.00  0.00     0.032 A 
HETATM    8  C   UNL     1      40.891 -14.657   0.389  1.00  0.00     0.044 A 
HETATM    9  C   UNL     1      41.126 -15.937  -0.098  1.00  0.00     0.116 A 
HETATM   10  C   UNL     1      41.014 -17.045   0.729  1.00  0.00     0.044 A 
HETATM   11  F   UNL     1      41.477 -16.102  -1.380  1.00  0.00    -0.206 F 
HETATM   12  C   UNL     1      40.650 -16.868   2.066  1.00  0.00     0.032 A 
ENDBRANCH   4   6
ENDBRANCH   2   4
ENDBRANCH   1   2
BRANCH   1  13
HETATM   13  C   UNL     1      43.112 -14.391   4.978  1.00  0.00     0.169 C 
BRANCH  13  14
HETATM   14  C   UNL     1      43.609 -15.809   4.969  1.00  0.00     0.029 A 
HETATM   15  C   UNL     1      44.020 -16.396   6.282  1.00  0.00     0.253 A 
HETATM   16  O   UNL     1      44.020 -15.721   7.307  1.00  0.00    -0.268 OA
HETATM   17  N   UNL     1      44.398 -17.710   6.297  1.00  0.00    -0.322 N 
HETATM   18  C   UNL     1      44.354 -18.546   5.174  1.00  0.00     0.048 A 
HETATM   19  H   UNL     1      44.668 -18.092   7.194  1.00  0.00     0.169 HD
HETATM   20  C   UNL     1      43.935 -18.008   3.937  1.00  0.00    -0.006 A 
HETATM   21  C   UNL     1      44.693 -19.894   5.303  1.00  0.00     0.070 A 
HETATM   22  C   UNL     1      43.844 -18.833   2.811  1.00  0.00     0.053 A 
HETATM   23  C   UNL     1      43.566 -16.592   3.875  1.00  0.00     0.028 A 
HETATM   24  C   UNL     1      44.167 -20.167   2.968  1.00  0.00     0.106 A 
HETATM   25  C   UNL     1      44.580 -20.680   4.175  1.00  0.00     0.107 A 
HETATM   26  O   UNL     1      44.110 -21.115   1.995  1.00  0.00    -0.323 OA
HETATM   27  O   UNL     1      44.835 -22.013   4.111  1.00  0.00    -0.323 OA
HETATM   28  C   UNL     1      44.499 -22.293   2.734  1.00  0.00     0.352 A 
ENDBRANCH  13  14
ENDBRANCH   1  13
BRANCH   1  29
HETATM   29  C   UNL     1      41.148 -13.066   5.851  1.00  0.00     0.153 C 
BRANCH  29  30
HETATM   30  C   UNL     1      41.607 -11.764   5.161  1.00  0.00     0.254 C 
BRANCH  30  31
HETATM   31  N   UNL     1      40.438 -10.971   4.600  1.00  0.00    -0.066 N 
HETATM   32  H   UNL     1      40.793 -10.465   3.774  1.00  0.00     0.280 HD
HETATM   33  C   UNL     1      39.271 -11.830   4.126  1.00  0.00     0.261 C 
HETATM   34  C   UNL     1      38.175 -10.922   3.557  1.00  0.00     0.195 C 
HETATM   35  O   UNL     1      37.733  -9.980   4.542  1.00  0.00    -0.388 OA
HETATM   36  C   UNL     1      38.797  -9.121   4.966  1.00  0.00     0.195 C 
HETATM   37  C   UNL     1      39.939  -9.928   5.592  1.00  0.00     0.261 C 
ENDBRANCH  30  31
ENDBRANCH  29  30
ENDBRANCH   1  29
TORSDOF 8
ENDMDL
MODEL 10
REMARK VINA RESULT:      -7.4      2.719      3.822
REMARK  8 active torsions:
REMARK  status: ('A' for Active; 'I' for Inactive)
REMARK    1  A    between atoms: C_2  and  N_3 
REMARK    2  A    between atoms: N_3  and  C_4 
REMARK    3  A    between atoms: C_4  and  N_5 
REMARK    4  A    between atoms: N_5  and  C_6 
REMARK    5  A    between atoms: N_5  and  C_21 
REMARK    6  A    between atoms: C_6  and  C_7 
REMARK    7  A    between atoms: C_21  and  C_22 
REMARK    8  A    between atoms: C_22  and  N_23 
ROOT
HETATM    1  N   UNL     1      41.266 -14.678   2.183  1.00  0.00    -0.352 N 
ENDROOT
BRANCH   1   2
HETATM    2  C   UNL     1      40.380 -13.871   2.872  1.00  0.00     0.174 C 
HETATM    3  S   UNL     1      39.107 -13.074   2.119  1.00  0.00    -0.041 SA
BRANCH   2   4
HETATM    4  N   UNL     1      40.351 -13.890   4.232  1.00  0.00    -0.333 N 
HETATM    5  H   UNL     1      39.907 -14.727   4.606  1.00  0.00     0.168 HD
BRANCH   4   6
HETATM    6  C   UNL     1      40.432 -12.843   5.174  1.00  0.00     0.034 A 
HETATM    7  C   UNL     1      41.283 -11.744   5.046  1.00  0.00     0.032 A 
HETATM    8  C   UNL     1      41.279 -10.733   6.012  1.00  0.00     0.044 A 
HETATM    9  C   UNL     1      40.409 -10.815   7.091  1.00  0.00     0.116 A 
HETATM   10  C   UNL     1      39.534 -11.884   7.220  1.00  0.00     0.044 A 
HETATM   11  F   UNL     1      40.405  -9.845   8.014  1.00  0.00    -0.206 F 
HETATM   12  C   UNL     1      39.539 -12.894   6.255  1.00  0.00     0.032 A 
ENDBRANCH   4   6
ENDBRANCH   2   4
ENDBRANCH   1   2
BRANCH   1  13
HETATM   13  C   UNL     1      42.728 -14.619   2.439  1.00  0.00     0.169 C 
BRANCH  13  14
HETATM   14  C   UNL     1      43.242 -15.889   3.058  1.00  0.00     0.029 A 
HETATM   15  C   UNL     1      43.349 -15.927   4.549  1.00  0.00     0.253 A 
HETATM   16  O   UNL     1      43.097 -14.935   5.229  1.00  0.00    -0.268 OA
HETATM   17  N   UNL     1      43.738 -17.104   5.125  1.00  0.00    -0.322 N 
HETATM   18  C   UNL     1      43.972 -18.283   4.406  1.00  0.00     0.048 A 
HETATM   19  H   UNL     1      43.800 -17.113   6.135  1.00  0.00     0.169 HD
HETATM   20  C   UNL     1      43.841 -18.264   3.000  1.00  0.00    -0.006 A 
HETATM   21  C   UNL     1      44.298 -19.455   5.091  1.00  0.00     0.070 A 
HETATM   22  C   UNL     1      44.029 -19.439   2.266  1.00  0.00     0.053 A 
HETATM   23  C   UNL     1      43.468 -17.008   2.345  1.00  0.00     0.028 A 
HETATM   24  C   UNL     1      44.333 -20.590   2.966  1.00  0.00     0.106 A 
HETATM   25  C   UNL     1      44.465 -20.597   4.335  1.00  0.00     0.107 A 
HETATM   26  O   UNL     1      44.521 -21.822   2.422  1.00  0.00    -0.323 OA
HETATM   27  O   UNL     1      44.754 -21.833   4.821  1.00  0.00    -0.323 OA
HETATM   28  C   UNL     1      44.751 -22.614   3.607  1.00  0.00     0.352 A 
ENDBRANCH  13  14
ENDBRANCH   1  13
BRANCH   1  29
HETATM   29  C   UNL     1      40.827 -15.524   1.046  1.00  0.00     0.153 C 
BRANCH  29  30
HETATM   30  C   UNL     1      41.251 -15.019  -0.349  1.00  0.00     0.254 C 
BRANCH  30  31
HETATM   31  N   UNL     1      40.160 -15.224  -1.388  1.00  0.00    -0.066 N 
HETATM   32  H   UNL     1      39.557 -15.985  -1.038  1.00  0.00     0.280 HD
HETATM   33  C   UNL     1      39.263 -14.009  -1.600  1.00  0.00     0.261 C 
HETATM   34  C   UNL     1      38.191 -14.350  -2.642  1.00  0.00     0.195 C 
HETATM   35  O   UNL     1      38.793 -14.747  -3.879  1.00  0.00    -0.388 OA
HETATM   36  C   UNL     1      39.598 -15.921  -3.723  1.00  0.00     0.195 C 
HETATM   37  C   UNL     1      40.735 -15.678  -2.724  1.00  0.00     0.261 C 
ENDBRANCH  30  31
ENDBRANCH  29  30
ENDBRANCH   1  29
TORSDOF 8
ENDMDL
