MODEL 1
REMARK VINA RESULT:      -6.8      0.000      0.000
REMARK  8 active torsions:
REMARK  status: ('A' for Active; 'I' for Inactive)
REMARK    1  A    between atoms: C_4  and  C_5 
REMARK    2  A    between atoms: C_5  and  N_6 
REMARK    3  A    between atoms: N_6  and  C_9 
REMARK    4  A    between atoms: C_9  and  C_10 
REMARK    5  A    between atoms: C_10  and  C_11 
REMARK    6  A    between atoms: C_11  and  N_12 
REMARK       I    between atoms: N_12  and  C_13 
REMARK    7  A    between atoms: C_13  and  C_14 
REMARK    8  A    between atoms: C_16  and  O_17 
ROOT
HETATM    1  C   UNL     1      40.217 -16.600   2.047  1.00  0.00     0.047 C 
ENDROOT
BRANCH   1   2
HETATM    2  C   UNL     1      40.143 -15.184   2.601  1.00  0.00     0.235 C 
BRANCH   2   3
HETATM    3  N   UNL     1      41.432 -14.798   3.254  1.00  0.00    -0.067 N 
HETATM    4  H   UNL     1      41.886 -14.066   2.685  1.00  0.00     0.277 HD
HETATM    5  H   UNL     1      42.109 -15.572   3.250  1.00  0.00     0.277 HD
BRANCH   3   6
HETATM    6  C   UNL     1      41.333 -14.277   4.664  1.00  0.00     0.223 C 
HETATM    7  C   UNL     1      39.884 -14.349   5.147  1.00  0.00     0.046 C 
BRANCH   6   8
HETATM    8  C   UNL     1      42.239 -15.022   5.594  1.00  0.00     0.032 A 
HETATM    9  S   UNL     1      41.801 -16.528   6.302  1.00  0.00    -0.076 SA
HETATM   10  C   UNL     1      43.289 -16.553   7.163  1.00  0.00     0.071 A 
HETATM   11  C   UNL     1      43.621 -17.673   8.088  1.00  0.00     0.078 C 
HETATM   12  N   UNL     1      44.079 -15.527   6.934  1.00  0.00    -0.257 NA
HETATM   13  C   UNL     1      43.486 -14.651   6.055  1.00  0.00     0.134 A 
ENDBRANCH   6   8
ENDBRANCH   3   6
ENDBRANCH   2   3
ENDBRANCH   1   2
BRANCH   1  14
HETATM   14  C   UNL     1      41.553 -16.897   1.364  1.00  0.00     0.124 C 
BRANCH  14  15
HETATM   15  N   UNL     1      42.199 -18.066   1.909  1.00  0.00    -0.357 N 
HETATM   16  C   UNL     1      43.256 -17.953   2.790  1.00  0.00     0.251 C 
HETATM   17  O   UNL     1      43.745 -16.869   3.092  1.00  0.00    -0.268 OA
HETATM   18  H   UNL     1      41.920 -18.987   1.586  1.00  0.00     0.162 HD
BRANCH  16  19
HETATM   19  C   UNL     1      43.806 -19.231   3.313  1.00  0.00     0.034 A 
HETATM   20  C   UNL     1      43.997 -20.296   2.427  1.00  0.00     0.053 A 
HETATM   21  C   UNL     1      44.488 -21.503   2.915  1.00  0.00     0.066 A 
HETATM   22  C   UNL     1      44.805 -21.657   4.261  1.00  0.00     0.036 A 
HETATM   23  C   UNL     1      44.638 -20.589   5.141  1.00  0.00     0.004 A 
HETATM   24  C   UNL     1      44.140 -19.373   4.669  1.00  0.00     0.017 A 
BRANCH  21  25
HETATM   25  O   UNL     1      44.675 -22.580   2.100  1.00  0.00    -0.361 OA
HETATM   26  H   UNL     1      44.449 -22.340   1.186  1.00  0.00     0.217 HD
ENDBRANCH  21  25
ENDBRANCH  16  19
ENDBRANCH  14  15
ENDBRANCH   1  14
TORSDOF 8
ENDMDL
MODEL 2
REMARK VINA RESULT:      -6.7      1.535      1.943
REMARK  8 active torsions:
REMARK  status: ('A' for Active; 'I' for Inactive)
REMARK    1  A    between atoms: C_4  and  C_5 
REMARK    2  A    between atoms: C_5  and  N_6 
REMARK    3  A    between atoms: N_6  and  C_9 
REMARK    4  A    between atoms: C_9  and  C_10 
REMARK    5  A    between atoms: C_10  and  C_11 
REMARK    6  A    between atoms: C_11  and  N_12 
REMARK       I    between atoms: N_12  and  C_13 
REMARK    7  A    between atoms: C_13  and  C_14 
REMARK    8  A    between atoms: C_16  and  O_17 
ROOT
HETATM    1  C   UNL     1      41.640 -15.063   2.425  1.00  0.00     0.047 C 
ENDROOT
BRANCH   1   2
HETATM    2  C   UNL     1      40.836 -16.092   3.207  1.00  0.00     0.235 C 
BRANCH   2   3
HETATM    3  N   UNL     1      40.487 -15.575   4.566  1.00  0.00    -0.067 N 
HETATM    4  H   UNL     1      39.461 -15.476   4.630  1.00  0.00     0.277 HD
HETATM    5  H   UNL     1      40.839 -14.621   4.715  1.00  0.00     0.277 HD
BRANCH   3   6
HETATM    6  C   UNL     1      40.932 -16.420   5.732  1.00  0.00     0.223 C 
HETATM    7  C   UNL     1      41.072 -17.879   5.297  1.00  0.00     0.046 C 
BRANCH   6   8
HETATM    8  C   UNL     1      42.212 -15.917   6.322  1.00  0.00     0.032 A 
HETATM    9  S   UNL     1      42.875 -14.381   5.918  1.00  0.00    -0.076 SA
HETATM   10  C   UNL     1      44.226 -14.701   6.933  1.00  0.00     0.071 A 
HETATM   11  C   UNL     1      45.332 -13.712   7.073  1.00  0.00     0.078 C 
HETATM   12  N   UNL     1      44.191 -15.859   7.555  1.00  0.00    -0.257 NA
HETATM   13  C   UNL     1      43.058 -16.558   7.205  1.00  0.00     0.134 A 
ENDBRANCH   6   8
ENDBRANCH   3   6
ENDBRANCH   2   3
ENDBRANCH   1   2
BRANCH   1  14
HETATM   14  C   UNL     1      43.107 -15.462   2.258  1.00  0.00     0.124 C 
BRANCH  14  15
HETATM   15  N   UNL     1      43.411 -16.714   2.907  1.00  0.00    -0.357 N 
HETATM   16  C   UNL     1      43.815 -17.817   2.180  1.00  0.00     0.251 C 
HETATM   17  O   UNL     1      43.862 -17.812   0.954  1.00  0.00    -0.268 OA
HETATM   18  H   UNL     1      43.258 -16.809   3.906  1.00  0.00     0.162 HD
BRANCH  16  19
HETATM   19  C   UNL     1      44.141 -19.033   2.969  1.00  0.00     0.034 A 
HETATM   20  C   UNL     1      44.226 -20.263   2.309  1.00  0.00     0.053 A 
HETATM   21  C   UNL     1      44.506 -21.409   3.047  1.00  0.00     0.066 A 
HETATM   22  C   UNL     1      44.717 -21.345   4.420  1.00  0.00     0.036 A 
HETATM   23  C   UNL     1      44.657 -20.116   5.075  1.00  0.00     0.004 A 
HETATM   24  C   UNL     1      44.371 -18.957   4.352  1.00  0.00     0.017 A 
BRANCH  21  25
HETATM   25  O   UNL     1      44.581 -22.637   2.458  1.00  0.00    -0.361 OA
HETATM   26  H   UNL     1      45.456 -22.749   2.051  1.00  0.00     0.217 HD
ENDBRANCH  21  25
ENDBRANCH  16  19
ENDBRANCH  14  15
ENDBRANCH   1  14
TORSDOF 8
ENDMDL
MODEL 3
REMARK VINA RESULT:      -6.7      2.526      4.955
REMARK  8 active torsions:
REMARK  status: ('A' for Active; 'I' for Inactive)
REMARK    1  A    between atoms: C_4  and  C_5 
REMARK    2  A    between atoms: C_5  and  N_6 
REMARK    3  A    between atoms: N_6  and  C_9 
REMARK    4  A    between atoms: C_9  and  C_10 
REMARK    5  A    between atoms: C_10  and  C_11 
REMARK    6  A    between atoms: C_11  and  N_12 
REMARK       I    between atoms: N_12  and  C_13 
REMARK    7  A    between atoms: C_13  and  C_14 
REMARK    8  A    between atoms: C_16  and  O_17 
ROOT
HETATM    1  C   UNL     1      41.576 -16.359   5.647  1.00  0.00     0.047 C 
ENDROOT
BRANCH   1   2
HETATM    2  C   UNL     1      41.180 -15.584   4.398  1.00  0.00     0.235 C 
BRANCH   2   3
HETATM    3  N   UNL     1      40.654 -16.504   3.344  1.00  0.00    -0.067 N 
HETATM    4  H   UNL     1      39.625 -16.540   3.417  1.00  0.00     0.277 HD
HETATM    5  H   UNL     1      40.949 -17.476   3.502  1.00  0.00     0.277 HD
BRANCH   3   6
HETATM    6  C   UNL     1      40.990 -16.144   1.919  1.00  0.00     0.223 C 
HETATM    7  C   UNL     1      41.188 -17.416   1.093  1.00  0.00     0.046 C 
BRANCH   6   8
HETATM    8  C   UNL     1      39.940 -15.272   1.306  1.00  0.00     0.032 A 
HETATM    9  S   UNL     1      40.217 -14.360  -0.126  1.00  0.00    -0.076 SA
HETATM   10  C   UNL     1      38.631 -13.708  -0.015  1.00  0.00     0.071 A 
HETATM   11  C   UNL     1      38.133 -12.724  -1.018  1.00  0.00     0.078 C 
HETATM   12  N   UNL     1      37.922 -14.145   1.003  1.00  0.00    -0.257 NA
HETATM   13  C   UNL     1      38.661 -15.023   1.761  1.00  0.00     0.134 A 
ENDBRANCH   6   8
ENDBRANCH   3   6
ENDBRANCH   2   3
ENDBRANCH   1   2
BRANCH   1  14
HETATM   14  C   UNL     1      43.055 -16.748   5.655  1.00  0.00     0.124 C 
BRANCH  14  15
HETATM   15  N   UNL     1      43.275 -18.077   5.142  1.00  0.00    -0.357 N 
HETATM   16  C   UNL     1      43.781 -18.279   3.872  1.00  0.00     0.251 C 
HETATM   17  O   UNL     1      43.994 -17.353   3.097  1.00  0.00    -0.268 OA
HETATM   18  H   UNL     1      42.989 -18.880   5.693  1.00  0.00     0.162 HD
BRANCH  16  19
HETATM   19  C   UNL     1      44.003 -19.695   3.478  1.00  0.00     0.034 A 
HETATM   20  C   UNL     1      44.523 -20.584   4.424  1.00  0.00     0.053 A 
HETATM   21  C   UNL     1      44.756 -21.906   4.054  1.00  0.00     0.066 A 
HETATM   22  C   UNL     1      44.466 -22.353   2.769  1.00  0.00     0.036 A 
HETATM   23  C   UNL     1      43.925 -21.473   1.833  1.00  0.00     0.004 A 
HETATM   24  C   UNL     1      43.690 -20.143   2.185  1.00  0.00     0.017 A 
BRANCH  21  25
HETATM   25  O   UNL     1      45.280 -22.811   4.928  1.00  0.00    -0.361 OA
HETATM   26  H   UNL     1      45.508 -23.627   4.454  1.00  0.00     0.217 HD
ENDBRANCH  21  25
ENDBRANCH  16  19
ENDBRANCH  14  15
ENDBRANCH   1  14
TORSDOF 8
ENDMDL
MODEL 4
REMARK VINA RESULT:      -6.6      2.041      4.442
REMARK  8 active torsions:
REMARK  status: ('A' for Active; 'I' for Inactive)
REMARK    1  A    between atoms: C_4  and  C_5 
REMARK    2  A    between atoms: C_5  and  N_6 
REMARK    3  A    between atoms: N_6  and  C_9 
REMARK    4  A    between atoms: C_9  and  C_10 
REMARK    5  A    between atoms: C_10  and  C_11 
REMARK    6  A    between atoms: C_11  and  N_12 
REMARK       I    between atoms: N_12  and  C_13 
REMARK    7  A    between atoms: C_13  and  C_14 
REMARK    8  A    between atoms: C_16  and  O_17 
ROOT
HETATM    1  C   UNL     1      42.808 -16.566   6.723  1.00  0.00     0.047 C 
ENDROOT
BRANCH   1   2
HETATM    2  C   UNL     1      42.386 -15.358   5.900  1.00  0.00     0.235 C 
BRANCH   2   3
HETATM    3  N   UNL     1      42.033 -15.761   4.504  1.00  0.00    -0.067 N 
HETATM    4  H   UNL     1      41.053 -16.083   4.489  1.00  0.00     0.277 HD
HETATM    5  H   UNL     1      42.570 -16.582   4.195  1.00  0.00     0.277 HD
BRANCH   3   6
HETATM    6  C   UNL     1      42.171 -14.694   3.448  1.00  0.00     0.223 C 
HETATM    7  C   UNL     1      43.580 -14.100   3.487  1.00  0.00     0.046 C 
BRANCH   6   8
HETATM    8  C   UNL     1      41.856 -15.221   2.084  1.00  0.00     0.032 A 
HETATM    9  S   UNL     1      41.649 -14.192   0.720  1.00  0.00    -0.076 SA
HETATM   10  C   UNL     1      41.292 -15.562  -0.256  1.00  0.00     0.071 A 
HETATM   11  C   UNL     1      40.960 -15.410  -1.701  1.00  0.00     0.078 C 
HETATM   12  N   UNL     1      41.340 -16.717   0.371  1.00  0.00    -0.257 NA
HETATM   13  C   UNL     1      41.647 -16.530   1.699  1.00  0.00     0.134 A 
ENDBRANCH   6   8
ENDBRANCH   3   6
ENDBRANCH   2   3
ENDBRANCH   1   2
BRANCH   1  14
HETATM   14  C   UNL     1      44.248 -16.998   6.444  1.00  0.00     0.124 C 
BRANCH  14  15
HETATM   15  N   UNL     1      44.331 -18.359   5.974  1.00  0.00    -0.357 N 
HETATM   16  C   UNL     1      44.291 -18.653   4.625  1.00  0.00     0.251 C 
HETATM   17  O   UNL     1      44.108 -17.791   3.772  1.00  0.00    -0.268 OA
HETATM   18  H   UNL     1      44.348 -19.119   6.646  1.00  0.00     0.162 HD
BRANCH  16  19
HETATM   19  C   UNL     1      44.430 -20.089   4.268  1.00  0.00     0.034 A 
HETATM   20  C   UNL     1      44.265 -20.471   2.932  1.00  0.00     0.053 A 
HETATM   21  C   UNL     1      44.370 -21.817   2.595  1.00  0.00     0.066 A 
HETATM   22  C   UNL     1      44.650 -22.779   3.561  1.00  0.00     0.036 A 
HETATM   23  C   UNL     1      44.839 -22.396   4.888  1.00  0.00     0.004 A 
HETATM   24  C   UNL     1      44.731 -21.051   5.245  1.00  0.00     0.017 A 
BRANCH  21  25
HETATM   25  O   UNL     1      44.199 -22.248   1.313  1.00  0.00    -0.361 OA
HETATM   26  H   UNL     1      43.275 -22.114   1.046  1.00  0.00     0.217 HD
ENDBRANCH  21  25
ENDBRANCH  16  19
ENDBRANCH  14  15
ENDBRANCH   1  14
TORSDOF 8
ENDMDL
MODEL 5
REMARK VINA RESULT:      -6.5      3.878      5.236
REMARK  8 active torsions:
REMARK  status: ('A' for Active; 'I' for Inactive)
REMARK    1  A    between atoms: C_4  and  C_5 
REMARK    2  A    between atoms: C_5  and  N_6 
REMARK    3  A    between atoms: N_6  and  C_9 
REMARK    4  A    between atoms: C_9  and  C_10 
REMARK    5  A    between atoms: C_10  and  C_11 
REMARK    6  A    between atoms: C_11  and  N_12 
REMARK       I    between atoms: N_12  and  C_13 
REMARK    7  A    between atoms: C_13  and  C_14 
REMARK    8  A    between atoms: C_16  and  O_17 
ROOT
HETATM    1  C   UNL     1      43.764 -15.250   6.634  1.00  0.00     0.047 C 
ENDROOT
BRANCH   1   2
HETATM    2  C   UNL     1      44.806 -14.185   6.947  1.00  0.00     0.235 C 
BRANCH   2   3
HETATM    3  N   UNL     1      44.224 -13.104   7.800  1.00  0.00    -0.067 N 
HETATM    4  H   UNL     1      43.291 -13.404   8.126  1.00  0.00     0.277 HD
HETATM    5  H   UNL     1      44.036 -12.250   7.260  1.00  0.00     0.277 HD
BRANCH   3   6
HETATM    6  C   UNL     1      45.023 -12.716   9.018  1.00  0.00     0.223 C 
HETATM    7  C   UNL     1      46.159 -11.774   8.617  1.00  0.00     0.046 C 
BRANCH   6   8
HETATM    8  C   UNL     1      44.160 -12.089  10.068  1.00  0.00     0.032 A 
HETATM    9  S   UNL     1      43.069 -10.803   9.722  1.00  0.00    -0.076 SA
HETATM   10  C   UNL     1      42.634 -10.729  11.383  1.00  0.00     0.071 A 
HETATM   11  C   UNL     1      41.644  -9.729  11.873  1.00  0.00     0.078 C 
HETATM   12  N   UNL     1      43.235 -11.609  12.154  1.00  0.00    -0.257 NA
HETATM   13  C   UNL     1      44.109 -12.375  11.417  1.00  0.00     0.134 A 
ENDBRANCH   6   8
ENDBRANCH   3   6
ENDBRANCH   2   3
ENDBRANCH   1   2
BRANCH   1  14
HETATM   14  C   UNL     1      44.312 -16.671   6.773  1.00  0.00     0.124 C 
BRANCH  14  15
HETATM   15  N   UNL     1      44.175 -17.433   5.556  1.00  0.00    -0.357 N 
HETATM   16  C   UNL     1      44.309 -18.808   5.555  1.00  0.00     0.251 C 
HETATM   17  O   UNL     1      44.623 -19.437   6.560  1.00  0.00    -0.268 OA
HETATM   18  H   UNL     1      44.048 -16.947   4.674  1.00  0.00     0.162 HD
BRANCH  16  19
HETATM   19  C   UNL     1      44.102 -19.480   4.245  1.00  0.00     0.034 A 
HETATM   20  C   UNL     1      44.503 -20.812   4.100  1.00  0.00     0.053 A 
HETATM   21  C   UNL     1      44.334 -21.440   2.869  1.00  0.00     0.066 A 
HETATM   22  C   UNL     1      43.761 -20.768   1.794  1.00  0.00     0.036 A 
HETATM   23  C   UNL     1      43.338 -19.448   1.945  1.00  0.00     0.004 A 
HETATM   24  C   UNL     1      43.505 -18.802   3.171  1.00  0.00     0.017 A 
BRANCH  21  25
HETATM   25  O   UNL     1      44.725 -22.729   2.666  1.00  0.00    -0.361 OA
HETATM   26  H   UNL     1      44.039 -23.333   2.995  1.00  0.00     0.217 HD
ENDBRANCH  21  25
ENDBRANCH  16  19
ENDBRANCH  14  15
ENDBRANCH   1  14
TORSDOF 8
ENDMDL
MODEL 6
REMARK VINA RESULT:      -6.4      1.661      2.101
REMARK  8 active torsions:
REMARK  status: ('A' for Active; 'I' for Inactive)
REMARK    1  A    between atoms: C_4  and  C_5 
REMARK    2  A    between atoms: C_5  and  N_6 
REMARK    3  A    between atoms: N_6  and  C_9 
REMARK    4  A    between atoms: C_9  and  C_10 
REMARK    5  A    between atoms: C_10  and  C_11 
REMARK    6  A    between atoms: C_11  and  N_12 
REMARK       I    between atoms: N_12  and  C_13 
REMARK    7  A    between atoms: C_13  and  C_14 
REMARK    8  A    between atoms: C_16  and  O_17 
ROOT
HETATM    1  C   UNL     1      41.180 -14.513   1.336  1.00  0.00     0.047 C 
ENDROOT
BRANCH   1   2
HETATM    2  C   UNL     1      39.803 -14.933   1.831  1.00  0.00     0.235 C 
BRANCH   2   3
HETATM    3  N   UNL     1      39.827 -15.215   3.299  1.00  0.00    -0.067 N 
HETATM    4  H   UNL     1      40.180 -16.173   3.448  1.00  0.00     0.277 HD
HETATM    5  H   UNL     1      38.880 -15.233   3.700  1.00  0.00     0.277 HD
BRANCH   3   6
HETATM    6  C   UNL     1      40.667 -14.289   4.140  1.00  0.00     0.223 C 
HETATM    7  C   UNL     1      39.765 -13.360   4.954  1.00  0.00     0.046 C 
BRANCH   6   8
HETATM    8  C   UNL     1      41.595 -15.046   5.037  1.00  0.00     0.032 A 
HETATM    9  S   UNL     1      41.034 -16.187   6.196  1.00  0.00    -0.076 SA
HETATM   10  C   UNL     1      42.651 -16.448   6.720  1.00  0.00     0.071 A 
HETATM   11  C   UNL     1      42.956 -17.396   7.827  1.00  0.00     0.078 C 
HETATM   12  N   UNL     1      43.562 -15.755   6.071  1.00  0.00    -0.257 NA
HETATM   13  C   UNL     1      42.970 -14.951   5.124  1.00  0.00     0.134 A 
ENDBRANCH   6   8
ENDBRANCH   3   6
ENDBRANCH   2   3
ENDBRANCH   1   2
BRANCH   1  14
HETATM   14  C   UNL     1      41.845 -15.580   0.466  1.00  0.00     0.124 C 
BRANCH  14  15
HETATM   15  N   UNL     1      42.604 -16.528   1.244  1.00  0.00    -0.357 N 
HETATM   16  C   UNL     1      42.113 -17.792   1.508  1.00  0.00     0.251 C 
HETATM   17  O   UNL     1      40.989 -18.143   1.165  1.00  0.00    -0.268 OA
HETATM   18  H   UNL     1      43.482 -16.240   1.665  1.00  0.00     0.162 HD
BRANCH  16  19
HETATM   19  C   UNL     1      43.010 -18.688   2.283  1.00  0.00     0.034 A 
HETATM   20  C   UNL     1      43.552 -18.224   3.486  1.00  0.00     0.053 A 
HETATM   21  C   UNL     1      44.412 -19.050   4.205  1.00  0.00     0.066 A 
HETATM   22  C   UNL     1      44.724 -20.328   3.752  1.00  0.00     0.036 A 
HETATM   23  C   UNL     1      44.165 -20.801   2.566  1.00  0.00     0.004 A 
HETATM   24  C   UNL     1      43.305 -19.984   1.830  1.00  0.00     0.017 A 
BRANCH  21  25
HETATM   25  O   UNL     1      44.984 -18.642   5.373  1.00  0.00    -0.361 OA
HETATM   26  H   UNL     1      44.852 -19.321   6.055  1.00  0.00     0.217 HD
ENDBRANCH  21  25
ENDBRANCH  16  19
ENDBRANCH  14  15
ENDBRANCH   1  14
TORSDOF 8
ENDMDL
MODEL 7
REMARK VINA RESULT:      -6.4      3.504      5.122
REMARK  8 active torsions:
REMARK  status: ('A' for Active; 'I' for Inactive)
REMARK    1  A    between atoms: C_4  and  C_5 
REMARK    2  A    between atoms: C_5  and  N_6 
REMARK    3  A    between atoms: N_6  and  C_9 
REMARK    4  A    between atoms: C_9  and  C_10 
REMARK    5  A    between atoms: C_10  and  C_11 
REMARK    6  A    between atoms: C_11  and  N_12 
REMARK       I    between atoms: N_12  and  C_13 
REMARK    7  A    between atoms: C_13  and  C_14 
REMARK    8  A    between atoms: C_16  and  O_17 
ROOT
HETATM    1  C   UNL     1      40.003 -16.300   1.936  1.00  0.00     0.047 C 
ENDROOT
BRANCH   1   2
HETATM    2  C   UNL     1      39.475 -14.923   1.559  1.00  0.00     0.235 C 
BRANCH   2   3
HETATM    3  N   UNL     1      39.581 -14.698   0.084  1.00  0.00    -0.067 N 
HETATM    4  H   UNL     1      39.202 -13.763  -0.137  1.00  0.00     0.277 HD
HETATM    5  H   UNL     1      38.979 -15.342  -0.446  1.00  0.00     0.277 HD
BRANCH   3   6
HETATM    6  C   UNL     1      40.967 -14.772  -0.502  1.00  0.00     0.223 C 
HETATM    7  C   UNL     1      40.908 -15.372  -1.907  1.00  0.00     0.046 C 
BRANCH   6   8
HETATM    8  C   UNL     1      41.629 -13.430  -0.526  1.00  0.00     0.032 A 
HETATM    9  S   UNL     1      42.163 -12.688  -1.984  1.00  0.00    -0.076 SA
HETATM   10  C   UNL     1      42.778 -11.361  -1.081  1.00  0.00     0.071 A 
HETATM   11  C   UNL     1      43.467 -10.226  -1.758  1.00  0.00     0.078 C 
HETATM   12  N   UNL     1      42.589 -11.439   0.218  1.00  0.00    -0.257 NA
HETATM   13  C   UNL     1      41.949 -12.613   0.540  1.00  0.00     0.134 A 
ENDBRANCH   6   8
ENDBRANCH   3   6
ENDBRANCH   2   3
ENDBRANCH   1   2
BRANCH   1  14
HETATM   14  C   UNL     1      41.125 -16.238   2.973  1.00  0.00     0.124 C 
BRANCH  14  15
HETATM   15  N   UNL     1      41.781 -17.510   3.148  1.00  0.00    -0.357 N 
HETATM   16  C   UNL     1      43.052 -17.734   2.655  1.00  0.00     0.251 C 
HETATM   17  O   UNL     1      43.650 -16.899   1.985  1.00  0.00    -0.268 OA
HETATM   18  H   UNL     1      41.275 -18.278   3.578  1.00  0.00     0.162 HD
BRANCH  16  19
HETATM   19  C   UNL     1      43.634 -19.071   2.940  1.00  0.00     0.034 A 
HETATM   20  C   UNL     1      43.583 -20.054   1.945  1.00  0.00     0.053 A 
HETATM   21  C   UNL     1      44.104 -21.316   2.214  1.00  0.00     0.066 A 
HETATM   22  C   UNL     1      44.685 -21.606   3.444  1.00  0.00     0.036 A 
HETATM   23  C   UNL     1      44.758 -20.620   4.427  1.00  0.00     0.004 A 
HETATM   24  C   UNL     1      44.235 -19.350   4.177  1.00  0.00     0.017 A 
BRANCH  21  25
HETATM   25  O   UNL     1      44.064 -22.317   1.290  1.00  0.00    -0.361 OA
HETATM   26  H   UNL     1      43.147 -22.618   1.176  1.00  0.00     0.217 HD
ENDBRANCH  21  25
ENDBRANCH  16  19
ENDBRANCH  14  15
ENDBRANCH   1  14
TORSDOF 8
ENDMDL
MODEL 8
REMARK VINA RESULT:      -6.3      4.502      8.523
REMARK  8 active torsions:
REMARK  status: ('A' for Active; 'I' for Inactive)
REMARK    1  A    between atoms: C_4  and  C_5 
REMARK    2  A    between atoms: C_5  and  N_6 
REMARK    3  A    between atoms: N_6  and  C_9 
REMARK    4  A    between atoms: C_9  and  C_10 
REMARK    5  A    between atoms: C_10  and  C_11 
REMARK    6  A    between atoms: C_11  and  N_12 
REMARK       I    between atoms: N_12  and  C_13 
REMARK    7  A    between atoms: C_13  and  C_14 
REMARK    8  A    between atoms: C_16  and  O_17 
ROOT
HETATM    1  C   UNL     1      44.118 -15.790   6.993  1.00  0.00     0.047 C 
ENDROOT
BRANCH   1   2
HETATM    2  C   UNL     1      42.938 -16.059   6.070  1.00  0.00     0.235 C 
BRANCH   2   3
HETATM    3  N   UNL     1      43.405 -16.340   4.677  1.00  0.00    -0.067 N 
HETATM    4  H   UNL     1      44.366 -16.716   4.718  1.00  0.00     0.277 HD
HETATM    5  H   UNL     1      43.497 -15.479   4.123  1.00  0.00     0.277 HD
BRANCH   3   6
HETATM    6  C   UNL     1      42.575 -17.315   3.882  1.00  0.00     0.223 C 
HETATM    7  C   UNL     1      42.112 -16.664   2.578  1.00  0.00     0.046 C 
BRANCH   6   8
HETATM    8  C   UNL     1      43.322 -18.581   3.606  1.00  0.00     0.032 A 
HETATM    9  S   UNL     1      43.136 -19.464   2.141  1.00  0.00    -0.076 SA
HETATM   10  C   UNL     1      44.227 -20.658   2.724  1.00  0.00     0.071 A 
HETATM   11  C   UNL     1      44.562 -21.857   1.905  1.00  0.00     0.078 C 
HETATM   12  N   UNL     1      44.722 -20.420   3.919  1.00  0.00    -0.257 NA
HETATM   13  C   UNL     1      44.205 -19.252   4.429  1.00  0.00     0.134 A 
ENDBRANCH   6   8
ENDBRANCH   3   6
ENDBRANCH   2   3
ENDBRANCH   1   2
BRANCH   1  14
HETATM   14  C   UNL     1      44.680 -14.376   6.836  1.00  0.00     0.124 C 
BRANCH  14  15
HETATM   15  N   UNL     1      44.177 -13.471   7.840  1.00  0.00    -0.357 N 
HETATM   16  C   UNL     1      45.008 -12.558   8.459  1.00  0.00     0.251 C 
HETATM   17  O   UNL     1      46.215 -12.520   8.247  1.00  0.00    -0.268 OA
HETATM   18  H   UNL     1      43.214 -13.553   8.148  1.00  0.00     0.162 HD
BRANCH  16  19
HETATM   19  C   UNL     1      44.359 -11.652   9.444  1.00  0.00     0.034 A 
HETATM   20  C   UNL     1      43.170 -11.008   9.086  1.00  0.00     0.053 A 
HETATM   21  C   UNL     1      42.570 -10.141   9.994  1.00  0.00     0.066 A 
HETATM   22  C   UNL     1      43.127  -9.919  11.250  1.00  0.00     0.036 A 
HETATM   23  C   UNL     1      44.299 -10.579  11.616  1.00  0.00     0.004 A 
HETATM   24  C   UNL     1      44.917 -11.448  10.716  1.00  0.00     0.017 A 
BRANCH  21  25
HETATM   25  O   UNL     1      41.422  -9.472   9.691  1.00  0.00    -0.361 OA
HETATM   26  H   UNL     1      40.677  -9.871  10.171  1.00  0.00     0.217 HD
ENDBRANCH  21  25
ENDBRANCH  16  19
ENDBRANCH  14  15
ENDBRANCH   1  14
TORSDOF 8
ENDMDL
MODEL 9
REMARK VINA RESULT:      -6.3      5.196      9.143
REMARK  8 active torsions:
REMARK  status: ('A' for Active; 'I' for Inactive)
REMARK    1  A    between atoms: C_4  and  C_5 
REMARK    2  A    between atoms: C_5  and  N_6 
REMARK    3  A    between atoms: N_6  and  C_9 
REMARK    4  A    between atoms: C_9  and  C_10 
REMARK    5  A    between atoms: C_10  and  C_11 
REMARK    6  A    between atoms: C_11  and  N_12 
REMARK       I    between atoms: N_12  and  C_13 
REMARK    7  A    between atoms: C_13  and  C_14 
REMARK    8  A    between atoms: C_16  and  O_17 
ROOT
HETATM    1  C   UNL     1      44.545 -14.329   7.355  1.00  0.00     0.047 C 
ENDROOT
BRANCH   1   2
HETATM    2  C   UNL     1      43.935 -14.133   5.974  1.00  0.00     0.235 C 
BRANCH   2   3
HETATM    3  N   UNL     1      43.587 -15.448   5.353  1.00  0.00    -0.067 N 
HETATM    4  H   UNL     1      42.902 -15.930   5.957  1.00  0.00     0.277 HD
HETATM    5  H   UNL     1      44.393 -16.086   5.332  1.00  0.00     0.277 HD
BRANCH   3   6
HETATM    6  C   UNL     1      43.003 -15.394   3.965  1.00  0.00     0.223 C 
HETATM    7  C   UNL     1      43.525 -14.161   3.227  1.00  0.00     0.046 C 
BRANCH   6   8
HETATM    8  C   UNL     1      43.301 -16.640   3.192  1.00  0.00     0.032 A 
HETATM    9  S   UNL     1      43.102 -18.213   3.861  1.00  0.00    -0.076 SA
HETATM   10  C   UNL     1      43.690 -18.906   2.402  1.00  0.00     0.071 A 
HETATM   11  C   UNL     1      43.825 -20.383   2.253  1.00  0.00     0.078 C 
HETATM   12  N   UNL     1      43.999 -18.040   1.462  1.00  0.00    -0.257 NA
HETATM   13  C   UNL     1      43.791 -16.755   1.906  1.00  0.00     0.134 A 
ENDBRANCH   6   8
ENDBRANCH   3   6
ENDBRANCH   2   3
ENDBRANCH   1   2
BRANCH   1  14
HETATM   14  C   UNL     1      45.114 -13.034   7.938  1.00  0.00     0.124 C 
BRANCH  14  15
HETATM   15  N   UNL     1      44.313 -12.523   9.023  1.00  0.00    -0.357 N 
HETATM   16  C   UNL     1      44.611 -11.316   9.625  1.00  0.00     0.251 C 
HETATM   17  O   UNL     1      45.605 -10.662   9.325  1.00  0.00    -0.268 OA
HETATM   18  H   UNL     1      43.560 -13.090   9.398  1.00  0.00     0.162 HD
BRANCH  16  19
HETATM   19  C   UNL     1      43.684 -10.880  10.701  1.00  0.00     0.034 A 
HETATM   20  C   UNL     1      42.309 -11.058  10.520  1.00  0.00     0.053 A 
HETATM   21  C   UNL     1      41.434 -10.629  11.514  1.00  0.00     0.066 A 
HETATM   22  C   UNL     1      41.907 -10.043  12.683  1.00  0.00     0.036 A 
HETATM   23  C   UNL     1      43.279  -9.887  12.875  1.00  0.00     0.004 A 
HETATM   24  C   UNL     1      44.171 -10.307  11.887  1.00  0.00     0.017 A 
BRANCH  21  25
HETATM   25  O   UNL     1      40.083 -10.760  11.381  1.00  0.00    -0.361 OA
HETATM   26  H   UNL     1      39.745 -11.354  12.072  1.00  0.00     0.217 HD
ENDBRANCH  21  25
ENDBRANCH  16  19
ENDBRANCH  14  15
ENDBRANCH   1  14
TORSDOF 8
ENDMDL
MODEL 10
REMARK VINA RESULT:      -6.2      4.414      6.765
REMARK  8 active torsions:
REMARK  status: ('A' for Active; 'I' for Inactive)
REMARK    1  A    between atoms: C_4  and  C_5 
REMARK    2  A    between atoms: C_5  and  N_6 
REMARK    3  A    between atoms: N_6  and  C_9 
REMARK    4  A    between atoms: C_9  and  C_10 
REMARK    5  A    between atoms: C_10  and  C_11 
REMARK    6  A    between atoms: C_11  and  N_12 
REMARK       I    between atoms: N_12  and  C_13 
REMARK    7  A    between atoms: C_13  and  C_14 
REMARK    8  A    between atoms: C_16  and  O_17 
ROOT
HETATM    1  C   UNL     1      40.173 -16.103   1.621  1.00  0.00     0.047 C 
ENDROOT
BRANCH   1   2
HETATM    2  C   UNL     1      40.102 -14.898   0.695  1.00  0.00     0.235 C 
BRANCH   2   3
HETATM    3  N   UNL     1      40.405 -15.291  -0.716  1.00  0.00    -0.067 N 
HETATM    4  H   UNL     1      39.761 -16.047  -0.995  1.00  0.00     0.277 HD
HETATM    5  H   UNL     1      41.338 -15.713  -0.804  1.00  0.00     0.277 HD
BRANCH   3   6
HETATM    6  C   UNL     1      40.291 -14.199  -1.749  1.00  0.00     0.223 C 
HETATM    7  C   UNL     1      41.629 -14.022  -2.469  1.00  0.00     0.046 C 
BRANCH   6   8
HETATM    8  C   UNL     1      39.195 -14.477  -2.728  1.00  0.00     0.032 A 
HETATM    9  S   UNL     1      37.812 -13.463  -2.879  1.00  0.00    -0.076 SA
HETATM   10  C   UNL     1      37.171 -14.519  -4.074  1.00  0.00     0.071 A 
HETATM   11  C   UNL     1      35.849 -14.250  -4.707  1.00  0.00     0.078 C 
HETATM   12  N   UNL     1      37.932 -15.551  -4.368  1.00  0.00    -0.257 NA
HETATM   13  C   UNL     1      39.074 -15.539  -3.601  1.00  0.00     0.134 A 
ENDBRANCH   6   8
ENDBRANCH   3   6
ENDBRANCH   2   3
ENDBRANCH   1   2
BRANCH   1  14
HETATM   14  C   UNL     1      41.317 -16.006   2.631  1.00  0.00     0.124 C 
BRANCH  14  15
HETATM   15  N   UNL     1      41.920 -17.288   2.902  1.00  0.00    -0.357 N 
HETATM   16  C   UNL     1      43.147 -17.629   2.368  1.00  0.00     0.251 C 
HETATM   17  O   UNL     1      43.745 -16.900   1.583  1.00  0.00    -0.268 OA
HETATM   18  H   UNL     1      41.403 -17.980   3.436  1.00  0.00     0.162 HD
BRANCH  16  19
HETATM   19  C   UNL     1      43.679 -18.961   2.758  1.00  0.00     0.034 A 
HETATM   20  C   UNL     1      43.622 -20.008   1.832  1.00  0.00     0.053 A 
HETATM   21  C   UNL     1      44.096 -21.263   2.200  1.00  0.00     0.066 A 
HETATM   22  C   UNL     1      44.637 -21.485   3.462  1.00  0.00     0.036 A 
HETATM   23  C   UNL     1      44.717 -20.436   4.377  1.00  0.00     0.004 A 
HETATM   24  C   UNL     1      44.241 -19.172   4.027  1.00  0.00     0.017 A 
BRANCH  21  25
HETATM   25  O   UNL     1      44.046 -22.324   1.345  1.00  0.00    -0.361 OA
HETATM   26  H   UNL     1      44.713 -22.211   0.646  1.00  0.00     0.217 HD
ENDBRANCH  21  25
ENDBRANCH  16  19
ENDBRANCH  14  15
ENDBRANCH   1  14
TORSDOF 8
ENDMDL
