MODEL 1
REMARK VINA RESULT:      -8.5      0.000      0.000
REMARK  7 active torsions:
REMARK  status: ('A' for Active; 'I' for Inactive)
REMARK    1  A    between atoms: C_2  and  N_3 
REMARK    2  A    between atoms: N_7  and  C_8 
REMARK    3  A    between atoms: C_9  and  N_10 
REMARK       I    between atoms: N_10  and  C_11 
REMARK    4  A    between atoms: C_11  and  C_12 
REMARK    5  A    between atoms: C_15  and  C_16 
REMARK    6  A    between atoms: C_16  and  O_17 
REMARK    7  A    between atoms: O_17  and  C_18 
ROOT
HETATM    1  N   UNL     1      40.198 -15.255   2.049  1.00  0.00    -0.321 N 
HETATM    2  C   UNL     1      40.575 -14.897   3.326  1.00  0.00     0.256 C 
HETATM    3  O   UNL     1      40.368 -13.816   3.864  1.00  0.00    -0.267 OA
HETATM    4  H   UNL     1      40.656 -16.047   1.612  1.00  0.00     0.169 HD
ENDROOT
BRANCH   1   5
HETATM    5  C   UNL     1      39.413 -14.470   1.174  1.00  0.00     0.061 A 
HETATM    6  C   UNL     1      40.056 -13.862   0.059  1.00  0.00     0.057 A 
HETATM    7  C   UNL     1      39.219 -13.294  -0.918  1.00  0.00     0.031 A 
HETATM    8  C   UNL     1      37.830 -13.231  -0.752  1.00  0.00     0.002 A 
HETATM    9  C   UNL     1      37.239 -13.749   0.392  1.00  0.00     0.002 A 
HETATM   10  C   UNL     1      38.027 -14.377   1.349  1.00  0.00     0.032 A 
BRANCH   6  11
HETATM   11  N   UNL     1      41.471 -13.810  -0.022  1.00  0.00    -0.376 N 
HETATM   12  C   UNL     1      42.098 -12.739   0.801  1.00  0.00     0.150 C 
HETATM   13  C   UNL     1      42.154 -11.398   0.049  1.00  0.00     0.254 C 
HETATM   14  N   UNL     1      42.918 -11.561  -1.266  1.00  0.00    -0.068 N 
HETATM   15  H   UNL     1      43.864 -11.894  -1.035  1.00  0.00     0.280 HD
HETATM   16  C   UNL     1      42.264 -12.654  -2.120  1.00  0.00     0.254 C 
HETATM   17  C   UNL     1      42.129 -13.983  -1.336  1.00  0.00     0.150 C 
BRANCH  14  18
HETATM   18  C   UNL     1      43.049 -10.267  -2.034  1.00  0.00     0.230 C 
HETATM   19  C   UNL     1      43.890  -9.265  -1.262  1.00  0.00     0.034 C 
ENDBRANCH  14  18
ENDBRANCH   6  11
ENDBRANCH   1   5
BRANCH   2  20
HETATM   20  C   UNL     1      41.428 -15.895   4.014  1.00  0.00     0.032 A 
HETATM   21  C   UNL     1      42.632 -15.468   4.581  1.00  0.00     0.017 A 
HETATM   22  C   UNL     1      43.457 -16.384   5.232  1.00  0.00     0.010 A 
HETATM   23  C   UNL     1      43.076 -17.731   5.342  1.00  0.00    -0.034 A 
HETATM   24  C   UNL     1      41.860 -18.147   4.779  1.00  0.00     0.010 A 
HETATM   25  C   UNL     1      41.038 -17.234   4.113  1.00  0.00     0.017 A 
BRANCH  23  26
HETATM   26  C   UNL     1      43.949 -18.700   6.108  1.00  0.00     0.214 C 
BRANCH  26  27
HETATM   27  O   UNL     1      45.028 -19.071   5.255  1.00  0.00    -0.347 OA
BRANCH  27  28
HETATM   28  C   UNL     1      44.813 -20.103   4.386  1.00  0.00     0.069 A 
HETATM   29  C   UNL     1      44.543 -19.991   3.022  1.00  0.00     0.037 A 
HETATM   30  C   UNL     1      44.339 -21.140   2.251  1.00  0.00     0.003 A 
HETATM   31  C   UNL     1      44.408 -22.402   2.838  1.00  0.00     0.000 A 
HETATM   32  C   UNL     1      44.679 -22.519   4.199  1.00  0.00     0.003 A 
HETATM   33  C   UNL     1      44.882 -21.373   4.967  1.00  0.00     0.037 A 
ENDBRANCH  27  28
ENDBRANCH  26  27
ENDBRANCH  23  26
ENDBRANCH   2  20
TORSDOF 7
ENDMDL
MODEL 2
REMARK VINA RESULT:      -8.4      1.619      2.697
REMARK  7 active torsions:
REMARK  status: ('A' for Active; 'I' for Inactive)
REMARK    1  A    between atoms: C_2  and  N_3 
REMARK    2  A    between atoms: N_7  and  C_8 
REMARK    3  A    between atoms: C_9  and  N_10 
REMARK       I    between atoms: N_10  and  C_11 
REMARK    4  A    between atoms: C_11  and  C_12 
REMARK    5  A    between atoms: C_15  and  C_16 
REMARK    6  A    between atoms: C_16  and  O_17 
REMARK    7  A    between atoms: O_17  and  C_18 
ROOT
HETATM    1  N   UNL     1      40.399 -15.487   0.869  1.00  0.00    -0.321 N 
HETATM    2  C   UNL     1      41.309 -15.372   1.899  1.00  0.00     0.256 C 
HETATM    3  O   UNL     1      41.573 -14.349   2.519  1.00  0.00    -0.267 OA
HETATM    4  H   UNL     1      40.464 -16.287   0.252  1.00  0.00     0.169 HD
ENDROOT
BRANCH   1   5
HETATM    5  C   UNL     1      39.535 -14.462   0.419  1.00  0.00     0.061 A 
HETATM    6  C   UNL     1      39.889 -13.759  -0.767  1.00  0.00     0.057 A 
HETATM    7  C   UNL     1      38.903 -12.922  -1.320  1.00  0.00     0.031 A 
HETATM    8  C   UNL     1      37.677 -12.704  -0.679  1.00  0.00     0.002 A 
HETATM    9  C   UNL     1      37.397 -13.331   0.527  1.00  0.00     0.002 A 
HETATM   10  C   UNL     1      38.320 -14.217   1.071  1.00  0.00     0.032 A 
BRANCH   6  11
HETATM   11  N   UNL     1      41.186 -13.883  -1.324  1.00  0.00    -0.376 N 
HETATM   12  C   UNL     1      42.198 -12.955  -0.744  1.00  0.00     0.150 C 
HETATM   13  C   UNL     1      42.189 -11.588  -1.449  1.00  0.00     0.254 C 
HETATM   14  N   UNL     1      42.438 -11.763  -2.948  1.00  0.00    -0.068 N 
HETATM   15  H   UNL     1      43.349 -12.227  -3.057  1.00  0.00     0.280 HD
HETATM   16  C   UNL     1      41.388 -12.706  -3.547  1.00  0.00     0.254 C 
HETATM   17  C   UNL     1      41.336 -14.055  -2.785  1.00  0.00     0.150 C 
BRANCH  14  18
HETATM   18  C   UNL     1      42.487 -10.449  -3.692  1.00  0.00     0.230 C 
HETATM   19  C   UNL     1      42.154 -10.648  -5.160  1.00  0.00     0.034 C 
ENDBRANCH  14  18
ENDBRANCH   6  11
ENDBRANCH   1   5
BRANCH   2  20
HETATM   20  C   UNL     1      42.115 -16.593   2.141  1.00  0.00     0.032 A 
HETATM   21  C   UNL     1      41.716 -17.465   3.157  1.00  0.00     0.017 A 
HETATM   22  C   UNL     1      42.456 -18.620   3.411  1.00  0.00     0.010 A 
HETATM   23  C   UNL     1      43.587 -18.924   2.638  1.00  0.00    -0.034 A 
HETATM   24  C   UNL     1      43.972 -18.046   1.612  1.00  0.00     0.010 A 
HETATM   25  C   UNL     1      43.242 -16.880   1.366  1.00  0.00     0.017 A 
BRANCH  23  26
HETATM   26  C   UNL     1      44.341 -20.213   2.881  1.00  0.00     0.214 C 
BRANCH  26  27
HETATM   27  O   UNL     1      45.290 -19.965   3.913  1.00  0.00    -0.347 OA
BRANCH  27  28
HETATM   28  C   UNL     1      44.811 -19.816   5.183  1.00  0.00     0.069 A 
HETATM   29  C   UNL     1      44.105 -20.770   5.916  1.00  0.00     0.037 A 
HETATM   30  C   UNL     1      43.669 -20.478   7.213  1.00  0.00     0.003 A 
HETATM   31  C   UNL     1      43.939 -19.234   7.781  1.00  0.00     0.000 A 
HETATM   32  C   UNL     1      44.645 -18.278   7.054  1.00  0.00     0.003 A 
HETATM   33  C   UNL     1      45.079 -18.572   5.761  1.00  0.00     0.037 A 
ENDBRANCH  27  28
ENDBRANCH  26  27
ENDBRANCH  23  26
ENDBRANCH   2  20
TORSDOF 7
ENDMDL
MODEL 3
REMARK VINA RESULT:      -8.4      6.754      9.925
REMARK  7 active torsions:
REMARK  status: ('A' for Active; 'I' for Inactive)
REMARK    1  A    between atoms: C_2  and  N_3 
REMARK    2  A    between atoms: N_7  and  C_8 
REMARK    3  A    between atoms: C_9  and  N_10 
REMARK       I    between atoms: N_10  and  C_11 
REMARK    4  A    between atoms: C_11  and  C_12 
REMARK    5  A    between atoms: C_15  and  C_16 
REMARK    6  A    between atoms: C_16  and  O_17 
REMARK    7  A    between atoms: O_17  and  C_18 
ROOT
HETATM    1  N   UNL     1      43.855 -14.735   7.371  1.00  0.00    -0.321 N 
HETATM    2  C   UNL     1      44.786 -13.718   7.334  1.00  0.00     0.256 C 
HETATM    3  O   UNL     1      45.773 -13.668   6.610  1.00  0.00    -0.267 OA
HETATM    4  H   UNL     1      43.253 -14.812   8.182  1.00  0.00     0.169 HD
ENDROOT
BRANCH   1   5
HETATM    5  C   UNL     1      43.823 -15.850   6.503  1.00  0.00     0.061 A 
HETATM    6  C   UNL     1      43.225 -15.686   5.221  1.00  0.00     0.057 A 
HETATM    7  C   UNL     1      43.422 -16.728   4.297  1.00  0.00     0.031 A 
HETATM    8  C   UNL     1      44.077 -17.914   4.652  1.00  0.00     0.002 A 
HETATM    9  C   UNL     1      44.568 -18.083   5.938  1.00  0.00     0.002 A 
HETATM   10  C   UNL     1      44.451 -17.049   6.860  1.00  0.00     0.032 A 
BRANCH   6  11
HETATM   11  N   UNL     1      42.444 -14.540   4.927  1.00  0.00    -0.376 N 
HETATM   12  C   UNL     1      40.996 -14.818   4.714  1.00  0.00     0.150 C 
HETATM   13  C   UNL     1      40.697 -15.213   3.258  1.00  0.00     0.254 C 
HETATM   14  N   UNL     1      41.163 -14.110   2.305  1.00  0.00    -0.068 N 
HETATM   15  H   UNL     1      40.664 -13.248   2.563  1.00  0.00     0.280 HD
HETATM   16  C   UNL     1      42.657 -13.834   2.514  1.00  0.00     0.254 C 
HETATM   17  C   UNL     1      42.974 -13.519   3.998  1.00  0.00     0.150 C 
BRANCH  14  18
HETATM   18  C   UNL     1      40.856 -14.416   0.858  1.00  0.00     0.230 C 
HETATM   19  C   UNL     1      41.660 -15.611   0.377  1.00  0.00     0.034 C 
ENDBRANCH  14  18
ENDBRANCH   6  11
ENDBRANCH   1   5
BRANCH   2  20
HETATM   20  C   UNL     1      44.607 -12.686   8.384  1.00  0.00     0.032 A 
HETATM   21  C   UNL     1      43.411 -11.965   8.413  1.00  0.00     0.017 A 
HETATM   22  C   UNL     1      43.214 -10.985   9.387  1.00  0.00     0.010 A 
HETATM   23  C   UNL     1      44.202 -10.735  10.352  1.00  0.00    -0.034 A 
HETATM   24  C   UNL     1      45.394 -11.474  10.321  1.00  0.00     0.010 A 
HETATM   25  C   UNL     1      45.601 -12.445   9.337  1.00  0.00     0.017 A 
BRANCH  23  26
HETATM   26  C   UNL     1      43.947  -9.717  11.442  1.00  0.00     0.214 C 
BRANCH  26  27
HETATM   27  O   UNL     1      43.506 -10.425  12.595  1.00  0.00    -0.347 OA
BRANCH  27  28
HETATM   28  C   UNL     1      42.852  -9.710  13.558  1.00  0.00     0.069 A 
HETATM   29  C   UNL     1      42.354 -10.210  14.762  1.00  0.00     0.037 A 
HETATM   30  C   UNL     1      41.699  -9.359  15.657  1.00  0.00     0.003 A 
HETATM   31  C   UNL     1      41.541  -8.007  15.354  1.00  0.00     0.000 A 
HETATM   32  C   UNL     1      42.036  -7.503  14.155  1.00  0.00     0.003 A 
HETATM   33  C   UNL     1      42.690  -8.354  13.263  1.00  0.00     0.037 A 
ENDBRANCH  27  28
ENDBRANCH  26  27
ENDBRANCH  23  26
ENDBRANCH   2  20
TORSDOF 7
ENDMDL
MODEL 4
REMARK VINA RESULT:      -8.3      2.094      3.407
REMARK  7 active torsions:
REMARK  status: ('A' for Active; 'I' for Inactive)
REMARK    1  A    between atoms: C_2  and  N_3 
REMARK    2  A    between atoms: N_7  and  C_8 
REMARK    3  A    between atoms: C_9  and  N_10 
REMARK       I    between atoms: N_10  and  C_11 
REMARK    4  A    between atoms: C_11  and  C_12 
REMARK    5  A    between atoms: C_15  and  C_16 
REMARK    6  A    between atoms: C_16  and  O_17 
REMARK    7  A    between atoms: O_17  and  C_18 
ROOT
HETATM    1  N   UNL     1      41.413 -13.865   3.822  1.00  0.00    -0.321 N 
HETATM    2  C   UNL     1      40.866 -14.569   4.875  1.00  0.00     0.256 C 
HETATM    3  O   UNL     1      39.894 -14.235   5.540  1.00  0.00    -0.267 OA
HETATM    4  H   UNL     1      42.360 -14.081   3.534  1.00  0.00     0.169 HD
ENDROOT
BRANCH   1   5
HETATM    5  C   UNL     1      40.880 -12.681   3.262  1.00  0.00     0.061 A 
HETATM    6  C   UNL     1      39.900 -12.806   2.237  1.00  0.00     0.057 A 
HETATM    7  C   UNL     1      39.217 -11.632   1.873  1.00  0.00     0.031 A 
HETATM    8  C   UNL     1      39.558 -10.384   2.410  1.00  0.00     0.002 A 
HETATM    9  C   UNL     1      40.582 -10.280   3.340  1.00  0.00     0.002 A 
HETATM   10  C   UNL     1      41.236 -11.428   3.774  1.00  0.00     0.032 A 
BRANCH   6  11
HETATM   11  N   UNL     1      39.668 -14.053   1.604  1.00  0.00    -0.376 N 
HETATM   12  C   UNL     1      40.544 -14.321   0.429  1.00  0.00     0.150 C 
HETATM   13  C   UNL     1      39.963 -13.724  -0.865  1.00  0.00     0.254 C 
HETATM   14  N   UNL     1      38.561 -14.280  -1.120  1.00  0.00    -0.068 N 
HETATM   15  H   UNL     1      38.642 -15.303  -1.191  1.00  0.00     0.280 HD
HETATM   16  C   UNL     1      37.656 -13.991   0.083  1.00  0.00     0.254 C 
HETATM   17  C   UNL     1      38.278 -14.517   1.401  1.00  0.00     0.150 C 
BRANCH  14  18
HETATM   18  C   UNL     1      37.951 -13.767  -2.404  1.00  0.00     0.230 C 
HETATM   19  C   UNL     1      37.624 -14.915  -3.342  1.00  0.00     0.034 C 
ENDBRANCH  14  18
ENDBRANCH   6  11
ENDBRANCH   1   5
BRANCH   2  20
HETATM   20  C   UNL     1      41.649 -15.759   5.286  1.00  0.00     0.032 A 
HETATM   21  C   UNL     1      41.212 -17.020   4.875  1.00  0.00     0.017 A 
HETATM   22  C   UNL     1      41.927 -18.159   5.249  1.00  0.00     0.010 A 
HETATM   23  C   UNL     1      43.095 -18.044   6.018  1.00  0.00    -0.034 A 
HETATM   24  C   UNL     1      43.531 -16.771   6.416  1.00  0.00     0.010 A 
HETATM   25  C   UNL     1      42.809 -15.630   6.056  1.00  0.00     0.017 A 
BRANCH  23  26
HETATM   26  C   UNL     1      43.895 -19.281   6.360  1.00  0.00     0.214 C 
BRANCH  26  27
HETATM   27  O   UNL     1      44.931 -19.403   5.391  1.00  0.00    -0.347 OA
BRANCH  27  28
HETATM   28  C   UNL     1      44.708 -20.242   4.336  1.00  0.00     0.069 A 
HETATM   29  C   UNL     1      44.363 -19.864   3.039  1.00  0.00     0.037 A 
HETATM   30  C   UNL     1      44.160 -20.837   2.055  1.00  0.00     0.003 A 
HETATM   31  C   UNL     1      44.303 -22.189   2.363  1.00  0.00     0.000 A 
HETATM   32  C   UNL     1      44.649 -22.572   3.657  1.00  0.00     0.003 A 
HETATM   33  C   UNL     1      44.851 -21.600   4.637  1.00  0.00     0.037 A 
ENDBRANCH  27  28
ENDBRANCH  26  27
ENDBRANCH  23  26
ENDBRANCH   2  20
TORSDOF 7
ENDMDL
MODEL 5
REMARK VINA RESULT:      -8.1      1.540      2.179
REMARK  7 active torsions:
REMARK  status: ('A' for Active; 'I' for Inactive)
REMARK    1  A    between atoms: C_2  and  N_3 
REMARK    2  A    between atoms: N_7  and  C_8 
REMARK    3  A    between atoms: C_9  and  N_10 
REMARK       I    between atoms: N_10  and  C_11 
REMARK    4  A    between atoms: C_11  and  C_12 
REMARK    5  A    between atoms: C_15  and  C_16 
REMARK    6  A    between atoms: C_16  and  O_17 
REMARK    7  A    between atoms: O_17  and  C_18 
ROOT
HETATM    1  N   UNL     1      40.546 -14.128   3.676  1.00  0.00    -0.321 N 
HETATM    2  C   UNL     1      41.754 -14.013   4.332  1.00  0.00     0.256 C 
HETATM    3  O   UNL     1      42.461 -13.014   4.375  1.00  0.00    -0.267 OA
HETATM    4  H   UNL     1      40.193 -15.055   3.470  1.00  0.00     0.169 HD
ENDROOT
BRANCH   1   5
HETATM    5  C   UNL     1      39.864 -13.076   3.023  1.00  0.00     0.061 A 
HETATM    6  C   UNL     1      39.877 -13.050   1.600  1.00  0.00     0.057 A 
HETATM    7  C   UNL     1      38.999 -12.143   0.979  1.00  0.00     0.031 A 
HETATM    8  C   UNL     1      38.232 -11.236   1.720  1.00  0.00     0.002 A 
HETATM    9  C   UNL     1      38.311 -11.222   3.105  1.00  0.00     0.002 A 
HETATM   10  C   UNL     1      39.117 -12.147   3.757  1.00  0.00     0.032 A 
BRANCH   6  11
HETATM   11  N   UNL     1      40.765 -13.877   0.868  1.00  0.00    -0.376 N 
HETATM   12  C   UNL     1      42.125 -13.301   0.670  1.00  0.00     0.150 C 
HETATM   13  C   UNL     1      42.186 -12.392  -0.569  1.00  0.00     0.254 C 
HETATM   14  N   UNL     1      41.762 -13.169  -1.817  1.00  0.00    -0.068 N 
HETATM   15  H   UNL     1      42.401 -13.969  -1.915  1.00  0.00     0.280 HD
HETATM   16  C   UNL     1      40.357 -13.750  -1.620  1.00  0.00     0.254 C 
HETATM   17  C   UNL     1      40.269 -14.598  -0.325  1.00  0.00     0.150 C 
BRANCH  14  18
HETATM   18  C   UNL     1      41.845 -12.344  -3.079  1.00  0.00     0.230 C 
HETATM   19  C   UNL     1      42.372 -10.951  -2.780  1.00  0.00     0.034 C 
ENDBRANCH  14  18
ENDBRANCH   6  11
ENDBRANCH   1   5
BRANCH   2  20
HETATM   20  C   UNL     1      42.263 -15.284   4.902  1.00  0.00     0.032 A 
HETATM   21  C   UNL     1      41.584 -16.468   4.605  1.00  0.00     0.017 A 
HETATM   22  C   UNL     1      42.037 -17.679   5.129  1.00  0.00     0.010 A 
HETATM   23  C   UNL     1      43.186 -17.719   5.936  1.00  0.00    -0.034 A 
HETATM   24  C   UNL     1      43.867 -16.525   6.217  1.00  0.00     0.010 A 
HETATM   25  C   UNL     1      43.406 -15.308   5.706  1.00  0.00     0.017 A 
BRANCH  23  26
HETATM   26  C   UNL     1      43.703 -19.047   6.442  1.00  0.00     0.214 C 
BRANCH  26  27
HETATM   27  O   UNL     1      44.851 -19.382   5.669  1.00  0.00    -0.347 OA
BRANCH  27  28
HETATM   28  C   UNL     1      44.707 -20.355   4.720  1.00  0.00     0.069 A 
HETATM   29  C   UNL     1      44.784 -21.731   4.932  1.00  0.00     0.037 A 
HETATM   30  C   UNL     1      44.619 -22.616   3.862  1.00  0.00     0.003 A 
HETATM   31  C   UNL     1      44.374 -22.129   2.578  1.00  0.00     0.000 A 
HETATM   32  C   UNL     1      44.295 -20.755   2.362  1.00  0.00     0.003 A 
HETATM   33  C   UNL     1      44.460 -19.874   3.431  1.00  0.00     0.037 A 
ENDBRANCH  27  28
ENDBRANCH  26  27
ENDBRANCH  23  26
ENDBRANCH   2  20
TORSDOF 7
ENDMDL
MODEL 6
REMARK VINA RESULT:      -8.0      6.458      8.441
REMARK  7 active torsions:
REMARK  status: ('A' for Active; 'I' for Inactive)
REMARK    1  A    between atoms: C_2  and  N_3 
REMARK    2  A    between atoms: N_7  and  C_8 
REMARK    3  A    between atoms: C_9  and  N_10 
REMARK       I    between atoms: N_10  and  C_11 
REMARK    4  A    between atoms: C_11  and  C_12 
REMARK    5  A    between atoms: C_15  and  C_16 
REMARK    6  A    between atoms: C_16  and  O_17 
REMARK    7  A    between atoms: O_17  and  C_18 
ROOT
HETATM    1  N   UNL     1      40.584 -11.491   7.513  1.00  0.00    -0.321 N 
HETATM    2  C   UNL     1      41.226 -11.656   6.304  1.00  0.00     0.256 C 
HETATM    3  O   UNL     1      41.517 -10.768   5.513  1.00  0.00    -0.267 OA
HETATM    4  H   UNL     1      40.147 -12.297   7.945  1.00  0.00     0.169 HD
ENDROOT
BRANCH   1   5
HETATM    5  C   UNL     1      40.242 -10.250   8.097  1.00  0.00     0.061 A 
HETATM    6  C   UNL     1      40.863  -9.894   9.328  1.00  0.00     0.057 A 
HETATM    7  C   UNL     1      40.693  -8.565   9.758  1.00  0.00     0.031 A 
HETATM    8  C   UNL     1      39.865  -7.669   9.070  1.00  0.00     0.002 A 
HETATM    9  C   UNL     1      39.197  -8.073   7.923  1.00  0.00     0.002 A 
HETATM   10  C   UNL     1      39.393  -9.358   7.430  1.00  0.00     0.032 A 
BRANCH   6  11
HETATM   11  N   UNL     1      41.580 -10.856  10.083  1.00  0.00    -0.376 N 
HETATM   12  C   UNL     1      40.936 -11.232  11.373  1.00  0.00     0.150 C 
HETATM   13  C   UNL     1      41.326 -10.269  12.508  1.00  0.00     0.254 C 
HETATM   14  N   UNL     1      42.846 -10.233  12.673  1.00  0.00    -0.068 N 
HETATM   15  H   UNL     1      43.157 -11.191  12.880  1.00  0.00     0.280 HD
HETATM   16  C   UNL     1      43.507  -9.832  11.349  1.00  0.00     0.254 C 
HETATM   17  C   UNL     1      43.051 -10.748  10.186  1.00  0.00     0.150 C 
BRANCH  14  18
HETATM   18  C   UNL     1      43.292  -9.339  13.806  1.00  0.00     0.230 C 
HETATM   19  C   UNL     1      42.433  -9.558  15.038  1.00  0.00     0.034 C 
ENDBRANCH  14  18
ENDBRANCH   6  11
ENDBRANCH   1   5
BRANCH   2  20
HETATM   20  C   UNL     1      41.432 -13.071   5.910  1.00  0.00     0.032 A 
HETATM   21  C   UNL     1      40.327 -13.925   5.886  1.00  0.00     0.017 A 
HETATM   22  C   UNL     1      40.491 -15.262   5.522  1.00  0.00     0.010 A 
HETATM   23  C   UNL     1      41.756 -15.751   5.160  1.00  0.00    -0.034 A 
HETATM   24  C   UNL     1      42.857 -14.881   5.176  1.00  0.00     0.010 A 
HETATM   25  C   UNL     1      42.699 -13.544   5.555  1.00  0.00     0.017 A 
BRANCH  23  26
HETATM   26  C   UNL     1      41.906 -17.185   4.705  1.00  0.00     0.214 C 
BRANCH  26  27
HETATM   27  O   UNL     1      43.280 -17.396   4.399  1.00  0.00    -0.347 OA
BRANCH  27  28
HETATM   28  C   UNL     1      43.609 -18.555   3.754  1.00  0.00     0.069 A 
HETATM   29  C   UNL     1      43.151 -18.960   2.501  1.00  0.00     0.037 A 
HETATM   30  C   UNL     1      43.570 -20.181   1.962  1.00  0.00     0.003 A 
HETATM   31  C   UNL     1      44.449 -20.998   2.672  1.00  0.00     0.000 A 
HETATM   32  C   UNL     1      44.910 -20.597   3.923  1.00  0.00     0.003 A 
HETATM   33  C   UNL     1      44.492 -19.379   4.459  1.00  0.00     0.037 A 
ENDBRANCH  27  28
ENDBRANCH  26  27
ENDBRANCH  23  26
ENDBRANCH   2  20
TORSDOF 7
ENDMDL
MODEL 7
REMARK VINA RESULT:      -8.0      5.729      7.556
REMARK  7 active torsions:
REMARK  status: ('A' for Active; 'I' for Inactive)
REMARK    1  A    between atoms: C_2  and  N_3 
REMARK    2  A    between atoms: N_7  and  C_8 
REMARK    3  A    between atoms: C_9  and  N_10 
REMARK       I    between atoms: N_10  and  C_11 
REMARK    4  A    between atoms: C_11  and  C_12 
REMARK    5  A    between atoms: C_15  and  C_16 
REMARK    6  A    between atoms: C_16  and  O_17 
REMARK    7  A    between atoms: O_17  and  C_18 
ROOT
HETATM    1  N   UNL     1      41.646 -11.708   6.295  1.00  0.00    -0.321 N 
HETATM    2  C   UNL     1      40.768 -12.603   5.719  1.00  0.00     0.256 C 
HETATM    3  O   UNL     1      39.621 -12.363   5.364  1.00  0.00    -0.267 OA
HETATM    4  H   UNL     1      42.447 -12.070   6.799  1.00  0.00     0.169 HD
ENDROOT
BRANCH   1   5
HETATM    5  C   UNL     1      41.406 -10.327   6.481  1.00  0.00     0.061 A 
HETATM    6  C   UNL     1      41.032  -9.880   7.779  1.00  0.00     0.057 A 
HETATM    7  C   UNL     1      41.037  -8.490   7.991  1.00  0.00     0.031 A 
HETATM    8  C   UNL     1      41.288  -7.586   6.951  1.00  0.00     0.002 A 
HETATM    9  C   UNL     1      41.557  -8.051   5.672  1.00  0.00     0.002 A 
HETATM   10  C   UNL     1      41.627  -9.419   5.438  1.00  0.00     0.032 A 
BRANCH   6  11
HETATM   11  N   UNL     1      40.644 -10.805   8.780  1.00  0.00    -0.376 N 
HETATM   12  C   UNL     1      39.178 -11.063   8.847  1.00  0.00     0.150 C 
HETATM   13  C   UNL     1      38.455 -10.031   9.729  1.00  0.00     0.254 C 
HETATM   14  N   UNL     1      39.050 -10.030  11.139  1.00  0.00    -0.068 N 
HETATM   15  H   UNL     1      38.942 -10.980  11.519  1.00  0.00     0.280 HD
HETATM   16  C   UNL     1      40.556  -9.750  11.072  1.00  0.00     0.254 C 
HETATM   17  C   UNL     1      41.275 -10.737  10.116  1.00  0.00     0.150 C 
BRANCH  14  18
HETATM   18  C   UNL     1      38.352  -9.068  12.070  1.00  0.00     0.230 C 
HETATM   19  C   UNL     1      37.674  -7.956  11.290  1.00  0.00     0.034 C 
ENDBRANCH  14  18
ENDBRANCH   6  11
ENDBRANCH   1   5
BRANCH   2  20
HETATM   20  C   UNL     1      41.260 -14.001   5.679  1.00  0.00     0.032 A 
HETATM   21  C   UNL     1      42.612 -14.226   5.411  1.00  0.00     0.017 A 
HETATM   22  C   UNL     1      43.103 -15.531   5.364  1.00  0.00     0.010 A 
HETATM   23  C   UNL     1      42.252 -16.620   5.606  1.00  0.00    -0.034 A 
HETATM   24  C   UNL     1      40.897 -16.382   5.886  1.00  0.00     0.010 A 
HETATM   25  C   UNL     1      40.399 -15.077   5.919  1.00  0.00     0.017 A 
BRANCH  23  26
HETATM   26  C   UNL     1      42.812 -18.025   5.617  1.00  0.00     0.214 C 
BRANCH  26  27
HETATM   27  O   UNL     1      43.872 -18.071   4.668  1.00  0.00    -0.347 OA
BRANCH  27  28
HETATM   28  C   UNL     1      43.997 -19.208   3.921  1.00  0.00     0.069 A 
HETATM   29  C   UNL     1      44.643 -20.382   4.307  1.00  0.00     0.037 A 
HETATM   30  C   UNL     1      44.697 -21.473   3.433  1.00  0.00     0.003 A 
HETATM   31  C   UNL     1      44.105 -21.394   2.174  1.00  0.00     0.000 A 
HETATM   32  C   UNL     1      43.457 -20.225   1.784  1.00  0.00     0.003 A 
HETATM   33  C   UNL     1      43.404 -19.138   2.657  1.00  0.00     0.037 A 
ENDBRANCH  27  28
ENDBRANCH  26  27
ENDBRANCH  23  26
ENDBRANCH   2  20
TORSDOF 7
ENDMDL
MODEL 8
REMARK VINA RESULT:      -7.9      4.386      5.835
REMARK  7 active torsions:
REMARK  status: ('A' for Active; 'I' for Inactive)
REMARK    1  A    between atoms: C_2  and  N_3 
REMARK    2  A    between atoms: N_7  and  C_8 
REMARK    3  A    between atoms: C_9  and  N_10 
REMARK       I    between atoms: N_10  and  C_11 
REMARK    4  A    between atoms: C_11  and  C_12 
REMARK    5  A    between atoms: C_15  and  C_16 
REMARK    6  A    between atoms: C_16  and  O_17 
REMARK    7  A    between atoms: O_17  and  C_18 
ROOT
HETATM    1  N   UNL     1      40.631 -13.699   5.073  1.00  0.00    -0.321 N 
HETATM    2  C   UNL     1      41.990 -13.821   4.869  1.00  0.00     0.256 C 
HETATM    3  O   UNL     1      42.715 -13.000   4.321  1.00  0.00    -0.267 OA
HETATM    4  H   UNL     1      40.093 -14.534   5.272  1.00  0.00     0.169 HD
ENDROOT
BRANCH   1   5
HETATM    5  C   UNL     1      39.856 -12.554   4.775  1.00  0.00     0.061 A 
HETATM    6  C   UNL     1      39.863 -11.478   5.707  1.00  0.00     0.057 A 
HETATM    7  C   UNL     1      39.287 -10.270   5.277  1.00  0.00     0.031 A 
HETATM    8  C   UNL     1      38.641 -10.160   4.039  1.00  0.00     0.002 A 
HETATM    9  C   UNL     1      38.569 -11.255   3.190  1.00  0.00     0.002 A 
HETATM   10  C   UNL     1      39.184 -12.448   3.551  1.00  0.00     0.032 A 
BRANCH   6  11
HETATM   11  N   UNL     1      40.395 -11.651   7.009  1.00  0.00    -0.376 N 
HETATM   12  C   UNL     1      39.385 -11.589   8.102  1.00  0.00     0.150 C 
HETATM   13  C   UNL     1      39.126 -10.144   8.561  1.00  0.00     0.254 C 
HETATM   14  N   UNL     1      40.431  -9.492   9.019  1.00  0.00    -0.068 N 
HETATM   15  H   UNL     1      40.807 -10.061   9.790  1.00  0.00     0.280 HD
HETATM   16  C   UNL     1      41.467  -9.542   7.890  1.00  0.00     0.254 C 
HETATM   17  C   UNL     1      41.668 -10.987   7.367  1.00  0.00     0.150 C 
BRANCH  14  18
HETATM   18  C   UNL     1      40.237  -8.083   9.527  1.00  0.00     0.230 C 
HETATM   19  C   UNL     1      41.042  -7.850  10.793  1.00  0.00     0.034 C 
ENDBRANCH  14  18
ENDBRANCH   6  11
ENDBRANCH   1   5
BRANCH   2  20
HETATM   20  C   UNL     1      42.546 -15.145   5.238  1.00  0.00     0.032 A 
HETATM   21  C   UNL     1      41.954 -16.291   4.702  1.00  0.00     0.017 A 
HETATM   22  C   UNL     1      42.454 -17.551   5.034  1.00  0.00     0.010 A 
HETATM   23  C   UNL     1      43.562 -17.674   5.886  1.00  0.00    -0.034 A 
HETATM   24  C   UNL     1      44.156 -16.515   6.409  1.00  0.00     0.010 A 
HETATM   25  C   UNL     1      43.648 -15.253   6.091  1.00  0.00     0.017 A 
BRANCH  23  26
HETATM   26  C   UNL     1      44.134 -19.042   6.184  1.00  0.00     0.214 C 
BRANCH  26  27
HETATM   27  O   UNL     1      45.103 -19.329   5.181  1.00  0.00    -0.347 OA
BRANCH  27  28
HETATM   28  C   UNL     1      44.798 -20.302   4.273  1.00  0.00     0.069 A 
HETATM   29  C   UNL     1      44.922 -21.678   4.465  1.00  0.00     0.037 A 
HETATM   30  C   UNL     1      44.573 -22.564   3.440  1.00  0.00     0.003 A 
HETATM   31  C   UNL     1      44.098 -22.078   2.223  1.00  0.00     0.000 A 
HETATM   32  C   UNL     1      43.971 -20.705   2.027  1.00  0.00     0.003 A 
HETATM   33  C   UNL     1      44.319 -19.823   3.050  1.00  0.00     0.037 A 
ENDBRANCH  27  28
ENDBRANCH  26  27
ENDBRANCH  23  26
ENDBRANCH   2  20
TORSDOF 7
ENDMDL
MODEL 9
REMARK VINA RESULT:      -7.9      7.093     10.833
REMARK  7 active torsions:
REMARK  status: ('A' for Active; 'I' for Inactive)
REMARK    1  A    between atoms: C_2  and  N_3 
REMARK    2  A    between atoms: N_7  and  C_8 
REMARK    3  A    between atoms: C_9  and  N_10 
REMARK       I    between atoms: N_10  and  C_11 
REMARK    4  A    between atoms: C_11  and  C_12 
REMARK    5  A    between atoms: C_15  and  C_16 
REMARK    6  A    between atoms: C_16  and  O_17 
REMARK    7  A    between atoms: O_17  and  C_18 
ROOT
HETATM    1  N   UNL     1      43.568 -13.499   6.596  1.00  0.00    -0.321 N 
HETATM    2  C   UNL     1      44.728 -13.139   7.249  1.00  0.00     0.256 C 
HETATM    3  O   UNL     1      45.864 -13.484   6.948  1.00  0.00    -0.267 OA
HETATM    4  H   UNL     1      42.686 -13.395   7.083  1.00  0.00     0.169 HD
ENDROOT
BRANCH   1   5
HETATM    5  C   UNL     1      43.499 -14.248   5.399  1.00  0.00     0.061 A 
HETATM    6  C   UNL     1      43.335 -15.659   5.500  1.00  0.00     0.057 A 
HETATM    7  C   UNL     1      43.029 -16.343   4.310  1.00  0.00     0.031 A 
HETATM    8  C   UNL     1      42.996 -15.690   3.072  1.00  0.00     0.002 A 
HETATM    9  C   UNL     1      43.253 -14.329   2.993  1.00  0.00     0.002 A 
HETATM   10  C   UNL     1      43.494 -13.606   4.155  1.00  0.00     0.032 A 
BRANCH   6  11
HETATM   11  N   UNL     1      43.513 -16.322   6.740  1.00  0.00    -0.376 N 
HETATM   12  C   UNL     1      44.882 -16.870   6.956  1.00  0.00     0.150 C 
HETATM   13  C   UNL     1      45.038 -18.275   6.350  1.00  0.00     0.254 C 
HETATM   14  N   UNL     1      43.996 -19.225   6.943  1.00  0.00    -0.068 N 
HETATM   15  H   UNL     1      44.139 -19.245   7.961  1.00  0.00     0.280 HD
HETATM   16  C   UNL     1      42.587 -18.670   6.707  1.00  0.00     0.254 C 
HETATM   17  C   UNL     1      42.450 -17.221   7.241  1.00  0.00     0.150 C 
BRANCH  14  18
HETATM   18  C   UNL     1      44.126 -20.637   6.422  1.00  0.00     0.230 C 
HETATM   19  C   UNL     1      44.658 -20.641   5.000  1.00  0.00     0.034 C 
ENDBRANCH  14  18
ENDBRANCH   6  11
ENDBRANCH   1   5
BRANCH   2  20
HETATM   20  C   UNL     1      44.512 -12.380   8.505  1.00  0.00     0.032 A 
HETATM   21  C   UNL     1      45.493 -12.441   9.499  1.00  0.00     0.017 A 
HETATM   22  C   UNL     1      45.316 -11.740  10.692  1.00  0.00     0.010 A 
HETATM   23  C   UNL     1      44.169 -10.957  10.894  1.00  0.00    -0.034 A 
HETATM   24  C   UNL     1      43.196 -10.894   9.884  1.00  0.00     0.010 A 
HETATM   25  C   UNL     1      43.363 -11.607   8.693  1.00  0.00     0.017 A 
BRANCH  23  26
HETATM   26  C   UNL     1      44.022 -10.151  12.165  1.00  0.00     0.214 C 
BRANCH  26  27
HETATM   27  O   UNL     1      42.633 -10.081  12.470  1.00  0.00    -0.347 OA
BRANCH  27  28
HETATM   28  C   UNL     1      42.278  -9.476  13.642  1.00  0.00     0.069 A 
HETATM   29  C   UNL     1      42.224 -10.080  14.898  1.00  0.00     0.037 A 
HETATM   30  C   UNL     1      41.837  -9.336  16.018  1.00  0.00     0.003 A 
HETATM   31  C   UNL     1      41.506  -7.989  15.886  1.00  0.00     0.000 A 
HETATM   32  C   UNL     1      41.559  -7.381  14.634  1.00  0.00     0.003 A 
HETATM   33  C   UNL     1      41.946  -8.124  13.519  1.00  0.00     0.037 A 
ENDBRANCH  27  28
ENDBRANCH  26  27
ENDBRANCH  23  26
ENDBRANCH   2  20
TORSDOF 7
ENDMDL
MODEL 10
REMARK VINA RESULT:      -7.8      2.793      8.436
REMARK  7 active torsions:
REMARK  status: ('A' for Active; 'I' for Inactive)
REMARK    1  A    between atoms: C_2  and  N_3 
REMARK    2  A    between atoms: N_7  and  C_8 
REMARK    3  A    between atoms: C_9  and  N_10 
REMARK       I    between atoms: N_10  and  C_11 
REMARK    4  A    between atoms: C_11  and  C_12 
REMARK    5  A    between atoms: C_15  and  C_16 
REMARK    6  A    between atoms: C_16  and  O_17 
REMARK    7  A    between atoms: O_17  and  C_18 
ROOT
HETATM    1  N   UNL     1      41.644 -14.199   3.938  1.00  0.00    -0.321 N 
HETATM    2  C   UNL     1      40.271 -14.125   4.057  1.00  0.00     0.256 C 
HETATM    3  O   UNL     1      39.615 -14.431   5.044  1.00  0.00    -0.267 OA
HETATM    4  H   UNL     1      42.050 -14.194   3.010  1.00  0.00     0.169 HD
ENDROOT
BRANCH   1   5
HETATM    5  C   UNL     1      42.540 -14.545   4.974  1.00  0.00     0.061 A 
HETATM    6  C   UNL     1      42.954 -15.903   5.077  1.00  0.00     0.057 A 
HETATM    7  C   UNL     1      44.021 -16.171   5.954  1.00  0.00     0.031 A 
HETATM    8  C   UNL     1      44.574 -15.175   6.767  1.00  0.00     0.002 A 
HETATM    9  C   UNL     1      44.086 -13.877   6.713  1.00  0.00     0.002 A 
HETATM   10  C   UNL     1      43.077 -13.559   5.811  1.00  0.00     0.032 A 
BRANCH   6  11
HETATM   11  N   UNL     1      42.286 -16.922   4.351  1.00  0.00    -0.376 N 
HETATM   12  C   UNL     1      42.088 -18.190   5.108  1.00  0.00     0.150 C 
HETATM   13  C   UNL     1      43.309 -19.118   4.998  1.00  0.00     0.254 C 
HETATM   14  N   UNL     1      43.609 -19.427   3.530  1.00  0.00    -0.068 N 
HETATM   15  H   UNL     1      42.771 -19.871   3.130  1.00  0.00     0.280 HD
HETATM   16  C   UNL     1      43.828 -18.123   2.755  1.00  0.00     0.254 C 
HETATM   17  C   UNL     1      42.635 -17.149   2.932  1.00  0.00     0.150 C 
BRANCH  14  18
HETATM   18  C   UNL     1      44.772 -20.374   3.355  1.00  0.00     0.230 C 
HETATM   19  C   UNL     1      44.482 -21.390   2.265  1.00  0.00     0.034 C 
ENDBRANCH  14  18
ENDBRANCH   6  11
ENDBRANCH   1   5
BRANCH   2  20
HETATM   20  C   UNL     1      39.567 -13.771   2.801  1.00  0.00     0.032 A 
HETATM   21  C   UNL     1      39.666 -12.461   2.327  1.00  0.00     0.017 A 
HETATM   22  C   UNL     1      39.012 -12.097   1.150  1.00  0.00     0.010 A 
HETATM   23  C   UNL     1      38.271 -13.044   0.426  1.00  0.00    -0.034 A 
HETATM   24  C   UNL     1      38.187 -14.360   0.906  1.00  0.00     0.010 A 
HETATM   25  C   UNL     1      38.829 -14.724   2.093  1.00  0.00     0.017 A 
BRANCH  23  26
HETATM   26  C   UNL     1      37.622 -12.652  -0.882  1.00  0.00     0.214 C 
BRANCH  26  27
HETATM   27  O   UNL     1      38.645 -12.609  -1.872  1.00  0.00    -0.347 OA
BRANCH  27  28
HETATM   28  C   UNL     1      38.944 -13.777  -2.515  1.00  0.00     0.069 A 
HETATM   29  C   UNL     1      40.166 -14.450  -2.478  1.00  0.00     0.037 A 
HETATM   30  C   UNL     1      40.333 -15.640  -3.193  1.00  0.00     0.003 A 
HETATM   31  C   UNL     1      39.281 -16.162  -3.944  1.00  0.00     0.000 A 
HETATM   32  C   UNL     1      38.059 -15.495  -3.983  1.00  0.00     0.003 A 
HETATM   33  C   UNL     1      37.894 -14.308  -3.269  1.00  0.00     0.037 A 
ENDBRANCH  27  28
ENDBRANCH  26  27
ENDBRANCH  23  26
ENDBRANCH   2  20
TORSDOF 7
ENDMDL
