MODEL 1
REMARK VINA RESULT:      -9.6      0.000      0.000
REMARK  6 active torsions:
REMARK  status: ('A' for Active; 'I' for Inactive)
REMARK    1  A    between atoms: O_2  and  C_3 
REMARK    2  A    between atoms: C_6  and  N_7 
REMARK       I    between atoms: N_7  and  C_8 
REMARK       I    between atoms: C_8  and  N_9 
REMARK    3  A    between atoms: N_9  and  C_10 
REMARK    4  A    between atoms: C_10  and  C_11 
REMARK       I    between atoms: C_11  and  N_12 
REMARK    5  A    between atoms: N_12  and  N_13 
REMARK       I    between atoms: N_13  and  C_14 
REMARK       I    between atoms: C_14  and  N_15 
REMARK    6  A    between atoms: N_15  and  C_16 
ROOT
HETATM    1  C   UNL     1      39.895 -12.556   6.346  1.00  0.00     0.253 C 
HETATM    2  N   UNL     1      40.680 -13.692   6.292  1.00  0.00    -0.265 N 
HETATM    3  O   UNL     1      38.721 -12.539   5.976  1.00  0.00    -0.270 OA
HETATM    4  H   UNL     1      41.586 -13.689   6.764  1.00  0.00     0.190 HD
ENDROOT
BRANCH   2   5
HETATM    5  N   UNL     1      40.037 -14.920   6.033  1.00  0.00    -0.249 N 
HETATM    6  C   UNL     1      40.760 -16.101   6.034  1.00  0.00     0.339 C 
HETATM    7  N   UNL     1      42.043 -15.972   5.551  1.00  0.00    -0.307 N 
HETATM    8  O   UNL     1      40.218 -17.134   6.416  1.00  0.00    -0.245 OA
HETATM    9  H   UNL     1      42.178 -15.157   4.979  1.00  0.00     0.170 HD
HETATM   10  H   UNL     1      39.146 -15.025   6.522  1.00  0.00     0.192 HD
BRANCH   7  11
HETATM   11  C   UNL     1      43.059 -16.965   5.524  1.00  0.00     0.047 A 
HETATM   12  C   UNL     1      43.193 -17.819   4.382  1.00  0.00     0.001 A 
HETATM   13  C   UNL     1      44.217 -18.805   4.393  1.00  0.00    -0.024 A 
HETATM   14  C   UNL     1      42.368 -17.770   3.229  1.00  0.00     0.014 A 
HETATM   15  C   UNL     1      44.374 -19.683   3.307  1.00  0.00     0.012 A 
HETATM   16  C   UNL     1      45.080 -18.915   5.490  1.00  0.00     0.012 A 
HETATM   17  C   UNL     1      43.537 -19.611   2.196  1.00  0.00     0.001 A 
HETATM   18  C   UNL     1      42.535 -18.653   2.156  1.00  0.00     0.001 A 
HETATM   19  C   UNL     1      44.953 -18.067   6.582  1.00  0.00     0.003 A 
HETATM   20  C   UNL     1      43.951 -17.100   6.597  1.00  0.00     0.030 A 
ENDBRANCH   7  11
ENDBRANCH   2   5
BRANCH   1  21
HETATM   21  C   UNL     1      40.542 -11.373   7.072  1.00  0.00     0.228 C 
BRANCH  21  22
HETATM   22  N   UNL     1      40.179 -11.190   8.467  1.00  0.00    -0.334 N 
HETATM   23  C   UNL     1      39.185 -10.364   8.885  1.00  0.00     0.321 C 
HETATM   24  N   UNL     1      39.097 -10.141  10.225  1.00  0.00    -0.309 N 
HETATM   25  O   UNL     1      38.346  -9.906   8.110  1.00  0.00    -0.247 OA
HETATM   26  H   UNL     1      38.196  -9.771  10.503  1.00  0.00     0.170 HD
HETATM   27  H   UNL     1      40.495 -11.879   9.139  1.00  0.00     0.164 HD
BRANCH  24  28
HETATM   28  C   UNL     1      40.110 -10.082  11.206  1.00  0.00     0.036 A 
HETATM   29  C   UNL     1      41.090  -9.087  11.255  1.00  0.00     0.032 A 
HETATM   30  C   UNL     1      41.999  -9.027  12.321  1.00  0.00     0.039 A 
HETATM   31  C   UNL     1      41.930  -9.956  13.356  1.00  0.00     0.068 A 
HETATM   32  C   UNL     1      40.971 -10.967  13.297  1.00  0.00     0.039 A 
HETATM   33  C   UNL     1      40.058 -11.023  12.239  1.00  0.00     0.032 A 
BRANCH  31  34
HETATM   34  O   UNL     1      42.736  -9.980  14.458  1.00  0.00    -0.356 OA
HETATM   35  C   UNL     1      42.151  -9.526  15.675  1.00  0.00     0.210 C 
ENDBRANCH  31  34
ENDBRANCH  24  28
ENDBRANCH  21  22
ENDBRANCH   1  21
TORSDOF 6
ENDMDL
MODEL 2
REMARK VINA RESULT:      -9.4      2.910      3.940
REMARK  6 active torsions:
REMARK  status: ('A' for Active; 'I' for Inactive)
REMARK    1  A    between atoms: O_2  and  C_3 
REMARK    2  A    between atoms: C_6  and  N_7 
REMARK       I    between atoms: N_7  and  C_8 
REMARK       I    between atoms: C_8  and  N_9 
REMARK    3  A    between atoms: N_9  and  C_10 
REMARK    4  A    between atoms: C_10  and  C_11 
REMARK       I    between atoms: C_11  and  N_12 
REMARK    5  A    between atoms: N_12  and  N_13 
REMARK       I    between atoms: N_13  and  C_14 
REMARK       I    between atoms: C_14  and  N_15 
REMARK    6  A    between atoms: N_15  and  C_16 
ROOT
HETATM    1  C   UNL     1      44.146 -14.115   6.510  1.00  0.00     0.253 C 
HETATM    2  N   UNL     1      43.274 -15.075   6.988  1.00  0.00    -0.265 N 
HETATM    3  O   UNL     1      44.029 -13.603   5.397  1.00  0.00    -0.270 OA
HETATM    4  H   UNL     1      43.321 -15.338   7.974  1.00  0.00     0.190 HD
ENDROOT
BRANCH   2   5
HETATM    5  N   UNL     1      42.080 -15.290   6.269  1.00  0.00    -0.249 N 
HETATM    6  C   UNL     1      42.025 -16.259   5.280  1.00  0.00     0.339 C 
HETATM    7  N   UNL     1      43.197 -16.403   4.572  1.00  0.00    -0.307 N 
HETATM    8  O   UNL     1      40.974 -16.866   5.095  1.00  0.00    -0.245 OA
HETATM    9  H   UNL     1      43.804 -15.604   4.632  1.00  0.00     0.170 HD
HETATM   10  H   UNL     1      41.246 -15.308   6.858  1.00  0.00     0.192 HD
BRANCH   7  11
HETATM   11  C   UNL     1      43.491 -17.374   3.578  1.00  0.00     0.047 A 
HETATM   12  C   UNL     1      43.904 -18.690   3.964  1.00  0.00     0.001 A 
HETATM   13  C   UNL     1      44.196 -19.634   2.942  1.00  0.00    -0.024 A 
HETATM   14  C   UNL     1      44.061 -19.133   5.304  1.00  0.00     0.014 A 
HETATM   15  C   UNL     1      44.629 -20.930   3.270  1.00  0.00     0.012 A 
HETATM   16  C   UNL     1      44.060 -19.280   1.595  1.00  0.00     0.012 A 
HETATM   17  C   UNL     1      44.781 -21.325   4.596  1.00  0.00     0.001 A 
HETATM   18  C   UNL     1      44.495 -20.426   5.614  1.00  0.00     0.001 A 
HETATM   19  C   UNL     1      43.638 -18.007   1.233  1.00  0.00     0.003 A 
HETATM   20  C   UNL     1      43.355 -17.064   2.218  1.00  0.00     0.030 A 
ENDBRANCH   7  11
ENDBRANCH   2   5
BRANCH   1  21
HETATM   21  C   UNL     1      45.153 -13.605   7.545  1.00  0.00     0.228 C 
BRANCH  21  22
HETATM   22  N   UNL     1      44.773 -12.417   8.291  1.00  0.00    -0.334 N 
HETATM   23  C   UNL     1      45.664 -11.585   8.889  1.00  0.00     0.321 C 
HETATM   24  N   UNL     1      45.153 -10.635   9.720  1.00  0.00    -0.309 N 
HETATM   25  O   UNL     1      46.867 -11.620   8.630  1.00  0.00    -0.247 OA
HETATM   26  H   UNL     1      45.805  -9.881   9.901  1.00  0.00     0.170 HD
HETATM   27  H   UNL     1      43.840 -12.047   8.159  1.00  0.00     0.164 HD
BRANCH  24  28
HETATM   28  C   UNL     1      44.015 -10.672  10.552  1.00  0.00     0.036 A 
HETATM   29  C   UNL     1      44.065 -10.899  11.930  1.00  0.00     0.032 A 
HETATM   30  C   UNL     1      42.906 -10.813  12.714  1.00  0.00     0.039 A 
HETATM   31  C   UNL     1      41.685 -10.487  12.129  1.00  0.00     0.068 A 
HETATM   32  C   UNL     1      41.625 -10.287  10.751  1.00  0.00     0.039 A 
HETATM   33  C   UNL     1      42.782 -10.364   9.969  1.00  0.00     0.032 A 
BRANCH  31  34
HETATM   34  O   UNL     1      40.498 -10.343  12.791  1.00  0.00    -0.356 OA
HETATM   35  C   UNL     1      40.033  -9.008  12.962  1.00  0.00     0.210 C 
ENDBRANCH  31  34
ENDBRANCH  24  28
ENDBRANCH  21  22
ENDBRANCH   1  21
TORSDOF 6
ENDMDL
MODEL 3
REMARK VINA RESULT:      -9.3      2.947      4.187
REMARK  6 active torsions:
REMARK  status: ('A' for Active; 'I' for Inactive)
REMARK    1  A    between atoms: O_2  and  C_3 
REMARK    2  A    between atoms: C_6  and  N_7 
REMARK       I    between atoms: N_7  and  C_8 
REMARK       I    between atoms: C_8  and  N_9 
REMARK    3  A    between atoms: N_9  and  C_10 
REMARK    4  A    between atoms: C_10  and  C_11 
REMARK       I    between atoms: C_11  and  N_12 
REMARK    5  A    between atoms: N_12  and  N_13 
REMARK       I    between atoms: N_13  and  C_14 
REMARK       I    between atoms: C_14  and  N_15 
REMARK    6  A    between atoms: N_15  and  C_16 
ROOT
HETATM    1  C   UNL     1      42.967 -14.855   5.986  1.00  0.00     0.253 C 
HETATM    2  N   UNL     1      43.286 -14.699   4.650  1.00  0.00    -0.265 N 
HETATM    3  O   UNL     1      41.876 -15.283   6.365  1.00  0.00    -0.270 OA
HETATM    4  H   UNL     1      44.255 -14.502   4.394  1.00  0.00     0.190 HD
ENDROOT
BRANCH   2   5
HETATM    5  N   UNL     1      42.420 -15.278   3.699  1.00  0.00    -0.249 N 
HETATM    6  C   UNL     1      42.416 -16.649   3.501  1.00  0.00     0.339 C 
HETATM    7  N   UNL     1      43.653 -17.238   3.637  1.00  0.00    -0.307 N 
HETATM    8  O   UNL     1      41.364 -17.207   3.201  1.00  0.00    -0.245 OA
HETATM    9  H   UNL     1      44.418 -16.594   3.537  1.00  0.00     0.170 HD
HETATM   10  H   UNL     1      41.472 -14.900   3.726  1.00  0.00     0.192 HD
BRANCH   7  11
HETATM   11  C   UNL     1      43.957 -18.625   3.602  1.00  0.00     0.047 A 
HETATM   12  C   UNL     1      43.948 -19.390   4.813  1.00  0.00     0.001 A 
HETATM   13  C   UNL     1      44.264 -20.774   4.740  1.00  0.00    -0.024 A 
HETATM   14  C   UNL     1      43.658 -18.869   6.101  1.00  0.00     0.014 A 
HETATM   15  C   UNL     1      44.292 -21.561   5.904  1.00  0.00     0.012 A 
HETATM   16  C   UNL     1      44.555 -21.368   3.506  1.00  0.00     0.012 A 
HETATM   17  C   UNL     1      44.012 -21.012   7.152  1.00  0.00     0.001 A 
HETATM   18  C   UNL     1      43.693 -19.666   7.250  1.00  0.00     0.001 A 
HETATM   19  C   UNL     1      44.539 -20.620   2.336  1.00  0.00     0.003 A 
HETATM   20  C   UNL     1      44.242 -19.260   2.385  1.00  0.00     0.030 A 
ENDBRANCH   7  11
ENDBRANCH   2   5
BRANCH   1  21
HETATM   21  C   UNL     1      44.138 -14.633   6.946  1.00  0.00     0.228 C 
BRANCH  21  22
HETATM   22  N   UNL     1      44.155 -13.374   7.670  1.00  0.00    -0.334 N 
HETATM   23  C   UNL     1      45.293 -12.721   8.023  1.00  0.00     0.321 C 
HETATM   24  N   UNL     1      45.156 -11.665   8.871  1.00  0.00    -0.309 N 
HETATM   25  O   UNL     1      46.387 -13.005   7.536  1.00  0.00    -0.247 OA
HETATM   26  H   UNL     1      45.963 -11.054   8.869  1.00  0.00     0.170 HD
HETATM   27  H   UNL     1      43.303 -12.826   7.699  1.00  0.00     0.164 HD
BRANCH  24  28
HETATM   28  C   UNL     1      44.228 -11.450   9.913  1.00  0.00     0.036 A 
HETATM   29  C   UNL     1      43.077 -10.668   9.780  1.00  0.00     0.032 A 
HETATM   30  C   UNL     1      42.143 -10.587  10.822  1.00  0.00     0.039 A 
HETATM   31  C   UNL     1      42.343 -11.296  12.003  1.00  0.00     0.068 A 
HETATM   32  C   UNL     1      43.503 -12.055  12.150  1.00  0.00     0.039 A 
HETATM   33  C   UNL     1      44.433 -12.145  11.108  1.00  0.00     0.032 A 
BRANCH  31  34
HETATM   34  O   UNL     1      41.491 -11.321  13.071  1.00  0.00    -0.356 OA
HETATM   35  C   UNL     1      40.147 -11.702  12.794  1.00  0.00     0.210 C 
ENDBRANCH  31  34
ENDBRANCH  24  28
ENDBRANCH  21  22
ENDBRANCH   1  21
TORSDOF 6
ENDMDL
MODEL 4
REMARK VINA RESULT:      -9.3      3.580      5.661
REMARK  6 active torsions:
REMARK  status: ('A' for Active; 'I' for Inactive)
REMARK    1  A    between atoms: O_2  and  C_3 
REMARK    2  A    between atoms: C_6  and  N_7 
REMARK       I    between atoms: N_7  and  C_8 
REMARK       I    between atoms: C_8  and  N_9 
REMARK    3  A    between atoms: N_9  and  C_10 
REMARK    4  A    between atoms: C_10  and  C_11 
REMARK       I    between atoms: C_11  and  N_12 
REMARK    5  A    between atoms: N_12  and  N_13 
REMARK       I    between atoms: N_13  and  C_14 
REMARK       I    between atoms: C_14  and  N_15 
REMARK    6  A    between atoms: N_15  and  C_16 
ROOT
HETATM    1  C   UNL     1      41.159 -13.997   0.389  1.00  0.00     0.253 C 
HETATM    2  N   UNL     1      41.930 -15.110   0.113  1.00  0.00    -0.265 N 
HETATM    3  O   UNL     1      39.931 -14.040   0.468  1.00  0.00    -0.270 OA
HETATM    4  H   UNL     1      42.944 -15.049   0.226  1.00  0.00     0.190 HD
ENDROOT
BRANCH   2   5
HETATM    5  N   UNL     1      41.301 -16.372   0.168  1.00  0.00    -0.249 N 
HETATM    6  C   UNL     1      41.525 -17.218   1.242  1.00  0.00     0.339 C 
HETATM    7  N   UNL     1      42.802 -17.151   1.750  1.00  0.00    -0.307 N 
HETATM    8  O   UNL     1      40.618 -17.953   1.621  1.00  0.00    -0.245 OA
HETATM    9  H   UNL     1      43.472 -16.768   1.107  1.00  0.00     0.170 HD
HETATM   10  H   UNL     1      40.314 -16.347  -0.092  1.00  0.00     0.192 HD
BRANCH   7  11
HETATM   11  C   UNL     1      43.306 -17.807   2.905  1.00  0.00     0.047 A 
HETATM   12  C   UNL     1      43.701 -19.182   2.832  1.00  0.00     0.001 A 
HETATM   13  C   UNL     1      44.194 -19.807   4.009  1.00  0.00    -0.024 A 
HETATM   14  C   UNL     1      43.625 -19.989   1.666  1.00  0.00     0.014 A 
HETATM   15  C   UNL     1      44.571 -21.161   3.995  1.00  0.00     0.012 A 
HETATM   16  C   UNL     1      44.307 -19.080   5.200  1.00  0.00     0.012 A 
HETATM   17  C   UNL     1      44.473 -21.923   2.834  1.00  0.00     0.001 A 
HETATM   18  C   UNL     1      44.002 -21.335   1.669  1.00  0.00     0.001 A 
HETATM   19  C   UNL     1      43.941 -17.741   5.253  1.00  0.00     0.003 A 
HETATM   20  C   UNL     1      43.447 -17.111   4.114  1.00  0.00     0.030 A 
ENDBRANCH   7  11
ENDBRANCH   2   5
BRANCH   1  21
HETATM   21  C   UNL     1      41.962 -12.750   0.771  1.00  0.00     0.228 C 
BRANCH  21  22
HETATM   22  N   UNL     1      42.129 -12.495   2.192  1.00  0.00    -0.334 N 
HETATM   23  C   UNL     1      42.801 -13.323   3.032  1.00  0.00     0.321 C 
HETATM   24  N   UNL     1      42.698 -13.059   4.364  1.00  0.00    -0.309 N 
HETATM   25  O   UNL     1      43.540 -14.216   2.619  1.00  0.00    -0.247 OA
HETATM   26  H   UNL     1      43.426 -13.504   4.909  1.00  0.00     0.170 HD
HETATM   27  H   UNL     1      41.964 -11.556   2.532  1.00  0.00     0.164 HD
BRANCH  24  28
HETATM   28  C   UNL     1      41.626 -12.516   5.104  1.00  0.00     0.036 A 
HETATM   29  C   UNL     1      40.521 -13.257   5.531  1.00  0.00     0.032 A 
HETATM   30  C   UNL     1      39.547 -12.678   6.357  1.00  0.00     0.039 A 
HETATM   31  C   UNL     1      39.673 -11.356   6.773  1.00  0.00     0.068 A 
HETATM   32  C   UNL     1      40.760 -10.604   6.327  1.00  0.00     0.039 A 
HETATM   33  C   UNL     1      41.737 -11.183   5.511  1.00  0.00     0.032 A 
BRANCH  31  34
HETATM   34  O   UNL     1      38.809 -10.695   7.600  1.00  0.00    -0.356 OA
HETATM   35  C   UNL     1      39.208 -10.579   8.962  1.00  0.00     0.210 C 
ENDBRANCH  31  34
ENDBRANCH  24  28
ENDBRANCH  21  22
ENDBRANCH   1  21
TORSDOF 6
ENDMDL
MODEL 5
REMARK VINA RESULT:      -9.2      3.204      4.052
REMARK  6 active torsions:
REMARK  status: ('A' for Active; 'I' for Inactive)
REMARK    1  A    between atoms: O_2  and  C_3 
REMARK    2  A    between atoms: C_6  and  N_7 
REMARK       I    between atoms: N_7  and  C_8 
REMARK       I    between atoms: C_8  and  N_9 
REMARK    3  A    between atoms: N_9  and  C_10 
REMARK    4  A    between atoms: C_10  and  C_11 
REMARK       I    between atoms: C_11  and  N_12 
REMARK    5  A    between atoms: N_12  and  N_13 
REMARK       I    between atoms: N_13  and  C_14 
REMARK       I    between atoms: C_14  and  N_15 
REMARK    6  A    between atoms: N_15  and  C_16 
ROOT
HETATM    1  C   UNL     1      43.651 -14.409   6.122  1.00  0.00     0.253 C 
HETATM    2  N   UNL     1      43.868 -15.070   4.927  1.00  0.00    -0.265 N 
HETATM    3  O   UNL     1      42.527 -14.229   6.589  1.00  0.00    -0.270 OA
HETATM    4  H   UNL     1      44.822 -15.335   4.676  1.00  0.00     0.190 HD
ENDROOT
BRANCH   2   5
HETATM    5  N   UNL     1      42.781 -15.766   4.358  1.00  0.00    -0.249 N 
HETATM    6  C   UNL     1      42.643 -17.129   4.558  1.00  0.00     0.339 C 
HETATM    7  N   UNL     1      43.838 -17.810   4.620  1.00  0.00    -0.307 N 
HETATM    8  O   UNL     1      41.517 -17.612   4.631  1.00  0.00    -0.245 OA
HETATM    9  H   UNL     1      44.606 -17.315   4.201  1.00  0.00     0.170 HD
HETATM   10  H   UNL     1      41.889 -15.279   4.455  1.00  0.00     0.192 HD
BRANCH   7  11
HETATM   11  C   UNL     1      44.034 -19.185   4.920  1.00  0.00     0.047 A 
HETATM   12  C   UNL     1      44.193 -20.133   3.859  1.00  0.00     0.001 A 
HETATM   13  C   UNL     1      44.380 -21.501   4.198  1.00  0.00    -0.024 A 
HETATM   14  C   UNL     1      44.165 -19.818   2.475  1.00  0.00     0.014 A 
HETATM   15  C   UNL     1      44.516 -22.473   3.192  1.00  0.00     0.012 A 
HETATM   16  C   UNL     1      44.427 -21.896   5.540  1.00  0.00     0.012 A 
HETATM   17  C   UNL     1      44.474 -22.126   1.845  1.00  0.00     0.001 A 
HETATM   18  C   UNL     1      44.301 -20.797   1.486  1.00  0.00     0.001 A 
HETATM   19  C   UNL     1      44.292 -20.963   6.561  1.00  0.00     0.003 A 
HETATM   20  C   UNL     1      44.099 -19.619   6.251  1.00  0.00     0.030 A 
ENDBRANCH   7  11
ENDBRANCH   2   5
BRANCH   1  21
HETATM   21  C   UNL     1      44.926 -14.087   6.907  1.00  0.00     0.228 C 
BRANCH  21  22
HETATM   22  N   UNL     1      44.865 -12.946   7.805  1.00  0.00    -0.334 N 
HETATM   23  C   UNL     1      45.960 -12.279   8.252  1.00  0.00     0.321 C 
HETATM   24  N   UNL     1      45.759 -11.368   9.244  1.00  0.00    -0.309 N 
HETATM   25  O   UNL     1      47.067 -12.417   7.733  1.00  0.00    -0.247 OA
HETATM   26  H   UNL     1      46.524 -10.710   9.333  1.00  0.00     0.170 HD
HETATM   27  H   UNL     1      43.979 -12.466   7.910  1.00  0.00     0.164 HD
BRANCH  24  28
HETATM   28  C   UNL     1      44.825 -11.366  10.302  1.00  0.00     0.036 A 
HETATM   29  C   UNL     1      44.498 -12.498  11.053  1.00  0.00     0.032 A 
HETATM   30  C   UNL     1      43.644 -12.400  12.161  1.00  0.00     0.039 A 
HETATM   31  C   UNL     1      43.119 -11.166  12.537  1.00  0.00     0.068 A 
HETATM   32  C   UNL     1      43.421 -10.039  11.774  1.00  0.00     0.039 A 
HETATM   33  C   UNL     1      44.279 -10.133  10.674  1.00  0.00     0.032 A 
BRANCH  31  34
HETATM   34  O   UNL     1      42.305 -10.942  13.612  1.00  0.00    -0.356 OA
HETATM   35  C   UNL     1      41.001 -10.449  13.321  1.00  0.00     0.210 C 
ENDBRANCH  31  34
ENDBRANCH  24  28
ENDBRANCH  21  22
ENDBRANCH   1  21
TORSDOF 6
ENDMDL
MODEL 6
REMARK VINA RESULT:      -9.2      5.748      7.267
REMARK  6 active torsions:
REMARK  status: ('A' for Active; 'I' for Inactive)
REMARK    1  A    between atoms: O_2  and  C_3 
REMARK    2  A    between atoms: C_6  and  N_7 
REMARK       I    between atoms: N_7  and  C_8 
REMARK       I    between atoms: C_8  and  N_9 
REMARK    3  A    between atoms: N_9  and  C_10 
REMARK    4  A    between atoms: C_10  and  C_11 
REMARK       I    between atoms: C_11  and  N_12 
REMARK    5  A    between atoms: N_12  and  N_13 
REMARK       I    between atoms: N_13  and  C_14 
REMARK       I    between atoms: C_14  and  N_15 
REMARK    6  A    between atoms: N_15  and  C_16 
ROOT
HETATM    1  C   UNL     1      41.347 -14.922  -1.609  1.00  0.00     0.253 C 
HETATM    2  N   UNL     1      41.674 -15.547  -0.420  1.00  0.00    -0.265 N 
HETATM    3  O   UNL     1      40.705 -15.478  -2.499  1.00  0.00    -0.270 OA
HETATM    4  H   UNL     1      42.058 -14.986   0.343  1.00  0.00     0.190 HD
ENDROOT
BRANCH   2   5
HETATM    5  N   UNL     1      41.041 -16.773  -0.130  1.00  0.00    -0.249 N 
HETATM    6  C   UNL     1      41.318 -17.440   1.052  1.00  0.00     0.339 C 
HETATM    7  N   UNL     1      42.623 -17.313   1.473  1.00  0.00    -0.307 N 
HETATM    8  O   UNL     1      40.430 -18.092   1.594  1.00  0.00    -0.245 OA
HETATM    9  H   UNL     1      43.258 -17.048   0.741  1.00  0.00     0.170 HD
HETATM   10  H   UNL     1      40.040 -16.775  -0.336  1.00  0.00     0.192 HD
BRANCH   7  11
HETATM   11  C   UNL     1      43.187 -17.784   2.689  1.00  0.00     0.047 A 
HETATM   12  C   UNL     1      43.653 -19.134   2.786  1.00  0.00     0.001 A 
HETATM   13  C   UNL     1      44.205 -19.572   4.021  1.00  0.00    -0.024 A 
HETATM   14  C   UNL     1      43.596 -20.091   1.739  1.00  0.00     0.014 A 
HETATM   15  C   UNL     1      44.653 -20.895   4.173  1.00  0.00     0.012 A 
HETATM   16  C   UNL     1      44.305 -18.689   5.102  1.00  0.00     0.012 A 
HETATM   17  C   UNL     1      44.572 -21.808   3.125  1.00  0.00     0.001 A 
HETATM   18  C   UNL     1      44.045 -21.405   1.907  1.00  0.00     0.001 A 
HETATM   19  C   UNL     1      43.868 -17.375   4.989  1.00  0.00     0.003 A 
HETATM   20  C   UNL     1      43.316 -16.928   3.792  1.00  0.00     0.030 A 
ENDBRANCH   7  11
ENDBRANCH   2   5
BRANCH   1  21
HETATM   21  C   UNL     1      41.682 -13.428  -1.651  1.00  0.00     0.228 C 
BRANCH  21  22
HETATM   22  N   UNL     1      41.423 -12.669  -0.439  1.00  0.00    -0.334 N 
HETATM   23  C   UNL     1      42.281 -11.750   0.073  1.00  0.00     0.321 C 
HETATM   24  N   UNL     1      41.997 -11.272   1.316  1.00  0.00    -0.309 N 
HETATM   25  O   UNL     1      43.221 -11.297  -0.580  1.00  0.00    -0.247 OA
HETATM   26  H   UNL     1      42.479 -10.406   1.523  1.00  0.00     0.170 HD
HETATM   27  H   UNL     1      40.472 -12.629  -0.094  1.00  0.00     0.164 HD
BRANCH  24  28
HETATM   28  C   UNL     1      41.382 -11.907   2.416  1.00  0.00     0.036 A 
HETATM   29  C   UNL     1      40.065 -11.666   2.818  1.00  0.00     0.032 A 
HETATM   30  C   UNL     1      39.484 -12.414   3.852  1.00  0.00     0.039 A 
HETATM   31  C   UNL     1      40.210 -13.418   4.487  1.00  0.00     0.068 A 
HETATM   32  C   UNL     1      41.532 -13.643   4.108  1.00  0.00     0.039 A 
HETATM   33  C   UNL     1      42.111 -12.904   3.070  1.00  0.00     0.032 A 
BRANCH  31  34
HETATM   34  O   UNL     1      39.742 -14.231   5.481  1.00  0.00    -0.356 OA
HETATM   35  C   UNL     1      40.593 -15.306   5.866  1.00  0.00     0.210 C 
ENDBRANCH  31  34
ENDBRANCH  24  28
ENDBRANCH  21  22
ENDBRANCH   1  21
TORSDOF 6
ENDMDL
MODEL 7
REMARK VINA RESULT:      -9.2      5.817      9.385
REMARK  6 active torsions:
REMARK  status: ('A' for Active; 'I' for Inactive)
REMARK    1  A    between atoms: O_2  and  C_3 
REMARK    2  A    between atoms: C_6  and  N_7 
REMARK       I    between atoms: N_7  and  C_8 
REMARK       I    between atoms: C_8  and  N_9 
REMARK    3  A    between atoms: N_9  and  C_10 
REMARK    4  A    between atoms: C_10  and  C_11 
REMARK       I    between atoms: C_11  and  N_12 
REMARK    5  A    between atoms: N_12  and  N_13 
REMARK       I    between atoms: N_13  and  C_14 
REMARK       I    between atoms: C_14  and  N_15 
REMARK    6  A    between atoms: N_15  and  C_16 
ROOT
HETATM    1  C   UNL     1      39.418 -14.196   2.671  1.00  0.00     0.253 C 
HETATM    2  N   UNL     1      40.049 -15.111   3.493  1.00  0.00    -0.265 N 
HETATM    3  O   UNL     1      39.395 -12.989   2.912  1.00  0.00    -0.270 OA
HETATM    4  H   UNL     1      40.180 -16.067   3.159  1.00  0.00     0.190 HD
ENDROOT
BRANCH   2   5
HETATM    5  N   UNL     1      40.895 -14.608   4.503  1.00  0.00    -0.249 N 
HETATM    6  C   UNL     1      41.940 -15.378   4.987  1.00  0.00     0.339 C 
HETATM    7  N   UNL     1      41.665 -16.725   5.038  1.00  0.00    -0.307 N 
HETATM    8  O   UNL     1      42.974 -14.823   5.349  1.00  0.00    -0.245 OA
HETATM    9  H   UNL     1      40.683 -16.937   5.035  1.00  0.00     0.170 HD
HETATM   10  H   UNL     1      41.182 -13.639   4.351  1.00  0.00     0.192 HD
BRANCH   7  11
HETATM   11  C   UNL     1      42.558 -17.776   5.380  1.00  0.00     0.047 A 
HETATM   12  C   UNL     1      43.152 -18.574   4.350  1.00  0.00     0.001 A 
HETATM   13  C   UNL     1      44.035 -19.621   4.731  1.00  0.00    -0.024 A 
HETATM   14  C   UNL     1      42.918 -18.413   2.959  1.00  0.00     0.014 A 
HETATM   15  C   UNL     1      44.624 -20.448   3.759  1.00  0.00     0.012 A 
HETATM   16  C   UNL     1      44.325 -19.843   6.082  1.00  0.00     0.012 A 
HETATM   17  C   UNL     1      44.362 -20.264   2.404  1.00  0.00     0.001 A 
HETATM   18  C   UNL     1      43.510 -19.245   2.004  1.00  0.00     0.001 A 
HETATM   19  C   UNL     1      43.759 -19.049   7.071  1.00  0.00     0.003 A 
HETATM   20  C   UNL     1      42.884 -18.024   6.721  1.00  0.00     0.030 A 
ENDBRANCH   7  11
ENDBRANCH   2   5
BRANCH   1  21
HETATM   21  C   UNL     1      38.914 -14.777   1.348  1.00  0.00     0.228 C 
BRANCH  21  22
HETATM   22  N   UNL     1      39.781 -14.613   0.193  1.00  0.00    -0.334 N 
HETATM   23  C   UNL     1      40.965 -15.261   0.041  1.00  0.00     0.321 C 
HETATM   24  N   UNL     1      41.759 -14.853  -0.987  1.00  0.00    -0.309 N 
HETATM   25  O   UNL     1      41.275 -16.229   0.736  1.00  0.00    -0.247 OA
HETATM   26  H   UNL     1      42.466 -15.536  -1.231  1.00  0.00     0.170 HD
HETATM   27  H   UNL     1      39.390 -14.202  -0.646  1.00  0.00     0.164 HD
BRANCH  24  28
HETATM   28  C   UNL     1      41.924 -13.572  -1.556  1.00  0.00     0.036 A 
HETATM   29  C   UNL     1      42.358 -12.453  -0.840  1.00  0.00     0.032 A 
HETATM   30  C   UNL     1      42.606 -11.237  -1.493  1.00  0.00     0.039 A 
HETATM   31  C   UNL     1      42.433 -11.132  -2.871  1.00  0.00     0.068 A 
HETATM   32  C   UNL     1      41.974 -12.238  -3.585  1.00  0.00     0.039 A 
HETATM   33  C   UNL     1      41.735 -13.454  -2.936  1.00  0.00     0.032 A 
BRANCH  31  34
HETATM   34  O   UNL     1      42.673 -10.014  -3.620  1.00  0.00    -0.356 OA
HETATM   35  C   UNL     1      42.517 -10.156  -5.028  1.00  0.00     0.210 C 
ENDBRANCH  31  34
ENDBRANCH  24  28
ENDBRANCH  21  22
ENDBRANCH   1  21
TORSDOF 6
ENDMDL
MODEL 8
REMARK VINA RESULT:      -9.2      2.744      5.614
REMARK  6 active torsions:
REMARK  status: ('A' for Active; 'I' for Inactive)
REMARK    1  A    between atoms: O_2  and  C_3 
REMARK    2  A    between atoms: C_6  and  N_7 
REMARK       I    between atoms: N_7  and  C_8 
REMARK       I    between atoms: C_8  and  N_9 
REMARK    3  A    between atoms: N_9  and  C_10 
REMARK    4  A    between atoms: C_10  and  C_11 
REMARK       I    between atoms: C_11  and  N_12 
REMARK    5  A    between atoms: N_12  and  N_13 
REMARK       I    between atoms: N_13  and  C_14 
REMARK       I    between atoms: C_14  and  N_15 
REMARK    6  A    between atoms: N_15  and  C_16 
ROOT
HETATM    1  C   UNL     1      44.208 -11.539   9.629  1.00  0.00     0.253 C 
HETATM    2  N   UNL     1      44.261 -12.849   9.192  1.00  0.00    -0.265 N 
HETATM    3  O   UNL     1      45.035 -10.691   9.295  1.00  0.00    -0.270 OA
HETATM    4  H   UNL     1      43.460 -13.460   9.366  1.00  0.00     0.190 HD
ENDROOT
BRANCH   2   5
HETATM    5  N   UNL     1      45.149 -13.152   8.139  1.00  0.00    -0.249 N 
HETATM    6  C   UNL     1      44.707 -13.860   7.033  1.00  0.00     0.339 C 
HETATM    7  N   UNL     1      43.758 -14.814   7.323  1.00  0.00    -0.307 N 
HETATM    8  O   UNL     1      45.196 -13.618   5.934  1.00  0.00    -0.245 OA
HETATM    9  H   UNL     1      43.749 -15.093   8.289  1.00  0.00     0.170 HD
HETATM   10  H   UNL     1      45.745 -12.367   7.869  1.00  0.00     0.192 HD
BRANCH   7  11
HETATM   11  C   UNL     1      43.038 -15.621   6.403  1.00  0.00     0.047 A 
HETATM   12  C   UNL     1      43.573 -16.883   5.986  1.00  0.00     0.001 A 
HETATM   13  C   UNL     1      42.827 -17.661   5.059  1.00  0.00    -0.024 A 
HETATM   14  C   UNL     1      44.813 -17.423   6.419  1.00  0.00     0.014 A 
HETATM   15  C   UNL     1      43.322 -18.893   4.601  1.00  0.00     0.012 A 
HETATM   16  C   UNL     1      41.591 -17.204   4.588  1.00  0.00     0.012 A 
HETATM   17  C   UNL     1      44.548 -19.386   5.041  1.00  0.00     0.001 A 
HETATM   18  C   UNL     1      45.292 -18.651   5.952  1.00  0.00     0.001 A 
HETATM   19  C   UNL     1      41.072 -15.988   5.016  1.00  0.00     0.003 A 
HETATM   20  C   UNL     1      41.790 -15.206   5.917  1.00  0.00     0.030 A 
ENDBRANCH   7  11
ENDBRANCH   2   5
BRANCH   1  21
HETATM   21  C   UNL     1      42.940 -11.184  10.410  1.00  0.00     0.228 C 
BRANCH  21  22
HETATM   22  N   UNL     1      41.767 -10.841   9.623  1.00  0.00    -0.334 N 
HETATM   23  C   UNL     1      40.492 -10.983  10.069  1.00  0.00     0.321 C 
HETATM   24  N   UNL     1      39.500 -10.816   9.151  1.00  0.00    -0.309 N 
HETATM   25  O   UNL     1      40.231 -11.165  11.258  1.00  0.00    -0.247 OA
HETATM   26  H   UNL     1      38.597 -10.645   9.576  1.00  0.00     0.170 HD
HETATM   27  H   UNL     1      41.890 -10.243   8.815  1.00  0.00     0.164 HD
BRANCH  24  28
HETATM   28  C   UNL     1      39.480 -11.107   7.770  1.00  0.00     0.036 A 
HETATM   29  C   UNL     1      39.346 -12.397   7.249  1.00  0.00     0.032 A 
HETATM   30  C   UNL     1      39.222 -12.602   5.867  1.00  0.00     0.039 A 
HETATM   31  C   UNL     1      39.220 -11.518   4.993  1.00  0.00     0.068 A 
HETATM   32  C   UNL     1      39.381 -10.232   5.507  1.00  0.00     0.039 A 
HETATM   33  C   UNL     1      39.495 -10.025   6.885  1.00  0.00     0.032 A 
BRANCH  31  34
HETATM   34  O   UNL     1      39.075 -11.590   3.636  1.00  0.00    -0.356 OA
HETATM   35  C   UNL     1      39.413 -12.835   3.034  1.00  0.00     0.210 C 
ENDBRANCH  31  34
ENDBRANCH  24  28
ENDBRANCH  21  22
ENDBRANCH   1  21
TORSDOF 6
ENDMDL
MODEL 9
REMARK VINA RESULT:      -9.1      2.416      3.697
REMARK  6 active torsions:
REMARK  status: ('A' for Active; 'I' for Inactive)
REMARK    1  A    between atoms: O_2  and  C_3 
REMARK    2  A    between atoms: C_6  and  N_7 
REMARK       I    between atoms: N_7  and  C_8 
REMARK       I    between atoms: C_8  and  N_9 
REMARK    3  A    between atoms: N_9  and  C_10 
REMARK    4  A    between atoms: C_10  and  C_11 
REMARK       I    between atoms: C_11  and  N_12 
REMARK    5  A    between atoms: N_12  and  N_13 
REMARK       I    between atoms: N_13  and  C_14 
REMARK       I    between atoms: C_14  and  N_15 
REMARK    6  A    between atoms: N_15  and  C_16 
ROOT
HETATM    1  C   UNL     1      43.789 -14.276   6.570  1.00  0.00     0.253 C 
HETATM    2  N   UNL     1      43.265 -15.475   7.015  1.00  0.00    -0.265 N 
HETATM    3  O   UNL     1      44.988 -14.006   6.637  1.00  0.00    -0.270 OA
HETATM    4  H   UNL     1      42.298 -15.708   6.782  1.00  0.00     0.190 HD
ENDROOT
BRANCH   2   5
HETATM    5  N   UNL     1      44.172 -16.509   7.329  1.00  0.00    -0.249 N 
HETATM    6  C   UNL     1      44.605 -17.381   6.343  1.00  0.00     0.339 C 
HETATM    7  N   UNL     1      43.649 -17.675   5.397  1.00  0.00    -0.307 N 
HETATM    8  O   UNL     1      45.745 -17.831   6.402  1.00  0.00    -0.245 OA
HETATM    9  H   UNL     1      42.709 -17.497   5.705  1.00  0.00     0.170 HD
HETATM   10  H   UNL     1      44.942 -16.208   7.929  1.00  0.00     0.192 HD
BRANCH   7  11
HETATM   11  C   UNL     1      43.814 -18.443   4.214  1.00  0.00     0.047 A 
HETATM   12  C   UNL     1      44.105 -19.843   4.304  1.00  0.00     0.001 A 
HETATM   13  C   UNL     1      44.270 -20.578   3.099  1.00  0.00    -0.024 A 
HETATM   14  C   UNL     1      44.259 -20.564   5.517  1.00  0.00     0.014 A 
HETATM   15  C   UNL     1      44.581 -21.948   3.135  1.00  0.00     0.012 A 
HETATM   16  C   UNL     1      44.129 -19.943   1.860  1.00  0.00     0.012 A 
HETATM   17  C   UNL     1      44.733 -22.620   4.345  1.00  0.00     0.001 A 
HETATM   18  C   UNL     1      44.570 -21.928   5.536  1.00  0.00     0.001 A 
HETATM   19  C   UNL     1      43.825 -18.589   1.785  1.00  0.00     0.003 A 
HETATM   20  C   UNL     1      43.668 -17.848   2.953  1.00  0.00     0.030 A 
ENDBRANCH   7  11
ENDBRANCH   2   5
BRANCH   1  21
HETATM   21  C   UNL     1      42.790 -13.390   5.820  1.00  0.00     0.228 C 
BRANCH  21  22
HETATM   22  N   UNL     1      41.889 -12.593   6.634  1.00  0.00    -0.334 N 
HETATM   23  C   UNL     1      41.391 -11.389   6.250  1.00  0.00     0.321 C 
HETATM   24  N   UNL     1      40.727 -10.670   7.198  1.00  0.00    -0.309 N 
HETATM   25  O   UNL     1      41.452 -10.997   5.085  1.00  0.00    -0.247 OA
HETATM   26  H   UNL     1      40.142  -9.945   6.801  1.00  0.00     0.170 HD
HETATM   27  H   UNL     1      41.409 -13.047   7.402  1.00  0.00     0.164 HD
BRANCH  24  28
HETATM   28  C   UNL     1      40.932 -10.596   8.592  1.00  0.00     0.036 A 
HETATM   29  C   UNL     1      40.026 -11.083   9.538  1.00  0.00     0.032 A 
HETATM   30  C   UNL     1      40.343 -11.077  10.904  1.00  0.00     0.039 A 
HETATM   31  C   UNL     1      41.575 -10.593  11.337  1.00  0.00     0.068 A 
HETATM   32  C   UNL     1      42.471 -10.081  10.399  1.00  0.00     0.039 A 
HETATM   33  C   UNL     1      42.159 -10.095   9.035  1.00  0.00     0.032 A 
BRANCH  31  34
HETATM   34  O   UNL     1      42.008 -10.565  12.632  1.00  0.00    -0.356 OA
HETATM   35  C   UNL     1      43.343 -10.111  12.839  1.00  0.00     0.210 C 
ENDBRANCH  31  34
ENDBRANCH  24  28
ENDBRANCH  21  22
ENDBRANCH   1  21
TORSDOF 6
ENDMDL
MODEL 10
REMARK VINA RESULT:      -9.0      5.758      9.260
REMARK  6 active torsions:
REMARK  status: ('A' for Active; 'I' for Inactive)
REMARK    1  A    between atoms: O_2  and  C_3 
REMARK    2  A    between atoms: C_6  and  N_7 
REMARK       I    between atoms: N_7  and  C_8 
REMARK       I    between atoms: C_8  and  N_9 
REMARK    3  A    between atoms: N_9  and  C_10 
REMARK    4  A    between atoms: C_10  and  C_11 
REMARK       I    between atoms: C_11  and  N_12 
REMARK    5  A    between atoms: N_12  and  N_13 
REMARK       I    between atoms: N_13  and  C_14 
REMARK       I    between atoms: C_14  and  N_15 
REMARK    6  A    between atoms: N_15  and  C_16 
ROOT
HETATM    1  C   UNL     1      40.531 -11.998   3.629  1.00  0.00     0.253 C 
HETATM    2  N   UNL     1      41.044 -12.945   4.495  1.00  0.00    -0.265 N 
HETATM    3  O   UNL     1      41.210 -11.085   3.161  1.00  0.00    -0.270 OA
HETATM    4  H   UNL     1      40.482 -13.769   4.716  1.00  0.00     0.190 HD
ENDROOT
BRANCH   2   5
HETATM    5  N   UNL     1      42.446 -12.999   4.649  1.00  0.00    -0.249 N 
HETATM    6  C   UNL     1      43.186 -13.953   3.970  1.00  0.00     0.339 C 
HETATM    7  N   UNL     1      42.542 -15.161   3.822  1.00  0.00    -0.307 N 
HETATM    8  O   UNL     1      44.322 -13.674   3.597  1.00  0.00    -0.245 OA
HETATM    9  H   UNL     1      41.793 -15.301   4.479  1.00  0.00     0.170 HD
HETATM   10  H   UNL     1      42.895 -12.083   4.618  1.00  0.00     0.192 HD
BRANCH   7  11
HETATM   11  C   UNL     1      42.987 -16.292   3.088  1.00  0.00     0.047 A 
HETATM   12  C   UNL     1      43.484 -17.443   3.780  1.00  0.00     0.001 A 
HETATM   13  C   UNL     1      43.928 -18.555   3.012  1.00  0.00    -0.024 A 
HETATM   14  C   UNL     1      43.586 -17.564   5.191  1.00  0.00     0.014 A 
HETATM   15  C   UNL     1      44.447 -19.697   3.643  1.00  0.00     0.012 A 
HETATM   16  C   UNL     1      43.855 -18.520   1.614  1.00  0.00     0.012 A 
HETATM   17  C   UNL     1      44.539 -19.774   5.030  1.00  0.00     0.001 A 
HETATM   18  C   UNL     1      44.106 -18.708   5.804  1.00  0.00     0.001 A 
HETATM   19  C   UNL     1      43.351 -17.406   0.955  1.00  0.00     0.003 A 
HETATM   20  C   UNL     1      42.920 -16.303   1.688  1.00  0.00     0.030 A 
ENDBRANCH   7  11
ENDBRANCH   2   5
BRANCH   1  21
HETATM   21  C   UNL     1      39.104 -12.285   3.153  1.00  0.00     0.228 C 
BRANCH  21  22
HETATM   22  N   UNL     1      38.970 -13.049   1.924  1.00  0.00    -0.334 N 
HETATM   23  C   UNL     1      39.329 -14.354   1.805  1.00  0.00     0.321 C 
HETATM   24  N   UNL     1      39.337 -14.874   0.546  1.00  0.00    -0.309 N 
HETATM   25  O   UNL     1      39.551 -15.064   2.785  1.00  0.00    -0.247 OA
HETATM   26  H   UNL     1      39.323 -15.886   0.540  1.00  0.00     0.170 HD
HETATM   27  H   UNL     1      38.360 -12.689   1.200  1.00  0.00     0.164 HD
BRANCH  24  28
HETATM   28  C   UNL     1      39.629 -14.259  -0.690  1.00  0.00     0.036 A 
HETATM   29  C   UNL     1      38.655 -13.793  -1.577  1.00  0.00     0.032 A 
HETATM   30  C   UNL     1      39.018 -13.093  -2.737  1.00  0.00     0.039 A 
HETATM   31  C   UNL     1      40.360 -12.843  -3.016  1.00  0.00     0.068 A 
HETATM   32  C   UNL     1      41.336 -13.331  -2.148  1.00  0.00     0.039 A 
HETATM   33  C   UNL     1      40.975 -14.021  -0.986  1.00  0.00     0.032 A 
BRANCH  31  34
HETATM   34  O   UNL     1      40.832 -12.148  -4.093  1.00  0.00    -0.356 OA
HETATM   35  C   UNL     1      42.176 -11.686  -4.002  1.00  0.00     0.210 C 
ENDBRANCH  31  34
ENDBRANCH  24  28
ENDBRANCH  21  22
ENDBRANCH   1  21
TORSDOF 6
ENDMDL
