MODEL 1
REMARK VINA RESULT:     -10.3      0.000      0.000
REMARK  7 active torsions:
REMARK  status: ('A' for Active; 'I' for Inactive)
REMARK       I    between atoms: C_2  and  N_3 
REMARK       I    between atoms: C_2  and  N_12 
REMARK    1  A    between atoms: N_3  and  C_4 
REMARK    2  A    between atoms: C_16  and  C_17 
REMARK    3  A    between atoms: C_21  and  C_23 
REMARK       I    between atoms: C_23  and  N_25 
REMARK    4  A    between atoms: N_25  and  C_26 
REMARK    5  A    between atoms: C_29  and  C_30 
REMARK    6  A    between atoms: C_30  and  C_31 
REMARK    7  A    between atoms: C_31  and  N_32 
ROOT
HETATM    1  C   UNL     1      41.222 -10.878   7.361  1.00  0.00     0.037 A 
HETATM    2  C   UNL     1      41.489  -9.721   6.625  1.00  0.00     0.029 A 
HETATM    3  C   UNL     1      41.306  -9.703   5.238  1.00  0.00     0.004 A 
HETATM    4  C   UNL     1      40.858 -10.843   4.575  1.00  0.00     0.023 A 
HETATM    5  C   UNL     1      40.590 -12.006   5.299  1.00  0.00     0.046 A 
HETATM    6  C   UNL     1      40.773 -12.022   6.687  1.00  0.00     0.052 A 
HETATM    7  C   UNL     1      40.144 -13.188   4.620  1.00  0.00     0.099 C 
HETATM    8  N   UNL     1      39.796 -14.150   4.071  1.00  0.00    -0.191 NA
ENDROOT
BRANCH   1   9
HETATM    9  N   UNL     1      41.433 -10.991   8.748  1.00  0.00    -0.309 N 
HETATM   10  C   UNL     1      41.171 -10.060   9.727  1.00  0.00     0.323 C 
HETATM   11  O   UNL     1      40.482  -9.054   9.570  1.00  0.00    -0.247 OA
HETATM   12  N   UNL     1      41.783 -10.317  10.941  1.00  0.00    -0.325 N 
HETATM   13  C   UNL     1      41.559  -9.431  12.071  1.00  0.00     0.128 C 
HETATM   14  C   UNL     1      42.645 -11.443  11.315  1.00  0.00     0.122 C 
HETATM   15  C   UNL     1      42.656  -9.779  13.064  1.00  0.00     0.022 C 
HETATM   16  C   UNL     1      42.886 -11.266  12.820  1.00  0.00     0.032 C 
HETATM   17  H   UNL     1      41.800 -11.871   9.065  1.00  0.00     0.170 HD
BRANCH  14  18
HETATM   18  C   UNL     1      43.925 -11.502  10.501  1.00  0.00    -0.034 A 
HETATM   19  C   UNL     1      44.995 -10.620  10.721  1.00  0.00     0.009 A 
HETATM   20  C   UNL     1      46.135 -10.658   9.915  1.00  0.00     0.002 A 
HETATM   21  C   UNL     1      46.219 -11.567   8.861  1.00  0.00     0.017 A 
HETATM   22  C   UNL     1      45.158 -12.447   8.621  1.00  0.00     0.033 A 
HETATM   23  C   UNL     1      44.032 -12.433   9.455  1.00  0.00     0.026 A 
BRANCH  22  24
HETATM   24  C   UNL     1      45.188 -13.416   7.491  1.00  0.00     0.256 C 
HETATM   25  O   UNL     1      46.102 -13.325   6.680  1.00  0.00    -0.267 OA
HETATM   26  N   UNL     1      44.189 -14.369   7.522  1.00  0.00    -0.323 N 
HETATM   27  H   UNL     1      43.605 -14.401   8.349  1.00  0.00     0.169 HD
BRANCH  26  28
HETATM   28  C   UNL     1      43.922 -15.359   6.553  1.00  0.00     0.035 A 
HETATM   29  C   UNL     1      44.264 -16.702   6.701  1.00  0.00     0.030 A 
HETATM   30  C   UNL     1      44.014 -17.616   5.671  1.00  0.00     0.009 A 
HETATM   31  C   UNL     1      43.408 -17.205   4.478  1.00  0.00    -0.056 A 
HETATM   32  C   UNL     1      43.051 -15.861   4.336  1.00  0.00     0.009 A 
HETATM   33  C   UNL     1      43.307 -14.946   5.364  1.00  0.00     0.030 A 
BRANCH  31  34
HETATM   34  C   UNL     1      43.195 -18.181   3.342  1.00  0.00     0.068 C 
BRANCH  34  35
HETATM   35  C   UNL     1      43.371 -19.652   3.763  1.00  0.00     0.277 C 
BRANCH  35  36
HETATM   36  N   UNL     1      44.754 -20.133   3.580  1.00  0.00     0.092 N 
HETATM   37  C   UNL     1      45.164 -21.144   4.582  1.00  0.00     0.298 C 
HETATM   38  C   UNL     1      44.522 -22.528   4.383  1.00  0.00     0.198 C 
HETATM   39  O   UNL     1      44.774 -23.035   3.067  1.00  0.00    -0.388 OA
HETATM   40  C   UNL     1      44.302 -22.119   2.071  1.00  0.00     0.198 C 
HETATM   41  C   UNL     1      44.942 -20.730   2.236  1.00  0.00     0.298 C 
ENDBRANCH  35  36
ENDBRANCH  34  35
ENDBRANCH  31  34
ENDBRANCH  26  28
ENDBRANCH  22  24
ENDBRANCH  14  18
ENDBRANCH   1   9
TORSDOF 7
ENDMDL
MODEL 2
REMARK VINA RESULT:      -9.6      2.321      3.031
REMARK  7 active torsions:
REMARK  status: ('A' for Active; 'I' for Inactive)
REMARK       I    between atoms: C_2  and  N_3 
REMARK       I    between atoms: C_2  and  N_12 
REMARK    1  A    between atoms: N_3  and  C_4 
REMARK    2  A    between atoms: C_16  and  C_17 
REMARK    3  A    between atoms: C_21  and  C_23 
REMARK       I    between atoms: C_23  and  N_25 
REMARK    4  A    between atoms: N_25  and  C_26 
REMARK    5  A    between atoms: C_29  and  C_30 
REMARK    6  A    between atoms: C_30  and  C_31 
REMARK    7  A    between atoms: C_31  and  N_32 
ROOT
HETATM    1  C   UNL     1      41.367 -10.102   7.558  1.00  0.00     0.037 A 
HETATM    2  C   UNL     1      41.594  -8.817   7.060  1.00  0.00     0.029 A 
HETATM    3  C   UNL     1      41.457  -8.549   5.694  1.00  0.00     0.004 A 
HETATM    4  C   UNL     1      41.093  -9.565   4.813  1.00  0.00     0.023 A 
HETATM    5  C   UNL     1      40.864 -10.855   5.298  1.00  0.00     0.046 A 
HETATM    6  C   UNL     1      41.002 -11.120   6.666  1.00  0.00     0.052 A 
HETATM    7  C   UNL     1      40.506 -11.908   4.394  1.00  0.00     0.099 C 
HETATM    8  N   UNL     1      40.228 -12.766   3.663  1.00  0.00    -0.191 NA
ENDROOT
BRANCH   1   9
HETATM    9  N   UNL     1      41.537 -10.462   8.908  1.00  0.00    -0.309 N 
HETATM   10  C   UNL     1      41.367  -9.678  10.026  1.00  0.00     0.323 C 
HETATM   11  O   UNL     1      40.802  -8.587  10.035  1.00  0.00    -0.247 OA
HETATM   12  N   UNL     1      41.922 -10.199  11.181  1.00  0.00    -0.325 N 
HETATM   13  C   UNL     1      41.782  -9.487  12.440  1.00  0.00     0.128 C 
HETATM   14  C   UNL     1      42.641 -11.463  11.366  1.00  0.00     0.122 C 
HETATM   15  C   UNL     1      42.812 -10.117  13.363  1.00  0.00     0.022 C 
HETATM   16  C   UNL     1      42.873 -11.562  12.880  1.00  0.00     0.032 C 
HETATM   17  H   UNL     1      41.794 -11.419   9.077  1.00  0.00     0.170 HD
BRANCH  14  18
HETATM   18  C   UNL     1      43.920 -11.540  10.553  1.00  0.00    -0.034 A 
HETATM   19  C   UNL     1      45.022 -10.707  10.807  1.00  0.00     0.009 A 
HETATM   20  C   UNL     1      46.162 -10.757  10.002  1.00  0.00     0.002 A 
HETATM   21  C   UNL     1      46.215 -11.629   8.915  1.00  0.00     0.017 A 
HETATM   22  C   UNL     1      45.123 -12.459   8.640  1.00  0.00     0.033 A 
HETATM   23  C   UNL     1      43.996 -12.434   9.472  1.00  0.00     0.026 A 
BRANCH  22  24
HETATM   24  C   UNL     1      45.120 -13.385   7.475  1.00  0.00     0.256 C 
HETATM   25  O   UNL     1      46.067 -13.335   6.698  1.00  0.00    -0.267 OA
HETATM   26  N   UNL     1      44.051 -14.260   7.436  1.00  0.00    -0.323 N 
HETATM   27  H   UNL     1      43.438 -14.277   8.241  1.00  0.00     0.169 HD
BRANCH  26  28
HETATM   28  C   UNL     1      43.745 -15.190   6.421  1.00  0.00     0.035 A 
HETATM   29  C   UNL     1      44.093 -16.539   6.473  1.00  0.00     0.030 A 
HETATM   30  C   UNL     1      43.802 -17.390   5.401  1.00  0.00     0.009 A 
HETATM   31  C   UNL     1      43.147 -16.910   4.261  1.00  0.00    -0.056 A 
HETATM   32  C   UNL     1      42.785 -15.560   4.215  1.00  0.00     0.009 A 
HETATM   33  C   UNL     1      43.083 -14.708   5.285  1.00  0.00     0.030 A 
BRANCH  31  34
HETATM   34  C   UNL     1      42.889 -17.816   3.078  1.00  0.00     0.068 C 
BRANCH  34  35
HETATM   35  C   UNL     1      42.891 -17.071   1.730  1.00  0.00     0.277 C 
BRANCH  35  36
HETATM   36  N   UNL     1      41.679 -17.340   0.931  1.00  0.00     0.092 N 
HETATM   37  C   UNL     1      40.429 -17.301   1.726  1.00  0.00     0.298 C 
HETATM   38  C   UNL     1      39.991 -15.888   2.146  1.00  0.00     0.198 C 
HETATM   39  O   UNL     1      39.858 -15.024   1.012  1.00  0.00    -0.388 OA
HETATM   40  C   UNL     1      41.084 -14.965   0.272  1.00  0.00     0.198 C 
HETATM   41  C   UNL     1      41.538 -16.365  -0.177  1.00  0.00     0.298 C 
ENDBRANCH  35  36
ENDBRANCH  34  35
ENDBRANCH  31  34
ENDBRANCH  26  28
ENDBRANCH  22  24
ENDBRANCH  14  18
ENDBRANCH   1   9
TORSDOF 7
ENDMDL
MODEL 3
REMARK VINA RESULT:      -9.3      1.712      2.411
REMARK  7 active torsions:
REMARK  status: ('A' for Active; 'I' for Inactive)
REMARK       I    between atoms: C_2  and  N_3 
REMARK       I    between atoms: C_2  and  N_12 
REMARK    1  A    between atoms: N_3  and  C_4 
REMARK    2  A    between atoms: C_16  and  C_17 
REMARK    3  A    between atoms: C_21  and  C_23 
REMARK       I    between atoms: C_23  and  N_25 
REMARK    4  A    between atoms: N_25  and  C_26 
REMARK    5  A    between atoms: C_29  and  C_30 
REMARK    6  A    between atoms: C_30  and  C_31 
REMARK    7  A    between atoms: C_31  and  N_32 
ROOT
HETATM    1  C   UNL     1      40.790 -10.744   7.907  1.00  0.00     0.037 A 
HETATM    2  C   UNL     1      39.837 -11.611   7.368  1.00  0.00     0.029 A 
HETATM    3  C   UNL     1      39.481 -11.526   6.018  1.00  0.00     0.004 A 
HETATM    4  C   UNL     1      40.074 -10.571   5.195  1.00  0.00     0.023 A 
HETATM    5  C   UNL     1      41.027  -9.696   5.722  1.00  0.00     0.046 A 
HETATM    6  C   UNL     1      41.382  -9.784   7.074  1.00  0.00     0.052 A 
HETATM    7  C   UNL     1      41.628  -8.700   4.885  1.00  0.00     0.099 C 
HETATM    8  N   UNL     1      42.107  -7.884   4.212  1.00  0.00    -0.191 NA
ENDROOT
BRANCH   1   9
HETATM    9  N   UNL     1      41.160 -10.731   9.266  1.00  0.00    -0.309 N 
HETATM   10  C   UNL     1      41.105  -9.680  10.152  1.00  0.00     0.323 C 
HETATM   11  O   UNL     1      40.494  -8.631   9.958  1.00  0.00    -0.247 OA
HETATM   12  N   UNL     1      41.837  -9.869  11.311  1.00  0.00    -0.325 N 
HETATM   13  C   UNL     1      41.834  -8.851  12.347  1.00  0.00     0.128 C 
HETATM   14  C   UNL     1      42.634 -11.031  11.714  1.00  0.00     0.122 C 
HETATM   15  C   UNL     1      43.010  -9.201  13.244  1.00  0.00     0.022 C 
HETATM   16  C   UNL     1      43.075 -10.722  13.151  1.00  0.00     0.032 C 
HETATM   17  H   UNL     1      41.484 -11.605   9.639  1.00  0.00     0.170 HD
BRANCH  14  18
HETATM   18  C   UNL     1      43.794 -11.306  10.773  1.00  0.00    -0.034 A 
HETATM   19  C   UNL     1      45.031 -10.653  10.896  1.00  0.00     0.009 A 
HETATM   20  C   UNL     1      46.058 -10.880   9.978  1.00  0.00     0.002 A 
HETATM   21  C   UNL     1      45.862 -11.753   8.908  1.00  0.00     0.017 A 
HETATM   22  C   UNL     1      44.633 -12.405   8.763  1.00  0.00     0.033 A 
HETATM   23  C   UNL     1      43.617 -12.204   9.708  1.00  0.00     0.026 A 
BRANCH  22  24
HETATM   24  C   UNL     1      44.365 -13.322   7.622  1.00  0.00     0.256 C 
HETATM   25  O   UNL     1      45.174 -14.215   7.400  1.00  0.00    -0.267 OA
HETATM   26  N   UNL     1      43.171 -13.092   6.966  1.00  0.00    -0.323 N 
HETATM   27  H   UNL     1      42.541 -12.414   7.375  1.00  0.00     0.169 HD
BRANCH  26  28
HETATM   28  C   UNL     1      42.691 -13.745   5.812  1.00  0.00     0.035 A 
HETATM   29  C   UNL     1      41.637 -14.658   5.817  1.00  0.00     0.030 A 
HETATM   30  C   UNL     1      41.253 -15.308   4.639  1.00  0.00     0.009 A 
HETATM   31  C   UNL     1      41.909 -15.048   3.430  1.00  0.00    -0.056 A 
HETATM   32  C   UNL     1      42.956 -14.122   3.421  1.00  0.00     0.009 A 
HETATM   33  C   UNL     1      43.344 -13.478   4.602  1.00  0.00     0.030 A 
BRANCH  31  34
HETATM   34  C   UNL     1      41.534 -15.796   2.170  1.00  0.00     0.068 C 
BRANCH  34  35
HETATM   35  C   UNL     1      41.943 -17.281   2.200  1.00  0.00     0.277 C 
BRANCH  35  36
HETATM   36  N   UNL     1      43.404 -17.465   2.306  1.00  0.00     0.092 N 
HETATM   37  C   UNL     1      43.864 -17.737   3.688  1.00  0.00     0.298 C 
HETATM   38  C   UNL     1      43.522 -19.145   4.202  1.00  0.00     0.198 C 
HETATM   39  O   UNL     1      44.030 -20.158   3.326  1.00  0.00    -0.388 OA
HETATM   40  C   UNL     1      43.525 -19.978   1.996  1.00  0.00     0.198 C 
HETATM   41  C   UNL     1      43.868 -18.581   1.450  1.00  0.00     0.298 C 
ENDBRANCH  35  36
ENDBRANCH  34  35
ENDBRANCH  31  34
ENDBRANCH  26  28
ENDBRANCH  22  24
ENDBRANCH  14  18
ENDBRANCH   1   9
TORSDOF 7
ENDMDL
MODEL 4
REMARK VINA RESULT:      -9.1      3.969      6.936
REMARK  7 active torsions:
REMARK  status: ('A' for Active; 'I' for Inactive)
REMARK       I    between atoms: C_2  and  N_3 
REMARK       I    between atoms: C_2  and  N_12 
REMARK    1  A    between atoms: N_3  and  C_4 
REMARK    2  A    between atoms: C_16  and  C_17 
REMARK    3  A    between atoms: C_21  and  C_23 
REMARK       I    between atoms: C_23  and  N_25 
REMARK    4  A    between atoms: N_25  and  C_26 
REMARK    5  A    between atoms: C_29  and  C_30 
REMARK    6  A    between atoms: C_30  and  C_31 
REMARK    7  A    between atoms: C_31  and  N_32 
ROOT
HETATM    1  C   UNL     1      40.630 -12.982   4.839  1.00  0.00     0.037 A 
HETATM    2  C   UNL     1      39.896 -14.164   4.962  1.00  0.00     0.029 A 
HETATM    3  C   UNL     1      40.481 -15.311   5.506  1.00  0.00     0.004 A 
HETATM    4  C   UNL     1      41.808 -15.287   5.931  1.00  0.00     0.023 A 
HETATM    5  C   UNL     1      42.553 -14.113   5.812  1.00  0.00     0.046 A 
HETATM    6  C   UNL     1      41.965 -12.965   5.267  1.00  0.00     0.052 A 
HETATM    7  C   UNL     1      43.924 -14.086   6.231  1.00  0.00     0.099 C 
HETATM    8  N   UNL     1      45.037 -14.066   6.558  1.00  0.00    -0.191 NA
ENDROOT
BRANCH   1   9
HETATM    9  N   UNL     1      40.128 -11.804   4.252  1.00  0.00    -0.309 N 
HETATM   10  C   UNL     1      39.230 -10.906   4.781  1.00  0.00     0.323 C 
HETATM   11  O   UNL     1      38.896 -10.864   5.963  1.00  0.00    -0.247 OA
HETATM   12  N   UNL     1      38.677 -10.037   3.857  1.00  0.00    -0.325 N 
HETATM   13  C   UNL     1      37.741  -9.014   4.291  1.00  0.00     0.128 C 
HETATM   14  C   UNL     1      38.934  -9.943   2.417  1.00  0.00     0.122 C 
HETATM   15  C   UNL     1      37.065  -8.537   3.016  1.00  0.00     0.022 C 
HETATM   16  C   UNL     1      38.154  -8.701   1.963  1.00  0.00     0.032 C 
HETATM   17  H   UNL     1      40.489 -11.581   3.342  1.00  0.00     0.170 HD
BRANCH  14  18
HETATM   18  C   UNL     1      38.550 -11.204   1.665  1.00  0.00    -0.034 A 
HETATM   19  C   UNL     1      37.236 -11.452   1.236  1.00  0.00     0.009 A 
HETATM   20  C   UNL     1      36.901 -12.650   0.602  1.00  0.00     0.002 A 
HETATM   21  C   UNL     1      37.870 -13.632   0.400  1.00  0.00     0.017 A 
HETATM   22  C   UNL     1      39.182 -13.407   0.830  1.00  0.00     0.033 A 
HETATM   23  C   UNL     1      39.524 -12.189   1.432  1.00  0.00     0.026 A 
BRANCH  22  24
HETATM   24  C   UNL     1      40.245 -14.436   0.664  1.00  0.00     0.256 C 
HETATM   25  O   UNL     1      40.663 -14.653  -0.467  1.00  0.00    -0.267 OA
HETATM   26  N   UNL     1      40.692 -14.999   1.844  1.00  0.00    -0.323 N 
HETATM   27  H   UNL     1      40.352 -14.594   2.708  1.00  0.00     0.169 HD
BRANCH  26  28
HETATM   28  C   UNL     1      41.627 -16.044   1.992  1.00  0.00     0.035 A 
HETATM   29  C   UNL     1      42.952 -15.852   2.383  1.00  0.00     0.030 A 
HETATM   30  C   UNL     1      43.836 -16.934   2.454  1.00  0.00     0.009 A 
HETATM   31  C   UNL     1      43.409 -18.231   2.146  1.00  0.00    -0.056 A 
HETATM   32  C   UNL     1      42.077 -18.426   1.768  1.00  0.00     0.009 A 
HETATM   33  C   UNL     1      41.196 -17.342   1.690  1.00  0.00     0.030 A 
BRANCH  31  34
HETATM   34  C   UNL     1      44.381 -19.390   2.163  1.00  0.00     0.068 C 
BRANCH  34  35
HETATM   35  C   UNL     1      44.105 -20.398   3.295  1.00  0.00     0.277 C 
BRANCH  35  36
HETATM   36  N   UNL     1      45.103 -20.320   4.380  1.00  0.00     0.092 N 
HETATM   37  C   UNL     1      44.930 -19.137   5.255  1.00  0.00     0.298 C 
HETATM   38  C   UNL     1      43.721 -19.222   6.202  1.00  0.00     0.198 C 
HETATM   39  O   UNL     1      43.773 -20.404   7.008  1.00  0.00    -0.388 OA
HETATM   40  C   UNL     1      43.845 -21.577   6.187  1.00  0.00     0.198 C 
HETATM   41  C   UNL     1      45.056 -21.526   5.240  1.00  0.00     0.298 C 
ENDBRANCH  35  36
ENDBRANCH  34  35
ENDBRANCH  31  34
ENDBRANCH  26  28
ENDBRANCH  22  24
ENDBRANCH  14  18
ENDBRANCH   1   9
TORSDOF 7
ENDMDL
MODEL 5
REMARK VINA RESULT:      -9.0      2.110      4.523
REMARK  7 active torsions:
REMARK  status: ('A' for Active; 'I' for Inactive)
REMARK       I    between atoms: C_2  and  N_3 
REMARK       I    between atoms: C_2  and  N_12 
REMARK    1  A    between atoms: N_3  and  C_4 
REMARK    2  A    between atoms: C_16  and  C_17 
REMARK    3  A    between atoms: C_21  and  C_23 
REMARK       I    between atoms: C_23  and  N_25 
REMARK    4  A    between atoms: N_25  and  C_26 
REMARK    5  A    between atoms: C_29  and  C_30 
REMARK    6  A    between atoms: C_30  and  C_31 
REMARK    7  A    between atoms: C_31  and  N_32 
ROOT
HETATM    1  C   UNL     1      43.625 -10.664  10.242  1.00  0.00     0.037 A 
HETATM    2  C   UNL     1      44.776 -10.619  11.031  1.00  0.00     0.029 A 
HETATM    3  C   UNL     1      45.875 -11.431  10.732  1.00  0.00     0.004 A 
HETATM    4  C   UNL     1      45.832 -12.296   9.641  1.00  0.00     0.023 A 
HETATM    5  C   UNL     1      44.686 -12.352   8.845  1.00  0.00     0.046 A 
HETATM    6  C   UNL     1      43.587 -11.538   9.147  1.00  0.00     0.052 A 
HETATM    7  C   UNL     1      44.628 -13.253   7.732  1.00  0.00     0.099 C 
HETATM    8  N   UNL     1      44.574 -13.991   6.837  1.00  0.00    -0.191 NA
ENDROOT
BRANCH   1   9
HETATM    9  N   UNL     1      42.460  -9.920  10.511  1.00  0.00    -0.309 N 
HETATM   10  C   UNL     1      41.301 -10.345  11.119  1.00  0.00     0.323 C 
HETATM   11  O   UNL     1      41.184 -11.395  11.746  1.00  0.00    -0.247 OA
HETATM   12  N   UNL     1      40.220  -9.498  10.947  1.00  0.00    -0.325 N 
HETATM   13  C   UNL     1      38.945  -9.811  11.569  1.00  0.00     0.128 C 
HETATM   14  C   UNL     1      40.159  -8.223  10.228  1.00  0.00     0.122 C 
HETATM   15  C   UNL     1      37.936  -8.920  10.864  1.00  0.00     0.022 C 
HETATM   16  C   UNL     1      38.752  -7.680  10.516  1.00  0.00     0.032 C 
HETATM   17  H   UNL     1      42.488  -8.952  10.244  1.00  0.00     0.170 HD
BRANCH  14  18
HETATM   18  C   UNL     1      40.458  -8.365   8.746  1.00  0.00    -0.034 A 
HETATM   19  C   UNL     1      40.853  -7.276   7.952  1.00  0.00     0.009 A 
HETATM   20  C   UNL     1      41.060  -7.425   6.579  1.00  0.00     0.002 A 
HETATM   21  C   UNL     1      40.857  -8.662   5.970  1.00  0.00     0.017 A 
HETATM   22  C   UNL     1      40.453  -9.756   6.742  1.00  0.00     0.033 A 
HETATM   23  C   UNL     1      40.283  -9.613   8.126  1.00  0.00     0.026 A 
BRANCH  22  24
HETATM   24  C   UNL     1      40.196 -11.090   6.133  1.00  0.00     0.256 C 
HETATM   25  O   UNL     1      39.044 -11.367   5.823  1.00  0.00    -0.267 OA
HETATM   26  N   UNL     1      41.326 -11.857   5.927  1.00  0.00    -0.323 N 
HETATM   27  H   UNL     1      42.222 -11.416   6.094  1.00  0.00     0.169 HD
BRANCH  26  28
HETATM   28  C   UNL     1      41.384 -13.180   5.442  1.00  0.00     0.035 A 
HETATM   29  C   UNL     1      41.934 -13.533   4.210  1.00  0.00     0.030 A 
HETATM   30  C   UNL     1      41.905 -14.863   3.774  1.00  0.00     0.009 A 
HETATM   31  C   UNL     1      41.334 -15.866   4.567  1.00  0.00    -0.056 A 
HETATM   32  C   UNL     1      40.796 -15.514   5.808  1.00  0.00     0.009 A 
HETATM   33  C   UNL     1      40.819 -14.183   6.240  1.00  0.00     0.030 A 
BRANCH  31  34
HETATM   34  C   UNL     1      41.248 -17.291   4.067  1.00  0.00     0.068 C 
BRANCH  34  35
HETATM   35  C   UNL     1      42.221 -18.246   4.784  1.00  0.00     0.277 C 
BRANCH  35  36
HETATM   36  N   UNL     1      43.630 -17.994   4.427  1.00  0.00     0.092 N 
HETATM   37  C   UNL     1      44.593 -18.768   5.244  1.00  0.00     0.298 C 
HETATM   38  C   UNL     1      44.644 -20.268   4.909  1.00  0.00     0.198 C 
HETATM   39  O   UNL     1      44.922 -20.483   3.520  1.00  0.00    -0.388 OA
HETATM   40  C   UNL     1      43.950 -19.823   2.700  1.00  0.00     0.198 C 
HETATM   41  C   UNL     1      43.889 -18.316   3.003  1.00  0.00     0.298 C 
ENDBRANCH  35  36
ENDBRANCH  34  35
ENDBRANCH  31  34
ENDBRANCH  26  28
ENDBRANCH  22  24
ENDBRANCH  14  18
ENDBRANCH   1   9
TORSDOF 7
ENDMDL
MODEL 6
REMARK VINA RESULT:      -8.9      3.365      4.476
REMARK  7 active torsions:
REMARK  status: ('A' for Active; 'I' for Inactive)
REMARK       I    between atoms: C_2  and  N_3 
REMARK       I    between atoms: C_2  and  N_12 
REMARK    1  A    between atoms: N_3  and  C_4 
REMARK    2  A    between atoms: C_16  and  C_17 
REMARK    3  A    between atoms: C_21  and  C_23 
REMARK       I    between atoms: C_23  and  N_25 
REMARK    4  A    between atoms: N_25  and  C_26 
REMARK    5  A    between atoms: C_29  and  C_30 
REMARK    6  A    between atoms: C_30  and  C_31 
REMARK    7  A    between atoms: C_31  and  N_32 
ROOT
HETATM    1  C   UNL     1      41.232  -9.745   7.666  1.00  0.00     0.037 A 
HETATM    2  C   UNL     1      41.629  -8.572   7.020  1.00  0.00     0.029 A 
HETATM    3  C   UNL     1      41.385  -8.395   5.655  1.00  0.00     0.004 A 
HETATM    4  C   UNL     1      40.741  -9.390   4.922  1.00  0.00     0.023 A 
HETATM    5  C   UNL     1      40.341 -10.568   5.556  1.00  0.00     0.046 A 
HETATM    6  C   UNL     1      40.587 -10.743   6.923  1.00  0.00     0.052 A 
HETATM    7  C   UNL     1      39.694 -11.604   4.804  1.00  0.00     0.099 C 
HETATM    8  N   UNL     1      39.182 -12.449   4.195  1.00  0.00    -0.191 NA
ENDROOT
BRANCH   1   9
HETATM    9  N   UNL     1      41.491 -10.020   9.022  1.00  0.00    -0.309 N 
HETATM   10  C   UNL     1      41.570  -9.132  10.071  1.00  0.00     0.323 C 
HETATM   11  O   UNL     1      41.189  -7.965  10.029  1.00  0.00    -0.247 OA
HETATM   12  N   UNL     1      42.160  -9.644  11.212  1.00  0.00    -0.325 N 
HETATM   13  C   UNL     1      42.273  -8.822  12.405  1.00  0.00     0.128 C 
HETATM   14  C   UNL     1      42.687 -10.992  11.448  1.00  0.00     0.122 C 
HETATM   15  C   UNL     1      43.286  -9.539  13.281  1.00  0.00     0.022 C 
HETATM   16  C   UNL     1      43.066 -11.007  12.936  1.00  0.00     0.032 C 
HETATM   17  H   UNL     1      41.611 -10.989   9.257  1.00  0.00     0.170 HD
BRANCH  14  18
HETATM   18  C   UNL     1      43.841 -11.345  10.528  1.00  0.00    -0.034 A 
HETATM   19  C   UNL     1      45.115 -10.771  10.668  1.00  0.00     0.009 A 
HETATM   20  C   UNL     1      46.140 -11.068   9.768  1.00  0.00     0.002 A 
HETATM   21  C   UNL     1      45.905 -11.931   8.698  1.00  0.00     0.017 A 
HETATM   22  C   UNL     1      44.640 -12.504   8.536  1.00  0.00     0.033 A 
HETATM   23  C   UNL     1      43.624 -12.234   9.463  1.00  0.00     0.026 A 
BRANCH  22  24
HETATM   24  C   UNL     1      44.332 -13.408   7.393  1.00  0.00     0.256 C 
HETATM   25  O   UNL     1      45.108 -14.326   7.162  1.00  0.00    -0.267 OA
HETATM   26  N   UNL     1      43.142 -13.134   6.746  1.00  0.00    -0.323 N 
HETATM   27  H   UNL     1      42.539 -12.436   7.163  1.00  0.00     0.169 HD
BRANCH  26  28
HETATM   28  C   UNL     1      42.632 -13.766   5.594  1.00  0.00     0.035 A 
HETATM   29  C   UNL     1      41.912 -14.960   5.617  1.00  0.00     0.030 A 
HETATM   30  C   UNL     1      41.484 -15.555   4.425  1.00  0.00     0.009 A 
HETATM   31  C   UNL     1      41.759 -14.962   3.188  1.00  0.00    -0.056 A 
HETATM   32  C   UNL     1      42.468 -13.758   3.165  1.00  0.00     0.009 A 
HETATM   33  C   UNL     1      42.902 -13.166   4.358  1.00  0.00     0.030 A 
BRANCH  31  34
HETATM   34  C   UNL     1      41.351 -15.638   1.898  1.00  0.00     0.068 C 
BRANCH  34  35
HETATM   35  C   UNL     1      40.184 -14.930   1.183  1.00  0.00     0.277 C 
BRANCH  35  36
HETATM   36  N   UNL     1      40.417 -14.774  -0.266  1.00  0.00     0.092 N 
HETATM   37  C   UNL     1      39.350 -14.013  -0.955  1.00  0.00     0.298 C 
HETATM   38  C   UNL     1      39.361 -12.503  -0.663  1.00  0.00     0.198 C 
HETATM   39  O   UNL     1      40.633 -11.921  -0.972  1.00  0.00    -0.388 OA
HETATM   40  C   UNL     1      41.681 -12.576  -0.245  1.00  0.00     0.198 C 
HETATM   41  C   UNL     1      41.703 -14.087  -0.532  1.00  0.00     0.298 C 
ENDBRANCH  35  36
ENDBRANCH  34  35
ENDBRANCH  31  34
ENDBRANCH  26  28
ENDBRANCH  22  24
ENDBRANCH  14  18
ENDBRANCH   1   9
TORSDOF 7
ENDMDL
MODEL 7
REMARK VINA RESULT:      -8.8      6.056      8.772
REMARK  7 active torsions:
REMARK  status: ('A' for Active; 'I' for Inactive)
REMARK       I    between atoms: C_2  and  N_3 
REMARK       I    between atoms: C_2  and  N_12 
REMARK    1  A    between atoms: N_3  and  C_4 
REMARK    2  A    between atoms: C_16  and  C_17 
REMARK    3  A    between atoms: C_21  and  C_23 
REMARK       I    between atoms: C_23  and  N_25 
REMARK    4  A    between atoms: N_25  and  C_26 
REMARK    5  A    between atoms: C_29  and  C_30 
REMARK    6  A    between atoms: C_30  and  C_31 
REMARK    7  A    between atoms: C_31  and  N_32 
ROOT
HETATM    1  C   UNL     1      40.241 -13.318  -2.858  1.00  0.00     0.037 A 
HETATM    2  C   UNL     1      40.973 -14.502  -2.750  1.00  0.00     0.029 A 
HETATM    3  C   UNL     1      40.414 -15.723  -3.140  1.00  0.00     0.004 A 
HETATM    4  C   UNL     1      39.115 -15.770  -3.641  1.00  0.00     0.023 A 
HETATM    5  C   UNL     1      38.371 -14.594  -3.753  1.00  0.00     0.046 A 
HETATM    6  C   UNL     1      38.934 -13.373  -3.362  1.00  0.00     0.052 A 
HETATM    7  C   UNL     1      37.028 -14.637  -4.252  1.00  0.00     0.099 C 
HETATM    8  N   UNL     1      35.936 -14.673  -4.643  1.00  0.00    -0.191 NA
ENDROOT
BRANCH   1   9
HETATM    9  N   UNL     1      40.714 -12.061  -2.436  1.00  0.00    -0.309 N 
HETATM   10  C   UNL     1      41.990 -11.554  -2.538  1.00  0.00     0.323 C 
HETATM   11  O   UNL     1      42.879 -12.033  -3.237  1.00  0.00    -0.247 OA
HETATM   12  N   UNL     1      42.230 -10.444  -1.747  1.00  0.00    -0.325 N 
HETATM   13  C   UNL     1      43.526  -9.789  -1.788  1.00  0.00     0.128 C 
HETATM   14  C   UNL     1      41.312  -9.744  -0.844  1.00  0.00     0.122 C 
HETATM   15  C   UNL     1      43.557  -8.904  -0.553  1.00  0.00     0.022 C 
HETATM   16  C   UNL     1      42.095  -8.511  -0.371  1.00  0.00     0.032 C 
HETATM   17  H   UNL     1      40.029 -11.449  -2.029  1.00  0.00     0.170 HD
BRANCH  14  18
HETATM   18  C   UNL     1      40.820 -10.619   0.295  1.00  0.00    -0.034 A 
HETATM   19  C   UNL     1      39.665 -10.313   1.032  1.00  0.00     0.009 A 
HETATM   20  C   UNL     1      39.272 -11.103   2.115  1.00  0.00     0.002 A 
HETATM   21  C   UNL     1      40.038 -12.205   2.492  1.00  0.00     0.017 A 
HETATM   22  C   UNL     1      41.198 -12.520   1.777  1.00  0.00     0.033 A 
HETATM   23  C   UNL     1      41.569 -11.748   0.667  1.00  0.00     0.026 A 
BRANCH  22  24
HETATM   24  C   UNL     1      42.064 -13.668   2.159  1.00  0.00     0.256 C 
HETATM   25  O   UNL     1      43.108 -13.428   2.753  1.00  0.00    -0.267 OA
HETATM   26  N   UNL     1      41.546 -14.910   1.845  1.00  0.00    -0.323 N 
HETATM   27  H   UNL     1      40.596 -14.941   1.497  1.00  0.00     0.169 HD
BRANCH  26  28
HETATM   28  C   UNL     1      42.170 -16.164   2.016  1.00  0.00     0.035 A 
HETATM   29  C   UNL     1      41.935 -17.008   3.101  1.00  0.00     0.030 A 
HETATM   30  C   UNL     1      42.634 -18.213   3.228  1.00  0.00     0.009 A 
HETATM   31  C   UNL     1      43.574 -18.603   2.266  1.00  0.00    -0.056 A 
HETATM   32  C   UNL     1      43.799 -17.763   1.171  1.00  0.00     0.009 A 
HETATM   33  C   UNL     1      43.105 -16.554   1.048  1.00  0.00     0.030 A 
BRANCH  31  34
HETATM   34  C   UNL     1      44.374 -19.875   2.437  1.00  0.00     0.068 C 
BRANCH  34  35
HETATM   35  C   UNL     1      43.969 -20.684   3.684  1.00  0.00     0.277 C 
BRANCH  35  36
HETATM   36  N   UNL     1      45.013 -20.676   4.728  1.00  0.00     0.092 N 
HETATM   37  C   UNL     1      45.122 -19.383   5.442  1.00  0.00     0.298 C 
HETATM   38  C   UNL     1      43.967 -19.099   6.416  1.00  0.00     0.198 C 
HETATM   39  O   UNL     1      43.819 -20.156   7.372  1.00  0.00    -0.388 OA
HETATM   40  C   UNL     1      43.616 -21.412   6.711  1.00  0.00     0.198 C 
HETATM   41  C   UNL     1      44.767 -21.729   5.741  1.00  0.00     0.298 C 
ENDBRANCH  35  36
ENDBRANCH  34  35
ENDBRANCH  31  34
ENDBRANCH  26  28
ENDBRANCH  22  24
ENDBRANCH  14  18
ENDBRANCH   1   9
TORSDOF 7
ENDMDL
MODEL 8
REMARK VINA RESULT:      -8.7      4.601      8.518
REMARK  7 active torsions:
REMARK  status: ('A' for Active; 'I' for Inactive)
REMARK       I    between atoms: C_2  and  N_3 
REMARK       I    between atoms: C_2  and  N_12 
REMARK    1  A    between atoms: N_3  and  C_4 
REMARK    2  A    between atoms: C_16  and  C_17 
REMARK    3  A    between atoms: C_21  and  C_23 
REMARK       I    between atoms: C_23  and  N_25 
REMARK    4  A    between atoms: N_25  and  C_26 
REMARK    5  A    between atoms: C_29  and  C_30 
REMARK    6  A    between atoms: C_30  and  C_31 
REMARK    7  A    between atoms: C_31  and  N_32 
ROOT
HETATM    1  C   UNL     1      41.262 -12.385   2.348  1.00  0.00     0.037 A 
HETATM    2  C   UNL     1      40.088 -13.142   2.336  1.00  0.00     0.029 A 
HETATM    3  C   UNL     1      39.765 -13.970   3.415  1.00  0.00     0.004 A 
HETATM    4  C   UNL     1      40.616 -14.052   4.516  1.00  0.00     0.023 A 
HETATM    5  C   UNL     1      41.794 -13.302   4.539  1.00  0.00     0.046 A 
HETATM    6  C   UNL     1      42.114 -12.473   3.457  1.00  0.00     0.052 A 
HETATM    7  C   UNL     1      42.682 -13.394   5.661  1.00  0.00     0.099 C 
HETATM    8  N   UNL     1      43.408 -13.477   6.562  1.00  0.00    -0.191 NA
ENDROOT
BRANCH   1   9
HETATM    9  N   UNL     1      41.682 -11.572   1.278  1.00  0.00    -0.309 N 
HETATM   10  C   UNL     1      41.335 -10.267   1.014  1.00  0.00     0.323 C 
HETATM   11  O   UNL     1      40.778  -9.516   1.812  1.00  0.00    -0.247 OA
HETATM   12  N   UNL     1      41.632  -9.843  -0.269  1.00  0.00    -0.325 N 
HETATM   13  C   UNL     1      41.350  -8.474  -0.666  1.00  0.00     0.128 C 
HETATM   14  C   UNL     1      42.274 -10.587  -1.357  1.00  0.00     0.122 C 
HETATM   15  C   UNL     1      41.427  -8.483  -2.184  1.00  0.00     0.022 C 
HETATM   16  C   UNL     1      42.475  -9.552  -2.472  1.00  0.00     0.032 C 
HETATM   17  H   UNL     1      42.335 -11.991   0.639  1.00  0.00     0.170 HD
BRANCH  14  18
HETATM   18  C   UNL     1      41.472 -11.799  -1.796  1.00  0.00    -0.034 A 
HETATM   19  C   UNL     1      40.379 -11.698  -2.673  1.00  0.00     0.009 A 
HETATM   20  C   UNL     1      39.622 -12.822  -3.009  1.00  0.00     0.002 A 
HETATM   21  C   UNL     1      39.932 -14.066  -2.461  1.00  0.00     0.017 A 
HETATM   22  C   UNL     1      41.011 -14.185  -1.579  1.00  0.00     0.033 A 
HETATM   23  C   UNL     1      41.792 -13.063  -1.272  1.00  0.00     0.026 A 
BRANCH  22  24
HETATM   24  C   UNL     1      41.363 -15.485  -0.946  1.00  0.00     0.256 C 
HETATM   25  O   UNL     1      41.115 -16.512  -1.566  1.00  0.00    -0.267 OA
HETATM   26  N   UNL     1      42.001 -15.377   0.275  1.00  0.00    -0.323 N 
HETATM   27  H   UNL     1      42.274 -14.450   0.575  1.00  0.00     0.169 HD
BRANCH  26  28
HETATM   28  C   UNL     1      42.382 -16.428   1.135  1.00  0.00     0.035 A 
HETATM   29  C   UNL     1      41.648 -16.820   2.254  1.00  0.00     0.030 A 
HETATM   30  C   UNL     1      42.119 -17.837   3.092  1.00  0.00     0.009 A 
HETATM   31  C   UNL     1      43.328 -18.489   2.820  1.00  0.00    -0.056 A 
HETATM   32  C   UNL     1      44.056 -18.106   1.690  1.00  0.00     0.009 A 
HETATM   33  C   UNL     1      43.587 -17.084   0.856  1.00  0.00     0.030 A 
BRANCH  31  34
HETATM   34  C   UNL     1      43.866 -19.545   3.760  1.00  0.00     0.068 C 
BRANCH  34  35
HETATM   35  C   UNL     1      43.570 -19.247   5.242  1.00  0.00     0.277 C 
BRANCH  35  36
HETATM   36  N   UNL     1      44.338 -18.095   5.753  1.00  0.00     0.092 N 
HETATM   37  C   UNL     1      43.499 -16.906   6.033  1.00  0.00     0.298 C 
HETATM   38  C   UNL     1      42.617 -17.036   7.286  1.00  0.00     0.198 C 
HETATM   39  O   UNL     1      43.400 -17.347   8.445  1.00  0.00    -0.388 OA
HETATM   40  C   UNL     1      44.154 -18.549   8.240  1.00  0.00     0.198 C 
HETATM   41  C   UNL     1      45.058 -18.441   7.001  1.00  0.00     0.298 C 
ENDBRANCH  35  36
ENDBRANCH  34  35
ENDBRANCH  31  34
ENDBRANCH  26  28
ENDBRANCH  22  24
ENDBRANCH  14  18
ENDBRANCH   1   9
TORSDOF 7
ENDMDL
MODEL 9
REMARK VINA RESULT:      -8.7      5.124      7.592
REMARK  7 active torsions:
REMARK  status: ('A' for Active; 'I' for Inactive)
REMARK       I    between atoms: C_2  and  N_3 
REMARK       I    between atoms: C_2  and  N_12 
REMARK    1  A    between atoms: N_3  and  C_4 
REMARK    2  A    between atoms: C_16  and  C_17 
REMARK    3  A    between atoms: C_21  and  C_23 
REMARK       I    between atoms: C_23  and  N_25 
REMARK    4  A    between atoms: N_25  and  C_26 
REMARK    5  A    between atoms: C_29  and  C_30 
REMARK    6  A    between atoms: C_30  and  C_31 
REMARK    7  A    between atoms: C_31  and  N_32 
ROOT
HETATM    1  C   UNL     1      40.872 -10.681  -1.615  1.00  0.00     0.037 A 
HETATM    2  C   UNL     1      41.653  -9.820  -2.389  1.00  0.00     0.029 A 
HETATM    3  C   UNL     1      42.384 -10.309  -3.477  1.00  0.00     0.004 A 
HETATM    4  C   UNL     1      42.342 -11.664  -3.799  1.00  0.00     0.023 A 
HETATM    5  C   UNL     1      41.566 -12.535  -3.031  1.00  0.00     0.046 A 
HETATM    6  C   UNL     1      40.835 -12.043  -1.943  1.00  0.00     0.052 A 
HETATM    7  C   UNL     1      41.532 -13.933  -3.346  1.00  0.00     0.099 C 
HETATM    8  N   UNL     1      41.513 -15.067  -3.591  1.00  0.00    -0.191 NA
ENDROOT
BRANCH   1   9
HETATM    9  N   UNL     1      40.153 -10.275  -0.474  1.00  0.00    -0.309 N 
HETATM   10  C   UNL     1      40.634  -9.665   0.662  1.00  0.00     0.323 C 
HETATM   11  O   UNL     1      41.748  -9.156   0.765  1.00  0.00    -0.247 OA
HETATM   12  N   UNL     1      39.763  -9.689   1.737  1.00  0.00    -0.325 N 
HETATM   13  C   UNL     1      40.133  -9.047   2.987  1.00  0.00     0.128 C 
HETATM   14  C   UNL     1      38.414 -10.255   1.814  1.00  0.00     0.122 C 
HETATM   15  C   UNL     1      39.159  -9.598   4.014  1.00  0.00     0.022 C 
HETATM   16  C   UNL     1      37.894  -9.841   3.197  1.00  0.00     0.032 C 
HETATM   17  H   UNL     1      39.161 -10.431  -0.503  1.00  0.00     0.170 HD
BRANCH  14  18
HETATM   18  C   UNL     1      38.389 -11.756   1.585  1.00  0.00    -0.034 A 
HETATM   19  C   UNL     1      37.309 -12.403   0.962  1.00  0.00     0.009 A 
HETATM   20  C   UNL     1      37.287 -13.792   0.822  1.00  0.00     0.002 A 
HETATM   21  C   UNL     1      38.336 -14.563   1.319  1.00  0.00     0.017 A 
HETATM   22  C   UNL     1      39.416 -13.938   1.952  1.00  0.00     0.033 A 
HETATM   23  C   UNL     1      39.453 -12.541   2.057  1.00  0.00     0.026 A 
BRANCH  22  24
HETATM   24  C   UNL     1      40.545 -14.721   2.525  1.00  0.00     0.256 C 
HETATM   25  O   UNL     1      41.626 -14.675   1.951  1.00  0.00    -0.267 OA
HETATM   26  N   UNL     1      40.251 -15.378   3.705  1.00  0.00    -0.323 N 
HETATM   27  H   UNL     1      39.353 -15.184   4.131  1.00  0.00     0.169 HD
BRANCH  26  28
HETATM   28  C   UNL     1      41.090 -16.249   4.429  1.00  0.00     0.035 A 
HETATM   29  C   UNL     1      41.627 -15.949   5.681  1.00  0.00     0.030 A 
HETATM   30  C   UNL     1      42.497 -16.843   6.314  1.00  0.00     0.009 A 
HETATM   31  C   UNL     1      42.838 -18.060   5.712  1.00  0.00    -0.056 A 
HETATM   32  C   UNL     1      42.288 -18.368   4.464  1.00  0.00     0.009 A 
HETATM   33  C   UNL     1      41.424 -17.469   3.828  1.00  0.00     0.030 A 
BRANCH  31  34
HETATM   34  C   UNL     1      43.827 -18.998   6.369  1.00  0.00     0.068 C 
BRANCH  34  35
HETATM   35  C   UNL     1      43.807 -20.417   5.771  1.00  0.00     0.277 C 
BRANCH  35  36
HETATM   36  N   UNL     1      45.084 -20.778   5.123  1.00  0.00     0.092 N 
HETATM   37  C   UNL     1      45.364 -22.232   5.143  1.00  0.00     0.298 C 
HETATM   38  C   UNL     1      44.496 -23.056   4.177  1.00  0.00     0.198 C 
HETATM   39  O   UNL     1      44.605 -22.570   2.834  1.00  0.00    -0.388 OA
HETATM   40  C   UNL     1      44.247 -21.184   2.765  1.00  0.00     0.198 C 
HETATM   41  C   UNL     1      45.113 -20.333   3.710  1.00  0.00     0.298 C 
ENDBRANCH  35  36
ENDBRANCH  34  35
ENDBRANCH  31  34
ENDBRANCH  26  28
ENDBRANCH  22  24
ENDBRANCH  14  18
ENDBRANCH   1   9
TORSDOF 7
ENDMDL
MODEL 10
REMARK VINA RESULT:      -8.7      4.992      9.842
REMARK  7 active torsions:
REMARK  status: ('A' for Active; 'I' for Inactive)
REMARK       I    between atoms: C_2  and  N_3 
REMARK       I    between atoms: C_2  and  N_12 
REMARK    1  A    between atoms: N_3  and  C_4 
REMARK    2  A    between atoms: C_16  and  C_17 
REMARK    3  A    between atoms: C_21  and  C_23 
REMARK       I    between atoms: C_23  and  N_25 
REMARK    4  A    between atoms: N_25  and  C_26 
REMARK    5  A    between atoms: C_29  and  C_30 
REMARK    6  A    between atoms: C_30  and  C_31 
REMARK    7  A    between atoms: C_31  and  N_32 
ROOT
HETATM    1  C   UNL     1      41.759 -13.881   4.067  1.00  0.00     0.037 A 
HETATM    2  C   UNL     1      42.471 -13.376   2.977  1.00  0.00     0.029 A 
HETATM    3  C   UNL     1      42.065 -12.195   2.347  1.00  0.00     0.004 A 
HETATM    4  C   UNL     1      40.941 -11.509   2.801  1.00  0.00     0.023 A 
HETATM    5  C   UNL     1      40.218 -12.005   3.889  1.00  0.00     0.046 A 
HETATM    6  C   UNL     1      40.627 -13.187   4.518  1.00  0.00     0.052 A 
HETATM    7  C   UNL     1      39.050 -11.313   4.350  1.00  0.00     0.099 C 
HETATM    8  N   UNL     1      38.097 -10.762   4.717  1.00  0.00    -0.191 NA
ENDROOT
BRANCH   1   9
HETATM    9  N   UNL     1      42.072 -15.090   4.717  1.00  0.00    -0.309 N 
HETATM   10  C   UNL     1      43.064 -15.326   5.642  1.00  0.00     0.323 C 
HETATM   11  O   UNL     1      43.693 -14.451   6.232  1.00  0.00    -0.247 OA
HETATM   12  N   UNL     1      43.344 -16.665   5.852  1.00  0.00    -0.325 N 
HETATM   13  C   UNL     1      44.345 -17.053   6.831  1.00  0.00     0.128 C 
HETATM   14  C   UNL     1      42.720 -17.841   5.239  1.00  0.00     0.122 C 
HETATM   15  C   UNL     1      44.659 -18.506   6.514  1.00  0.00     0.022 C 
HETATM   16  C   UNL     1      43.335 -19.038   5.977  1.00  0.00     0.032 C 
HETATM   17  H   UNL     1      41.483 -15.872   4.494  1.00  0.00     0.170 HD
BRANCH  14  18
HETATM   18  C   UNL     1      42.913 -17.895   3.734  1.00  0.00    -0.034 A 
HETATM   19  C   UNL     1      43.978 -18.590   3.139  1.00  0.00     0.009 A 
HETATM   20  C   UNL     1      44.166 -18.570   1.756  1.00  0.00     0.002 A 
HETATM   21  C   UNL     1      43.302 -17.839   0.941  1.00  0.00     0.017 A 
HETATM   22  C   UNL     1      42.241 -17.132   1.517  1.00  0.00     0.033 A 
HETATM   23  C   UNL     1      42.033 -17.185   2.901  1.00  0.00     0.026 A 
BRANCH  22  24
HETATM   24  C   UNL     1      41.310 -16.314   0.693  1.00  0.00     0.256 C 
HETATM   25  O   UNL     1      41.347 -16.451  -0.524  1.00  0.00    -0.267 OA
HETATM   26  N   UNL     1      40.447 -15.516   1.419  1.00  0.00    -0.323 N 
HETATM   27  H   UNL     1      40.439 -15.638   2.424  1.00  0.00     0.169 HD
BRANCH  26  28
HETATM   28  C   UNL     1      39.515 -14.586   0.915  1.00  0.00     0.035 A 
HETATM   29  C   UNL     1      38.177 -14.536   1.305  1.00  0.00     0.030 A 
HETATM   30  C   UNL     1      37.300 -13.618   0.718  1.00  0.00     0.009 A 
HETATM   31  C   UNL     1      37.746 -12.723  -0.262  1.00  0.00    -0.056 A 
HETATM   32  C   UNL     1      39.091 -12.763  -0.642  1.00  0.00     0.009 A 
HETATM   33  C   UNL     1      39.967 -13.687  -0.060  1.00  0.00     0.030 A 
BRANCH  31  34
HETATM   34  C   UNL     1      36.784 -11.774  -0.940  1.00  0.00     0.068 C 
BRANCH  34  35
HETATM   35  C   UNL     1      35.742 -11.174   0.024  1.00  0.00     0.277 C 
BRANCH  35  36
HETATM   36  N   UNL     1      35.123  -9.943  -0.505  1.00  0.00     0.092 N 
HETATM   37  C   UNL     1      34.496 -10.124  -1.834  1.00  0.00     0.298 C 
HETATM   38  C   UNL     1      33.183 -10.925  -1.811  1.00  0.00     0.198 C 
HETATM   39  O   UNL     1      32.232 -10.341  -0.914  1.00  0.00    -0.388 OA
HETATM   40  C   UNL     1      32.776 -10.239   0.408  1.00  0.00     0.198 C 
HETATM   41  C   UNL     1      34.083  -9.427   0.416  1.00  0.00     0.298 C 
ENDBRANCH  35  36
ENDBRANCH  34  35
ENDBRANCH  31  34
ENDBRANCH  26  28
ENDBRANCH  22  24
ENDBRANCH  14  18
ENDBRANCH   1   9
TORSDOF 7
ENDMDL
