MODEL 1
REMARK VINA RESULT:      -9.1      0.000      0.000
REMARK  6 active torsions:
REMARK  status: ('A' for Active; 'I' for Inactive)
REMARK    1  A    between atoms: C_4  and  N_5 
REMARK       I    between atoms: N_5  and  C_6 
REMARK       I    between atoms: C_6  and  N_16 
REMARK    2  A    between atoms: N_16  and  CA_17 
REMARK    3  A    between atoms: CA_17  and  C_18 
REMARK    4  A    between atoms: CA_17  and  CB_20 
REMARK    5  A    between atoms: C_18  and  O_19 
REMARK    6  A    between atoms: CB_20  and  CG_21 
ROOT
HETATM    1  N   UNK A   0      40.230 -15.894   5.145  1.00  0.00    -0.307 N 
HETATM    2  C   UNK A   0      40.935 -16.652   6.019  1.00  0.00     0.321 C 
HETATM    3  O   UNK A   0      40.343 -17.253   6.916  1.00  0.00    -0.247 OA
HETATM    4  H   UNK A   0      39.225 -16.040   5.230  1.00  0.00     0.170 HD
ATOM      5  N   TRP A   1      42.280 -16.746   5.843  1.00  0.00    -0.336 N 
ATOM      6  H   TRP A   1      42.589 -16.693   4.882  1.00  0.00     0.164 HD
ENDROOT
BRANCH   5   7
ATOM      7  CA  TRP A   1      43.097 -17.628   6.688  1.00  0.00     0.114 C 
BRANCH   7   8
ATOM      8  C   TRP A   1      43.258 -16.982   8.074  1.00  0.00     0.189 C 
BRANCH   8   9
ATOM      9  O   TRP A   1      43.711 -17.942   9.033  1.00  0.00    -0.399 OA
ATOM     10  H   TRP A   1      44.381 -18.484   8.581  1.00  0.00     0.209 HD
ENDBRANCH   8   9
ENDBRANCH   7   8
BRANCH   7  11
ATOM     11  CB  TRP A   1      44.452 -17.922   6.011  1.00  0.00     0.068 C 
BRANCH  11  12
ATOM     12  CG  TRP A   1      44.322 -18.653   4.708  1.00  0.00    -0.028 A 
ATOM     13  CD2 TRP A   1      44.457 -20.061   4.481  1.00  0.00    -0.002 A 
ATOM     14  CE2 TRP A   1      44.274 -20.283   3.116  1.00  0.00     0.042 A 
ATOM     15  CE3 TRP A   1      44.722 -21.170   5.312  1.00  0.00     0.014 A 
ATOM     16  CZ2 TRP A   1      44.344 -21.557   2.538  1.00  0.00     0.030 A 
ATOM     17  NE1 TRP A   1      44.038 -19.060   2.534  1.00  0.00    -0.365 N 
ATOM     18  CH2 TRP A   1      44.608 -22.638   3.384  1.00  0.00     0.002 A 
ATOM     19  CZ3 TRP A   1      44.794 -22.450   4.751  1.00  0.00     0.001 A 
ATOM     20  HE1 TRP A   1      43.879 -18.915   1.547  1.00  0.00     0.165 HD
ATOM     21  CD1 TRP A   1      44.063 -18.074   3.481  1.00  0.00     0.096 A 
ENDBRANCH  11  12
ENDBRANCH   7  11
ENDBRANCH   5   7
BRANCH   1  22
HETATM   22  C   UNK A   0      40.563 -14.937   4.159  1.00  0.00     0.066 A 
HETATM   23  C   UNK A   0      40.574 -13.554   4.379  1.00  0.00     0.038 A 
HETATM   24  C   UNK A   0      40.926 -12.671   3.351  1.00  0.00    -0.059 A 
HETATM   25  C   UNK A   0      40.925 -11.188   3.580  1.00  0.00     0.048 C 
HETATM   26  C   UNK A   0      41.217 -13.185   2.085  1.00  0.00     0.020 A 
HETATM   27  C   UNK A   0      41.167 -14.566   1.843  1.00  0.00    -0.005 A 
HETATM   28  C   UNK A   0      40.836 -15.460   2.882  1.00  0.00     0.093 A 
HETATM   29  C   UNK A   0      41.436 -15.093   0.572  1.00  0.00     0.015 A 
HETATM   30  N   UNK A   0      40.776 -16.798   2.669  1.00  0.00    -0.258 NA
HETATM   31  C   UNK A   0      41.040 -17.267   1.431  1.00  0.00     0.117 A 
HETATM   32  C   UNK A   0      41.371 -16.464   0.360  1.00  0.00     0.020 A 
ENDBRANCH   1  22
TORSDOF 6
ENDMDL
MODEL 2
REMARK VINA RESULT:      -8.9      1.828      2.724
REMARK  6 active torsions:
REMARK  status: ('A' for Active; 'I' for Inactive)
REMARK    1  A    between atoms: C_4  and  N_5 
REMARK       I    between atoms: N_5  and  C_6 
REMARK       I    between atoms: C_6  and  N_16 
REMARK    2  A    between atoms: N_16  and  CA_17 
REMARK    3  A    between atoms: CA_17  and  C_18 
REMARK    4  A    between atoms: CA_17  and  CB_20 
REMARK    5  A    between atoms: C_18  and  O_19 
REMARK    6  A    between atoms: CB_20  and  CG_21 
ROOT
HETATM    1  N   UNK A   0      40.610 -16.514   4.648  1.00  0.00    -0.307 N 
HETATM    2  C   UNK A   0      41.367 -16.332   5.757  1.00  0.00     0.321 C 
HETATM    3  O   UNK A   0      40.956 -16.736   6.845  1.00  0.00    -0.247 OA
HETATM    4  H   UNK A   0      39.822 -17.138   4.816  1.00  0.00     0.170 HD
ATOM      5  N   TRP A   1      42.579 -15.734   5.612  1.00  0.00    -0.336 N 
ATOM      6  H   TRP A   1      43.040 -15.913   4.730  1.00  0.00     0.164 HD
ENDROOT
BRANCH   5   7
ATOM      7  CA  TRP A   1      43.498 -15.593   6.750  1.00  0.00     0.114 C 
BRANCH   7   8
ATOM      8  C   TRP A   1      43.936 -14.123   6.859  1.00  0.00     0.189 C 
BRANCH   8   9
ATOM      9  O   TRP A   1      44.465 -13.845   8.158  1.00  0.00    -0.399 OA
ATOM     10  H   TRP A   1      43.830 -14.214   8.796  1.00  0.00     0.209 HD
ENDBRANCH   8   9
ENDBRANCH   7   8
BRANCH   7  11
ATOM     11  CB  TRP A   1      44.693 -16.558   6.604  1.00  0.00     0.068 C 
BRANCH  11  12
ATOM     12  CG  TRP A   1      44.369 -17.972   6.984  1.00  0.00    -0.028 A 
ATOM     13  CD2 TRP A   1      44.538 -19.149   6.186  1.00  0.00    -0.002 A 
ATOM     14  CE2 TRP A   1      44.087 -20.232   6.941  1.00  0.00     0.042 A 
ATOM     15  CE3 TRP A   1      45.031 -19.394   4.888  1.00  0.00     0.014 A 
ATOM     16  CZ2 TRP A   1      44.100 -21.549   6.463  1.00  0.00     0.030 A 
ATOM     17  NE1 TRP A   1      43.659 -19.735   8.149  1.00  0.00    -0.365 N 
ATOM     18  CH2 TRP A   1      44.594 -21.764   5.173  1.00  0.00     0.002 A 
ATOM     19  CZ3 TRP A   1      45.054 -20.704   4.395  1.00  0.00     0.001 A 
ATOM     20  HE1 TRP A   1      43.269 -20.294   8.894  1.00  0.00     0.165 HD
ATOM     21  CD1 TRP A   1      43.825 -18.379   8.186  1.00  0.00     0.096 A 
ENDBRANCH  11  12
ENDBRANCH   7  11
ENDBRANCH   5   7
BRANCH   1  22
HETATM   22  C   UNK A   0      40.650 -16.027   3.321  1.00  0.00     0.066 A 
HETATM   23  C   UNK A   0      39.769 -15.065   2.812  1.00  0.00     0.038 A 
HETATM   24  C   UNK A   0      39.880 -14.627   1.486  1.00  0.00    -0.059 A 
HETATM   25  C   UNK A   0      38.929 -13.607   0.933  1.00  0.00     0.048 C 
HETATM   26  C   UNK A   0      40.852 -15.199   0.661  1.00  0.00     0.020 A 
HETATM   27  C   UNK A   0      41.712 -16.194   1.151  1.00  0.00    -0.005 A 
HETATM   28  C   UNK A   0      41.618 -16.621   2.491  1.00  0.00     0.093 A 
HETATM   29  C   UNK A   0      42.677 -16.792   0.328  1.00  0.00     0.015 A 
HETATM   30  N   UNK A   0      42.435 -17.586   2.984  1.00  0.00    -0.258 NA
HETATM   31  C   UNK A   0      43.350 -18.138   2.160  1.00  0.00     0.117 A 
HETATM   32  C   UNK A   0      43.510 -17.779   0.837  1.00  0.00     0.020 A 
ENDBRANCH   1  22
TORSDOF 6
ENDMDL
MODEL 3
REMARK VINA RESULT:      -8.8      1.659      6.201
REMARK  6 active torsions:
REMARK  status: ('A' for Active; 'I' for Inactive)
REMARK    1  A    between atoms: C_4  and  N_5 
REMARK       I    between atoms: N_5  and  C_6 
REMARK       I    between atoms: C_6  and  N_16 
REMARK    2  A    between atoms: N_16  and  CA_17 
REMARK    3  A    between atoms: CA_17  and  C_18 
REMARK    4  A    between atoms: CA_17  and  CB_20 
REMARK    5  A    between atoms: C_18  and  O_19 
REMARK    6  A    between atoms: CB_20  and  CG_21 
ROOT
HETATM    1  N   UNK A   0      44.387 -18.237   5.529  1.00  0.00    -0.307 N 
HETATM    2  C   UNK A   0      43.637 -17.432   6.320  1.00  0.00     0.321 C 
HETATM    3  O   UNK A   0      43.911 -17.331   7.515  1.00  0.00    -0.247 OA
HETATM    4  H   UNK A   0      45.233 -18.559   5.997  1.00  0.00     0.170 HD
ATOM      5  N   TRP A   1      42.623 -16.734   5.742  1.00  0.00    -0.336 N 
ATOM      6  H   TRP A   1      42.784 -16.463   4.782  1.00  0.00     0.164 HD
ENDROOT
BRANCH   5   7
ATOM      7  CA  TRP A   1      41.831 -15.767   6.514  1.00  0.00     0.114 C 
BRANCH   7   8
ATOM      8  C   TRP A   1      40.376 -16.257   6.588  1.00  0.00     0.189 C 
BRANCH   8   9
ATOM      9  O   TRP A   1      40.158 -17.343   5.684  1.00  0.00    -0.399 OA
ATOM     10  H   TRP A   1      39.694 -16.968   4.915  1.00  0.00     0.209 HD
ENDBRANCH   8   9
ENDBRANCH   7   8
BRANCH   7  11
ATOM     11  CB  TRP A   1      41.950 -14.357   5.898  1.00  0.00     0.068 C 
BRANCH  11  12
ATOM     12  CG  TRP A   1      42.227 -14.371   4.424  1.00  0.00    -0.028 A 
ATOM     13  CD2 TRP A   1      41.282 -14.545   3.361  1.00  0.00    -0.002 A 
ATOM     14  CE2 TRP A   1      41.993 -14.507   2.161  1.00  0.00     0.042 A 
ATOM     15  CE3 TRP A   1      39.886 -14.735   3.308  1.00  0.00     0.014 A 
ATOM     16  CZ2 TRP A   1      41.379 -14.651   0.911  1.00  0.00     0.030 A 
ATOM     17  NE1 TRP A   1      43.317 -14.319   2.480  1.00  0.00    -0.365 N 
ATOM     18  CH2 TRP A   1      39.995 -14.839   0.887  1.00  0.00     0.002 A 
ATOM     19  CZ3 TRP A   1      39.256 -14.880   2.067  1.00  0.00     0.001 A 
ATOM     20  HE1 TRP A   1      44.067 -14.261   1.805  1.00  0.00     0.165 HD
ATOM     21  CD1 TRP A   1      43.469 -14.234   3.836  1.00  0.00     0.096 A 
ENDBRANCH  11  12
ENDBRANCH   7  11
ENDBRANCH   5   7
BRANCH   1  22
HETATM   22  C   UNK A   0      44.259 -18.747   4.216  1.00  0.00     0.066 A 
HETATM   23  C   UNK A   0      43.939 -17.966   3.098  1.00  0.00     0.038 A 
HETATM   24  C   UNK A   0      43.841 -18.545   1.828  1.00  0.00    -0.059 A 
HETATM   25  C   UNK A   0      43.484 -17.713   0.631  1.00  0.00     0.048 C 
HETATM   26  C   UNK A   0      44.017 -19.925   1.695  1.00  0.00     0.020 A 
HETATM   27  C   UNK A   0      44.297 -20.722   2.815  1.00  0.00    -0.005 A 
HETATM   28  C   UNK A   0      44.419 -20.139   4.093  1.00  0.00     0.093 A 
HETATM   29  C   UNK A   0      44.455 -22.111   2.700  1.00  0.00     0.015 A 
HETATM   30  N   UNK A   0      44.683 -20.891   5.190  1.00  0.00    -0.258 NA
HETATM   31  C   UNK A   0      44.827 -22.225   5.038  1.00  0.00     0.117 A 
HETATM   32  C   UNK A   0      44.723 -22.876   3.827  1.00  0.00     0.020 A 
ENDBRANCH   1  22
TORSDOF 6
ENDMDL
MODEL 4
REMARK VINA RESULT:      -8.7      2.697      4.086
REMARK  6 active torsions:
REMARK  status: ('A' for Active; 'I' for Inactive)
REMARK    1  A    between atoms: C_4  and  N_5 
REMARK       I    between atoms: N_5  and  C_6 
REMARK       I    between atoms: C_6  and  N_16 
REMARK    2  A    between atoms: N_16  and  CA_17 
REMARK    3  A    between atoms: CA_17  and  C_18 
REMARK    4  A    between atoms: CA_17  and  CB_20 
REMARK    5  A    between atoms: C_18  and  O_19 
REMARK    6  A    between atoms: CB_20  and  CG_21 
ROOT
HETATM    1  N   UNK A   0      40.924 -15.851  -0.144  1.00  0.00    -0.307 N 
HETATM    2  C   UNK A   0      41.120 -16.606   0.965  1.00  0.00     0.321 C 
HETATM    3  O   UNK A   0      40.912 -17.817   0.918  1.00  0.00    -0.247 OA
HETATM    4  H   UNK A   0      40.775 -16.420  -0.976  1.00  0.00     0.170 HD
ATOM      5  N   TRP A   1      41.580 -15.987   2.085  1.00  0.00    -0.336 N 
ATOM      6  H   TRP A   1      42.188 -15.197   1.918  1.00  0.00     0.164 HD
ENDROOT
BRANCH   5   7
ATOM      7  CA  TRP A   1      41.911 -16.753   3.294  1.00  0.00     0.114 C 
BRANCH   7   8
ATOM      8  C   TRP A   1      41.155 -16.153   4.490  1.00  0.00     0.189 C 
BRANCH   8   9
ATOM      9  O   TRP A   1      40.032 -15.385   4.049  1.00  0.00    -0.399 OA
ATOM     10  H   TRP A   1      39.381 -16.024   3.711  1.00  0.00     0.209 HD
ENDBRANCH   8   9
ENDBRANCH   7   8
BRANCH   7  11
ATOM     11  CB  TRP A   1      43.438 -16.782   3.514  1.00  0.00     0.068 C 
BRANCH  11  12
ATOM     12  CG  TRP A   1      43.939 -18.089   4.053  1.00  0.00    -0.028 A 
ATOM     13  CD2 TRP A   1      43.992 -19.349   3.375  1.00  0.00    -0.002 A 
ATOM     14  CE2 TRP A   1      44.512 -20.284   4.271  1.00  0.00     0.042 A 
ATOM     15  CE3 TRP A   1      43.641 -19.784   2.080  1.00  0.00     0.014 A 
ATOM     16  CZ2 TRP A   1      44.698 -21.631   3.939  1.00  0.00     0.030 A 
ATOM     17  NE1 TRP A   1      44.765 -19.620   5.448  1.00  0.00    -0.365 N 
ATOM     18  CH2 TRP A   1      44.342 -22.036   2.649  1.00  0.00     0.002 A 
ATOM     19  CZ3 TRP A   1      43.821 -21.127   1.731  1.00  0.00     0.001 A 
ATOM     20  HE1 TRP A   1      45.139 -20.051   6.281  1.00  0.00     0.165 HD
ATOM     21  CD1 TRP A   1      44.427 -18.301   5.328  1.00  0.00     0.096 A 
ENDBRANCH  11  12
ENDBRANCH   7  11
ENDBRANCH   5   7
BRANCH   1  22
HETATM   22  C   UNK A   0      40.861 -14.463  -0.409  1.00  0.00     0.066 A 
HETATM   23  C   UNK A   0      41.911 -13.723  -0.966  1.00  0.00     0.038 A 
HETATM   24  C   UNK A   0      41.766 -12.351  -1.208  1.00  0.00    -0.059 A 
HETATM   25  C   UNK A   0      42.894 -11.552  -1.791  1.00  0.00     0.048 C 
HETATM   26  C   UNK A   0      40.575 -11.719  -0.840  1.00  0.00     0.020 A 
HETATM   27  C   UNK A   0      39.533 -12.445  -0.243  1.00  0.00    -0.005 A 
HETATM   28  C   UNK A   0      39.667 -13.831  -0.019  1.00  0.00     0.093 A 
HETATM   29  C   UNK A   0      38.342 -11.819   0.151  1.00  0.00     0.015 A 
HETATM   30  N   UNK A   0      38.675 -14.551   0.563  1.00  0.00    -0.258 NA
HETATM   31  C   UNK A   0      37.544 -13.912   0.929  1.00  0.00     0.117 A 
HETATM   32  C   UNK A   0      37.331 -12.561   0.747  1.00  0.00     0.020 A 
ENDBRANCH   1  22
TORSDOF 6
ENDMDL
MODEL 5
REMARK VINA RESULT:      -8.7      1.399      2.467
REMARK  6 active torsions:
REMARK  status: ('A' for Active; 'I' for Inactive)
REMARK    1  A    between atoms: C_4  and  N_5 
REMARK       I    between atoms: N_5  and  C_6 
REMARK       I    between atoms: C_6  and  N_16 
REMARK    2  A    between atoms: N_16  and  CA_17 
REMARK    3  A    between atoms: CA_17  and  C_18 
REMARK    4  A    between atoms: CA_17  and  CB_20 
REMARK    5  A    between atoms: C_18  and  O_19 
REMARK    6  A    between atoms: CB_20  and  CG_21 
ROOT
HETATM    1  N   UNK A   0      40.137 -15.582   5.671  1.00  0.00    -0.307 N 
HETATM    2  C   UNK A   0      40.854 -16.496   6.368  1.00  0.00     0.321 C 
HETATM    3  O   UNK A   0      40.269 -17.402   6.960  1.00  0.00    -0.247 OA
HETATM    4  H   UNK A   0      39.159 -15.851   5.573  1.00  0.00     0.170 HD
ATOM      5  N   TRP A   1      42.210 -16.389   6.354  1.00  0.00    -0.336 N 
ATOM      6  H   TRP A   1      42.599 -16.009   5.502  1.00  0.00     0.164 HD
ENDROOT
BRANCH   5   7
ATOM      7  CA  TRP A   1      43.057 -17.399   7.003  1.00  0.00     0.114 C 
BRANCH   7   8
ATOM      8  C   TRP A   1      43.265 -17.006   8.474  1.00  0.00     0.189 C 
BRANCH   8   9
ATOM      9  O   TRP A   1      43.980 -18.025   9.178  1.00  0.00    -0.399 OA
ATOM     10  H   TRP A   1      43.367 -18.375   9.848  1.00  0.00     0.209 HD
ENDBRANCH   8   9
ENDBRANCH   7   8
BRANCH   7  11
ATOM     11  CB  TRP A   1      44.389 -17.558   6.239  1.00  0.00     0.068 C 
BRANCH  11  12
ATOM     12  CG  TRP A   1      44.267 -18.382   4.992  1.00  0.00    -0.028 A 
ATOM     13  CD2 TRP A   1      43.934 -17.925   3.675  1.00  0.00    -0.002 A 
ATOM     14  CE2 TRP A   1      43.919 -19.042   2.839  1.00  0.00     0.042 A 
ATOM     15  CE3 TRP A   1      43.641 -16.664   3.117  1.00  0.00     0.014 A 
ATOM     16  CZ2 TRP A   1      43.623 -18.962   1.472  1.00  0.00     0.030 A 
ATOM     17  NE1 TRP A   1      44.228 -20.134   3.614  1.00  0.00    -0.365 N 
ATOM     18  CH2 TRP A   1      43.336 -17.700   0.945  1.00  0.00     0.002 A 
ATOM     19  CZ3 TRP A   1      43.345 -16.566   1.753  1.00  0.00     0.001 A 
ATOM     20  HE1 TRP A   1      44.280 -21.084   3.273  1.00  0.00     0.165 HD
ATOM     21  CD1 TRP A   1      44.440 -19.749   4.909  1.00  0.00     0.096 A 
ENDBRANCH  11  12
ENDBRANCH   7  11
ENDBRANCH   5   7
BRANCH   1  22
HETATM   22  C   UNK A   0      40.426 -14.337   5.064  1.00  0.00     0.066 A 
HETATM   23  C   UNK A   0      40.709 -13.165   5.775  1.00  0.00     0.038 A 
HETATM   24  C   UNK A   0      40.995 -11.972   5.100  1.00  0.00    -0.059 A 
HETATM   25  C   UNK A   0      41.284 -10.711   5.859  1.00  0.00     0.048 C 
HETATM   26  C   UNK A   0      40.945 -11.955   3.703  1.00  0.00     0.020 A 
HETATM   27  C   UNK A   0      40.622 -13.114   2.983  1.00  0.00    -0.005 A 
HETATM   28  C   UNK A   0      40.355 -14.323   3.659  1.00  0.00     0.093 A 
HETATM   29  C   UNK A   0      40.547 -13.105   1.583  1.00  0.00     0.015 A 
HETATM   30  N   UNK A   0      40.034 -15.454   2.983  1.00  0.00    -0.258 NA
HETATM   31  C   UNK A   0      39.972 -15.404   1.636  1.00  0.00     0.117 A 
HETATM   32  C   UNK A   0      40.217 -14.266   0.896  1.00  0.00     0.020 A 
ENDBRANCH   1  22
TORSDOF 6
ENDMDL
MODEL 6
REMARK VINA RESULT:      -8.6      2.880      4.077
REMARK  6 active torsions:
REMARK  status: ('A' for Active; 'I' for Inactive)
REMARK    1  A    between atoms: C_4  and  N_5 
REMARK       I    between atoms: N_5  and  C_6 
REMARK       I    between atoms: C_6  and  N_16 
REMARK    2  A    between atoms: N_16  and  CA_17 
REMARK    3  A    between atoms: CA_17  and  C_18 
REMARK    4  A    between atoms: CA_17  and  CB_20 
REMARK    5  A    between atoms: C_18  and  O_19 
REMARK    6  A    between atoms: CB_20  and  CG_21 
ROOT
HETATM    1  N   UNK A   0      40.548 -15.607  -0.091  1.00  0.00    -0.307 N 
HETATM    2  C   UNK A   0      40.948 -16.415   0.921  1.00  0.00     0.321 C 
HETATM    3  O   UNK A   0      41.191 -17.599   0.692  1.00  0.00    -0.247 OA
HETATM    4  H   UNK A   0      40.654 -16.049  -1.003  1.00  0.00     0.170 HD
ATOM      5  N   TRP A   1      41.098 -15.865   2.155  1.00  0.00    -0.336 N 
ATOM      6  H   TRP A   1      41.389 -14.896   2.159  1.00  0.00     0.164 HD
ENDROOT
BRANCH   5   7
ATOM      7  CA  TRP A   1      41.624 -16.652   3.279  1.00  0.00     0.114 C 
BRANCH   7   8
ATOM      8  C   TRP A   1      41.074 -16.076   4.594  1.00  0.00     0.189 C 
BRANCH   8   9
ATOM      9  O   TRP A   1      40.541 -17.114   5.421  1.00  0.00    -0.399 OA
ATOM     10  H   TRP A   1      40.716 -16.846   6.340  1.00  0.00     0.209 HD
ENDBRANCH   8   9
ENDBRANCH   7   8
BRANCH   7  11
ATOM     11  CB  TRP A   1      43.166 -16.681   3.245  1.00  0.00     0.068 C 
BRANCH  11  12
ATOM     12  CG  TRP A   1      43.755 -17.912   3.867  1.00  0.00    -0.028 A 
ATOM     13  CD2 TRP A   1      43.879 -19.212   3.278  1.00  0.00    -0.002 A 
ATOM     14  CE2 TRP A   1      44.467 -20.046   4.229  1.00  0.00     0.042 A 
ATOM     15  CE3 TRP A   1      43.542 -19.759   2.023  1.00  0.00     0.014 A 
ATOM     16  CZ2 TRP A   1      44.734 -21.400   3.991  1.00  0.00     0.030 A 
ATOM     17  NE1 TRP A   1      44.691 -19.286   5.353  1.00  0.00    -0.365 N 
ATOM     18  CH2 TRP A   1      44.390 -21.916   2.738  1.00  0.00     0.002 A 
ATOM     19  CZ3 TRP A   1      43.803 -21.110   1.766  1.00  0.00     0.001 A 
ATOM     20  HE1 TRP A   1      45.100 -19.633   6.209  1.00  0.00     0.165 HD
ATOM     21  CD1 TRP A   1      44.268 -18.002   5.145  1.00  0.00     0.096 A 
ENDBRANCH  11  12
ENDBRANCH   7  11
ENDBRANCH   5   7
BRANCH   1  22
HETATM   22  C   UNK A   0      40.003 -14.305  -0.174  1.00  0.00     0.066 A 
HETATM   23  C   UNK A   0      38.756 -13.941   0.350  1.00  0.00     0.038 A 
HETATM   24  C   UNK A   0      38.291 -12.626   0.236  1.00  0.00    -0.059 A 
HETATM   25  C   UNK A   0      36.949 -12.236   0.783  1.00  0.00     0.048 C 
HETATM   26  C   UNK A   0      39.066 -11.689  -0.453  1.00  0.00     0.020 A 
HETATM   27  C   UNK A   0      40.298 -12.054  -1.017  1.00  0.00    -0.005 A 
HETATM   28  C   UNK A   0      40.780 -13.372  -0.885  1.00  0.00     0.093 A 
HETATM   29  C   UNK A   0      41.075 -11.129  -1.730  1.00  0.00     0.015 A 
HETATM   30  N   UNK A   0      41.965 -13.749  -1.427  1.00  0.00    -0.258 NA
HETATM   31  C   UNK A   0      42.684 -12.830  -2.107  1.00  0.00     0.117 A 
HETATM   32  C   UNK A   0      42.286 -11.521  -2.284  1.00  0.00     0.020 A 
ENDBRANCH   1  22
TORSDOF 6
ENDMDL
MODEL 7
REMARK VINA RESULT:      -8.6      2.767      7.058
REMARK  6 active torsions:
REMARK  status: ('A' for Active; 'I' for Inactive)
REMARK    1  A    between atoms: C_4  and  N_5 
REMARK       I    between atoms: N_5  and  C_6 
REMARK       I    between atoms: C_6  and  N_16 
REMARK    2  A    between atoms: N_16  and  CA_17 
REMARK    3  A    between atoms: CA_17  and  C_18 
REMARK    4  A    between atoms: CA_17  and  CB_20 
REMARK    5  A    between atoms: C_18  and  O_19 
REMARK    6  A    between atoms: CB_20  and  CG_21 
ROOT
HETATM    1  N   UNK A   0      40.263 -16.625   2.793  1.00  0.00    -0.307 N 
HETATM    2  C   UNK A   0      40.051 -15.619   1.909  1.00  0.00     0.321 C 
HETATM    3  O   UNK A   0      38.900 -15.257   1.668  1.00  0.00    -0.247 OA
HETATM    4  H   UNK A   0      39.418 -16.873   3.306  1.00  0.00     0.170 HD
ATOM      5  N   TRP A   1      41.136 -15.023   1.348  1.00  0.00    -0.336 N 
ATOM      6  H   TRP A   1      41.958 -14.992   1.936  1.00  0.00     0.164 HD
ENDROOT
BRANCH   5   7
ATOM      7  CA  TRP A   1      40.990 -13.862   0.459  1.00  0.00     0.114 C 
BRANCH   7   8
ATOM      8  C   TRP A   1      41.355 -14.281  -0.974  1.00  0.00     0.189 C 
BRANCH   8   9
ATOM      9  O   TRP A   1      41.735 -15.659  -1.021  1.00  0.00    -0.399 OA
ATOM     10  H   TRP A   1      41.787 -15.958  -0.097  1.00  0.00     0.209 HD
ENDBRANCH   8   9
ENDBRANCH   7   8
BRANCH   7  11
ATOM     11  CB  TRP A   1      41.845 -12.682   0.967  1.00  0.00     0.068 C 
BRANCH  11  12
ATOM     12  CG  TRP A   1      41.632 -12.371   2.418  1.00  0.00    -0.028 A 
ATOM     13  CD2 TRP A   1      42.327 -12.929   3.540  1.00  0.00    -0.002 A 
ATOM     14  CE2 TRP A   1      41.782 -12.360   4.692  1.00  0.00     0.042 A 
ATOM     15  CE3 TRP A   1      43.368 -13.869   3.683  1.00  0.00     0.014 A 
ATOM     16  CZ2 TRP A   1      42.224 -12.685   5.981  1.00  0.00     0.030 A 
ATOM     17  NE1 TRP A   1      40.795 -11.492   4.288  1.00  0.00    -0.365 N 
ATOM     18  CH2 TRP A   1      43.257 -13.619   6.094  1.00  0.00     0.002 A 
ATOM     19  CZ3 TRP A   1      43.823 -14.204   4.964  1.00  0.00     0.001 A 
ATOM     20  HE1 TRP A   1      40.220 -10.945   4.914  1.00  0.00     0.165 HD
ATOM     21  CD1 TRP A   1      40.697 -11.490   2.925  1.00  0.00     0.096 A 
ENDBRANCH  11  12
ENDBRANCH   7  11
ENDBRANCH   5   7
BRANCH   1  22
HETATM   22  C   UNK A   0      41.376 -17.419   3.154  1.00  0.00     0.066 A 
HETATM   23  C   UNK A   0      42.066 -18.254   2.265  1.00  0.00     0.038 A 
HETATM   24  C   UNK A   0      43.167 -19.002   2.699  1.00  0.00    -0.059 A 
HETATM   25  C   UNK A   0      43.898 -19.908   1.753  1.00  0.00     0.048 C 
HETATM   26  C   UNK A   0      43.539 -18.944   4.044  1.00  0.00     0.020 A 
HETATM   27  C   UNK A   0      42.829 -18.142   4.951  1.00  0.00    -0.005 A 
HETATM   28  C   UNK A   0      41.734 -17.370   4.513  1.00  0.00     0.093 A 
HETATM   29  C   UNK A   0      43.179 -18.092   6.308  1.00  0.00     0.015 A 
HETATM   30  N   UNK A   0      41.029 -16.593   5.373  1.00  0.00    -0.258 NA
HETATM   31  C   UNK A   0      41.396 -16.572   6.672  1.00  0.00     0.117 A 
HETATM   32  C   UNK A   0      42.453 -17.296   7.184  1.00  0.00     0.020 A 
ENDBRANCH   1  22
TORSDOF 6
ENDMDL
MODEL 8
REMARK VINA RESULT:      -8.5      5.702      9.270
REMARK  6 active torsions:
REMARK  status: ('A' for Active; 'I' for Inactive)
REMARK    1  A    between atoms: C_4  and  N_5 
REMARK       I    between atoms: N_5  and  C_6 
REMARK       I    between atoms: C_6  and  N_16 
REMARK    2  A    between atoms: N_16  and  CA_17 
REMARK    3  A    between atoms: CA_17  and  C_18 
REMARK    4  A    between atoms: CA_17  and  CB_20 
REMARK    5  A    between atoms: C_18  and  O_19 
REMARK    6  A    between atoms: CB_20  and  CG_21 
ROOT
HETATM    1  N   UNK A   0      45.033 -14.013   6.858  1.00  0.00    -0.307 N 
HETATM    2  C   UNK A   0      45.374 -13.097   7.798  1.00  0.00     0.321 C 
HETATM    3  O   UNK A   0      46.455 -12.516   7.714  1.00  0.00    -0.247 OA
HETATM    4  H   UNK A   0      45.666 -14.001   6.060  1.00  0.00     0.170 HD
ATOM      5  N   TRP A   1      44.478 -12.832   8.785  1.00  0.00    -0.336 N 
ATOM      6  H   TRP A   1      43.507 -12.917   8.515  1.00  0.00     0.164 HD
ENDROOT
BRANCH   5   7
ATOM      7  CA  TRP A   1      44.733 -11.782   9.780  1.00  0.00     0.114 C 
BRANCH   7   8
ATOM      8  C   TRP A   1      44.737 -12.412  11.182  1.00  0.00     0.189 C 
BRANCH   8   9
ATOM      9  O   TRP A   1      44.054 -13.668  11.178  1.00  0.00    -0.399 OA
ATOM     10  H   TRP A   1      43.139 -13.481  11.449  1.00  0.00     0.209 HD
ENDBRANCH   8   9
ENDBRANCH   7   8
BRANCH   7  11
ATOM     11  CB  TRP A   1      43.698 -10.645   9.645  1.00  0.00     0.068 C 
BRANCH  11  12
ATOM     12  CG  TRP A   1      42.595 -10.719  10.658  1.00  0.00    -0.028 A 
ATOM     13  CD2 TRP A   1      42.616 -10.233  12.006  1.00  0.00    -0.002 A 
ATOM     14  CE2 TRP A   1      41.380 -10.538  12.578  1.00  0.00     0.042 A 
ATOM     15  CE3 TRP A   1      43.574  -9.566  12.796  1.00  0.00     0.014 A 
ATOM     16  CZ2 TRP A   1      41.054 -10.210  13.899  1.00  0.00     0.030 A 
ATOM     17  NE1 TRP A   1      40.637 -11.183  11.618  1.00  0.00    -0.365 N 
ATOM     18  CH2 TRP A   1      42.022  -9.548  14.660  1.00  0.00     0.002 A 
ATOM     19  CZ3 TRP A   1      43.265  -9.229  14.118  1.00  0.00     0.001 A 
ATOM     20  HE1 TRP A   1      39.698 -11.530  11.756  1.00  0.00     0.165 HD
ATOM     21  CD1 TRP A   1      41.356 -11.296  10.461  1.00  0.00     0.096 A 
ENDBRANCH  11  12
ENDBRANCH   7  11
ENDBRANCH   5   7
BRANCH   1  22
HETATM   22  C   UNK A   0      44.017 -14.989   6.737  1.00  0.00     0.066 A 
HETATM   23  C   UNK A   0      44.178 -16.336   7.084  1.00  0.00     0.038 A 
HETATM   24  C   UNK A   0      43.118 -17.240   6.943  1.00  0.00    -0.059 A 
HETATM   25  C   UNK A   0      43.292 -18.688   7.300  1.00  0.00     0.048 C 
HETATM   26  C   UNK A   0      41.909 -16.791   6.405  1.00  0.00     0.020 A 
HETATM   27  C   UNK A   0      41.752 -15.452   6.017  1.00  0.00    -0.005 A 
HETATM   28  C   UNK A   0      42.810 -14.533   6.177  1.00  0.00     0.093 A 
HETATM   29  C   UNK A   0      40.551 -14.993   5.455  1.00  0.00     0.015 A 
HETATM   30  N   UNK A   0      42.681 -13.236   5.803  1.00  0.00    -0.258 NA
HETATM   31  C   UNK A   0      41.511 -12.833   5.265  1.00  0.00     0.117 A 
HETATM   32  C   UNK A   0      40.427 -13.664   5.072  1.00  0.00     0.020 A 
ENDBRANCH   1  22
TORSDOF 6
ENDMDL
MODEL 9
REMARK VINA RESULT:      -8.5      5.736      9.159
REMARK  6 active torsions:
REMARK  status: ('A' for Active; 'I' for Inactive)
REMARK    1  A    between atoms: C_4  and  N_5 
REMARK       I    between atoms: N_5  and  C_6 
REMARK       I    between atoms: C_6  and  N_16 
REMARK    2  A    between atoms: N_16  and  CA_17 
REMARK    3  A    between atoms: CA_17  and  C_18 
REMARK    4  A    between atoms: CA_17  and  CB_20 
REMARK    5  A    between atoms: C_18  and  O_19 
REMARK    6  A    between atoms: CB_20  and  CG_21 
ROOT
HETATM    1  N   UNK A   0      44.654 -13.940   6.694  1.00  0.00    -0.307 N 
HETATM    2  C   UNK A   0      44.937 -13.154   7.761  1.00  0.00     0.321 C 
HETATM    3  O   UNK A   0      46.110 -12.889   8.024  1.00  0.00    -0.247 OA
HETATM    4  H   UNK A   0      45.469 -14.100   6.104  1.00  0.00     0.170 HD
ATOM      5  N   TRP A   1      43.898 -12.657   8.482  1.00  0.00    -0.336 N 
ATOM      6  H   TRP A   1      43.058 -12.474   7.949  1.00  0.00     0.164 HD
ENDROOT
BRANCH   5   7
ATOM      7  CA  TRP A   1      44.122 -11.718   9.589  1.00  0.00     0.114 C 
BRANCH   7   8
ATOM      8  C   TRP A   1      44.152 -12.502  10.911  1.00  0.00     0.189 C 
BRANCH   8   9
ATOM      9  O   TRP A   1      45.482 -12.921  11.224  1.00  0.00    -0.399 OA
ATOM     10  H   TRP A   1      45.985 -12.111  11.417  1.00  0.00     0.209 HD
ENDBRANCH   8   9
ENDBRANCH   7   8
BRANCH   7  11
ATOM     11  CB  TRP A   1      43.049 -10.609   9.583  1.00  0.00     0.068 C 
BRANCH  11  12
ATOM     12  CG  TRP A   1      42.135 -10.655  10.771  1.00  0.00    -0.028 A 
ATOM     13  CD2 TRP A   1      42.403 -10.180  12.096  1.00  0.00    -0.002 A 
ATOM     14  CE2 TRP A   1      41.274 -10.451  12.871  1.00  0.00     0.042 A 
ATOM     15  CE3 TRP A   1      43.503  -9.548  12.710  1.00  0.00     0.014 A 
ATOM     16  CZ2 TRP A   1      41.191 -10.122  14.230  1.00  0.00     0.030 A 
ATOM     17  NE1 TRP A   1      40.357 -11.066  12.053  1.00  0.00    -0.365 N 
ATOM     18  CH2 TRP A   1      42.296  -9.496  14.814  1.00  0.00     0.002 A 
ATOM     19  CZ3 TRP A   1      43.436  -9.211  14.067  1.00  0.00     0.001 A 
ATOM     20  HE1 TRP A   1      39.446 -11.386  12.350  1.00  0.00     0.165 HD
ATOM     21  CD1 TRP A   1      40.863 -11.193  10.789  1.00  0.00     0.096 A 
ENDBRANCH  11  12
ENDBRANCH   7  11
ENDBRANCH   5   7
BRANCH   1  22
HETATM   22  C   UNK A   0      43.497 -14.603   6.221  1.00  0.00     0.066 A 
HETATM   23  C   UNK A   0      42.321 -13.948   5.836  1.00  0.00     0.038 A 
HETATM   24  C   UNK A   0      41.220 -14.676   5.368  1.00  0.00    -0.059 A 
HETATM   25  C   UNK A   0      39.953 -13.979   4.968  1.00  0.00     0.048 C 
HETATM   26  C   UNK A   0      41.293 -16.071   5.336  1.00  0.00     0.020 A 
HETATM   27  C   UNK A   0      42.452 -16.738   5.759  1.00  0.00    -0.005 A 
HETATM   28  C   UNK A   0      43.571 -16.007   6.210  1.00  0.00     0.093 A 
HETATM   29  C   UNK A   0      42.531 -18.138   5.753  1.00  0.00     0.015 A 
HETATM   30  N   UNK A   0      44.700 -16.631   6.629  1.00  0.00    -0.258 NA
HETATM   31  C   UNK A   0      44.736 -17.980   6.609  1.00  0.00     0.117 A 
HETATM   32  C   UNK A   0      43.688 -18.771   6.185  1.00  0.00     0.020 A 
ENDBRANCH   1  22
TORSDOF 6
ENDMDL
MODEL 10
REMARK VINA RESULT:      -8.5      4.714      6.745
REMARK  6 active torsions:
REMARK  status: ('A' for Active; 'I' for Inactive)
REMARK    1  A    between atoms: C_4  and  N_5 
REMARK       I    between atoms: N_5  and  C_6 
REMARK       I    between atoms: C_6  and  N_16 
REMARK    2  A    between atoms: N_16  and  CA_17 
REMARK    3  A    between atoms: CA_17  and  C_18 
REMARK    4  A    between atoms: CA_17  and  CB_20 
REMARK    5  A    between atoms: C_18  and  O_19 
REMARK    6  A    between atoms: CB_20  and  CG_21 
ROOT
HETATM    1  N   UNK A   0      41.743 -10.462   7.396  1.00  0.00    -0.307 N 
HETATM    2  C   UNK A   0      41.529 -11.314   6.364  1.00  0.00     0.321 C 
HETATM    3  O   UNK A   0      41.423 -10.868   5.222  1.00  0.00    -0.247 OA
HETATM    4  H   UNK A   0      41.965  -9.519   7.079  1.00  0.00     0.170 HD
ATOM      5  N   TRP A   1      41.476 -12.645   6.635  1.00  0.00    -0.336 N 
ATOM      6  H   TRP A   1      42.057 -12.947   7.406  1.00  0.00     0.164 HD
ENDROOT
BRANCH   5   7
ATOM      7  CA  TRP A   1      41.348 -13.635   5.557  1.00  0.00     0.114 C 
BRANCH   7   8
ATOM      8  C   TRP A   1      39.910 -14.180   5.548  1.00  0.00     0.189 C 
BRANCH   8   9
ATOM      9  O   TRP A   1      39.880 -15.546   5.969  1.00  0.00    -0.399 OA
ATOM     10  H   TRP A   1      39.014 -15.895   5.698  1.00  0.00     0.209 HD
ENDBRANCH   8   9
ENDBRANCH   7   8
BRANCH   7  11
ATOM     11  CB  TRP A   1      42.402 -14.750   5.719  1.00  0.00     0.068 C 
BRANCH  11  12
ATOM     12  CG  TRP A   1      42.838 -15.353   4.417  1.00  0.00    -0.028 A 
ATOM     13  CD2 TRP A   1      43.197 -16.717   4.165  1.00  0.00    -0.002 A 
ATOM     14  CE2 TRP A   1      43.552 -16.812   2.819  1.00  0.00     0.042 A 
ATOM     15  CE3 TRP A   1      43.255 -17.881   4.958  1.00  0.00     0.014 A 
ATOM     16  CZ2 TRP A   1      43.966 -18.011   2.226  1.00  0.00     0.030 A 
ATOM     17  NE1 TRP A   1      43.418 -15.557   2.274  1.00  0.00    -0.365 N 
ATOM     18  CH2 TRP A   1      44.014 -19.150   3.035  1.00  0.00     0.002 A 
ATOM     19  CZ3 TRP A   1      43.664 -19.089   4.382  1.00  0.00     0.001 A 
ATOM     20  HE1 TRP A   1      43.618 -15.324   1.311  1.00  0.00     0.165 HD
ATOM     21  CD1 TRP A   1      42.988 -14.673   3.224  1.00  0.00     0.096 A 
ENDBRANCH  11  12
ENDBRANCH   7  11
ENDBRANCH   5   7
BRANCH   1  22
HETATM   22  C   UNK A   0      41.713 -10.573   8.806  1.00  0.00     0.066 A 
HETATM   23  C   UNK A   0      40.600 -10.253   9.594  1.00  0.00     0.038 A 
HETATM   24  C   UNK A   0      40.646 -10.400  10.985  1.00  0.00    -0.059 A 
HETATM   25  C   UNK A   0      39.461 -10.045  11.834  1.00  0.00     0.048 C 
HETATM   26  C   UNK A   0      41.835 -10.824  11.584  1.00  0.00     0.020 A 
HETATM   27  C   UNK A   0      42.968 -11.107  10.806  1.00  0.00    -0.005 A 
HETATM   28  C   UNK A   0      42.919 -10.982   9.403  1.00  0.00     0.093 A 
HETATM   29  C   UNK A   0      44.174 -11.512  11.396  1.00  0.00     0.015 A 
HETATM   30  N   UNK A   0      44.003 -11.244   8.632  1.00  0.00    -0.258 NA
HETATM   31  C   UNK A   0      45.147 -11.631   9.237  1.00  0.00     0.117 A 
HETATM   32  C   UNK A   0      45.282 -11.778  10.602  1.00  0.00     0.020 A 
ENDBRANCH   1  22
TORSDOF 6
ENDMDL
