MODEL 1
REMARK VINA RESULT:      -9.1      0.000      0.000
REMARK  5 active torsions:
REMARK  status: ('A' for Active; 'I' for Inactive)
REMARK    1  A    between atoms: C_5  and  S_6 
REMARK    2  A    between atoms: S_6  and  C_7 
REMARK    3  A    between atoms: C_7  and  C_8 
REMARK       I    between atoms: C_8  and  N_9 
REMARK    4  A    between atoms: N_9  and  N_10 
REMARK       I    between atoms: N_10  and  C_11 
REMARK    5  A    between atoms: C_11  and  C_12 
ROOT
HETATM    1  N   UNL     1      44.287 -14.942   6.943  1.00  0.00    -0.262 N 
HETATM    2  C   UNL     1      43.947 -16.239   7.260  1.00  0.00     0.286 C 
HETATM    3  O   UNL     1      43.595 -16.563   8.394  1.00  0.00    -0.264 OA
HETATM    4  H   UNL     1      44.508 -14.638   5.999  1.00  0.00     0.190 HD
ENDROOT
BRANCH   1   5
HETATM    5  N   UNL     1      44.118 -13.932   7.897  1.00  0.00    -0.267 N 
HETATM    6  C   UNL     1      45.157 -13.043   8.083  1.00  0.00     0.245 C 
HETATM    7  O   UNL     1      46.150 -13.036   7.353  1.00  0.00    -0.271 OA
HETATM    8  H   UNL     1      43.399 -14.081   8.606  1.00  0.00     0.190 HD
BRANCH   6   9
HETATM    9  C   UNL     1      44.941 -12.011   9.172  1.00  0.00     0.184 C 
BRANCH   9  10
HETATM   10  S   UNL     1      43.302 -11.228   9.020  1.00  0.00    -0.121 SA
BRANCH  10  11
HETATM   11  C   UNL     1      42.976 -10.878  10.738  1.00  0.00     0.001 A 
HETATM   12  C   UNL     1      43.941 -10.209  11.495  1.00  0.00     0.019 A 
HETATM   13  C   UNL     1      43.704  -9.911  12.841  1.00  0.00     0.008 A 
HETATM   14  C   UNL     1      42.498 -10.277  13.447  1.00  0.00    -0.062 A 
HETATM   15  C   UNL     1      42.224  -9.951  14.885  1.00  0.00     0.048 C 
HETATM   16  C   UNL     1      41.525 -10.930  12.682  1.00  0.00     0.008 A 
HETATM   17  C   UNL     1      41.761 -11.224  11.336  1.00  0.00     0.019 A 
ENDBRANCH  10  11
ENDBRANCH   9  10
ENDBRANCH   6   9
ENDBRANCH   1   5
BRANCH   2  18
HETATM   18  C   UNL     1      44.025 -17.184   6.169  1.00  0.00     0.103 A 
HETATM   19  N   UNL     1      43.465 -16.910   4.939  1.00  0.00    -0.351 N 
HETATM   20  H   UNL     1      42.969 -16.053   4.728  1.00  0.00     0.166 HD
HETATM   21  C   UNL     1      43.682 -17.939   4.055  1.00  0.00     0.043 A 
HETATM   22  C   UNL     1      44.394 -18.919   4.740  1.00  0.00    -0.007 A 
HETATM   23  C   UNL     1      43.305 -18.075   2.713  1.00  0.00     0.030 A 
HETATM   24  C   UNL     1      44.601 -18.440   6.063  1.00  0.00     0.049 A 
HETATM   25  C   UNL     1      44.752 -20.099   4.059  1.00  0.00     0.014 A 
HETATM   26  C   UNL     1      44.385 -20.253   2.717  1.00  0.00     0.001 A 
HETATM   27  C   UNL     1      43.671 -19.254   2.057  1.00  0.00     0.002 A 
ENDBRANCH   2  18
TORSDOF 5
ENDMDL
MODEL 2
REMARK VINA RESULT:      -9.1      1.918     10.382
REMARK  5 active torsions:
REMARK  status: ('A' for Active; 'I' for Inactive)
REMARK    1  A    between atoms: C_5  and  S_6 
REMARK    2  A    between atoms: S_6  and  C_7 
REMARK    3  A    between atoms: C_7  and  C_8 
REMARK       I    between atoms: C_8  and  N_9 
REMARK    4  A    between atoms: N_9  and  N_10 
REMARK       I    between atoms: N_10  and  C_11 
REMARK    5  A    between atoms: C_11  and  C_12 
ROOT
HETATM    1  N   UNL     1      43.983 -14.251   8.010  1.00  0.00    -0.262 N 
HETATM    2  C   UNL     1      44.825 -13.175   8.191  1.00  0.00     0.286 C 
HETATM    3  O   UNL     1      45.867 -13.047   7.549  1.00  0.00    -0.264 OA
HETATM    4  H   UNL     1      43.083 -14.339   8.474  1.00  0.00     0.190 HD
ENDROOT
BRANCH   1   5
HETATM    5  N   UNL     1      44.248 -15.169   6.988  1.00  0.00    -0.267 N 
HETATM    6  C   UNL     1      43.950 -16.496   7.223  1.00  0.00     0.245 C 
HETATM    7  O   UNL     1      43.348 -16.861   8.234  1.00  0.00    -0.271 OA
HETATM    8  H   UNL     1      44.913 -14.881   6.268  1.00  0.00     0.190 HD
BRANCH   6   9
HETATM    9  C   UNL     1      44.316 -17.451   6.105  1.00  0.00     0.184 C 
BRANCH   9  10
HETATM   10  S   UNL     1      43.421 -17.040   4.571  1.00  0.00    -0.121 SA
BRANCH  10  11
HETATM   11  C   UNL     1      43.689 -18.547   3.654  1.00  0.00     0.001 A 
HETATM   12  C   UNL     1      44.497 -19.547   4.201  1.00  0.00     0.019 A 
HETATM   13  C   UNL     1      44.713 -20.741   3.508  1.00  0.00     0.008 A 
HETATM   14  C   UNL     1      44.121 -20.954   2.259  1.00  0.00    -0.062 A 
HETATM   15  C   UNL     1      44.331 -22.237   1.511  1.00  0.00     0.048 C 
HETATM   16  C   UNL     1      43.296 -19.960   1.721  1.00  0.00     0.008 A 
HETATM   17  C   UNL     1      43.078 -18.767   2.416  1.00  0.00     0.019 A 
ENDBRANCH  10  11
ENDBRANCH   9  10
ENDBRANCH   6   9
ENDBRANCH   1   5
BRANCH   2  18
HETATM   18  C   UNL     1      44.394 -12.210   9.176  1.00  0.00     0.103 A 
HETATM   19  N   UNL     1      43.333 -11.362   8.937  1.00  0.00    -0.351 N 
HETATM   20  H   UNL     1      42.805 -11.357   8.073  1.00  0.00     0.166 HD
HETATM   21  C   UNL     1      43.091 -10.551  10.019  1.00  0.00     0.043 A 
HETATM   22  C   UNL     1      44.037 -10.875  10.988  1.00  0.00    -0.007 A 
HETATM   23  C   UNL     1      42.116  -9.566  10.213  1.00  0.00     0.030 A 
HETATM   24  C   UNL     1      44.850 -11.911  10.451  1.00  0.00     0.049 A 
HETATM   25  C   UNL     1      44.017 -10.183  12.215  1.00  0.00     0.014 A 
HETATM   26  C   UNL     1      43.049  -9.195  12.426  1.00  0.00     0.001 A 
HETATM   27  C   UNL     1      42.113  -8.892  11.438  1.00  0.00     0.002 A 
ENDBRANCH   2  18
TORSDOF 5
ENDMDL
MODEL 3
REMARK VINA RESULT:      -9.0      2.169     10.131
REMARK  5 active torsions:
REMARK  status: ('A' for Active; 'I' for Inactive)
REMARK    1  A    between atoms: C_5  and  S_6 
REMARK    2  A    between atoms: S_6  and  C_7 
REMARK    3  A    between atoms: C_7  and  C_8 
REMARK       I    between atoms: C_8  and  N_9 
REMARK    4  A    between atoms: N_9  and  N_10 
REMARK       I    between atoms: N_10  and  C_11 
REMARK    5  A    between atoms: C_11  and  C_12 
ROOT
HETATM    1  N   UNL     1      44.093 -13.088   8.535  1.00  0.00    -0.262 N 
HETATM    2  C   UNL     1      44.738 -11.992   9.064  1.00  0.00     0.286 C 
HETATM    3  O   UNL     1      45.743 -11.510   8.541  1.00  0.00    -0.264 OA
HETATM    4  H   UNL     1      43.221 -13.455   8.907  1.00  0.00     0.190 HD
ENDROOT
BRANCH   1   5
HETATM    5  N   UNL     1      44.510 -13.606   7.304  1.00  0.00    -0.267 N 
HETATM    6  C   UNL     1      43.616 -13.565   6.253  1.00  0.00     0.245 C 
HETATM    7  O   UNL     1      42.537 -12.976   6.335  1.00  0.00    -0.271 OA
HETATM    8  H   UNL     1      45.302 -14.251   7.317  1.00  0.00     0.190 HD
BRANCH   6   9
HETATM    9  C   UNL     1      44.102 -14.195   4.963  1.00  0.00     0.184 C 
BRANCH   9  10
HETATM   10  S   UNL     1      42.704 -14.623   3.874  1.00  0.00    -0.121 SA
BRANCH  10  11
HETATM   11  C   UNL     1      43.139 -16.306   3.472  1.00  0.00     0.001 A 
HETATM   12  C   UNL     1      43.645 -16.598   2.203  1.00  0.00     0.019 A 
HETATM   13  C   UNL     1      44.005 -17.906   1.868  1.00  0.00     0.008 A 
HETATM   14  C   UNL     1      43.868 -18.941   2.798  1.00  0.00    -0.062 A 
HETATM   15  C   UNL     1      44.265 -20.346   2.458  1.00  0.00     0.048 C 
HETATM   16  C   UNL     1      43.379 -18.643   4.076  1.00  0.00     0.008 A 
HETATM   17  C   UNL     1      43.022 -17.334   4.411  1.00  0.00     0.019 A 
ENDBRANCH  10  11
ENDBRANCH   9  10
ENDBRANCH   6   9
ENDBRANCH   1   5
BRANCH   2  18
HETATM   18  C   UNL     1      44.149 -11.446  10.265  1.00  0.00     0.103 A 
HETATM   19  N   UNL     1      42.911 -11.859  10.711  1.00  0.00    -0.351 N 
HETATM   20  H   UNL     1      42.346 -12.549  10.233  1.00  0.00     0.166 HD
HETATM   21  C   UNL     1      42.566 -11.222  11.878  1.00  0.00     0.043 A 
HETATM   22  C   UNL     1      43.609 -10.356  12.192  1.00  0.00    -0.007 A 
HETATM   23  C   UNL     1      41.420 -11.346  12.673  1.00  0.00     0.030 A 
HETATM   24  C   UNL     1      44.594 -10.500  11.176  1.00  0.00     0.049 A 
HETATM   25  C   UNL     1      43.512  -9.569  13.356  1.00  0.00     0.014 A 
HETATM   26  C   UNL     1      42.374  -9.680  14.163  1.00  0.00     0.001 A 
HETATM   27  C   UNL     1      41.344 -10.556  13.824  1.00  0.00     0.002 A 
ENDBRANCH   2  18
TORSDOF 5
ENDMDL
MODEL 4
REMARK VINA RESULT:      -8.8      1.526      2.065
REMARK  5 active torsions:
REMARK  status: ('A' for Active; 'I' for Inactive)
REMARK    1  A    between atoms: C_5  and  S_6 
REMARK    2  A    between atoms: S_6  and  C_7 
REMARK    3  A    between atoms: C_7  and  C_8 
REMARK       I    between atoms: C_8  and  N_9 
REMARK    4  A    between atoms: N_9  and  N_10 
REMARK       I    between atoms: N_10  and  C_11 
REMARK    5  A    between atoms: C_11  and  C_12 
ROOT
HETATM    1  N   UNL     1      44.038 -15.943   6.506  1.00  0.00    -0.262 N 
HETATM    2  C   UNL     1      43.786 -17.194   7.026  1.00  0.00     0.286 C 
HETATM    3  O   UNL     1      43.392 -17.353   8.182  1.00  0.00    -0.264 OA
HETATM    4  H   UNL     1      44.291 -15.783   5.535  1.00  0.00     0.190 HD
ENDROOT
BRANCH   1   5
HETATM    5  N   UNL     1      43.730 -14.807   7.262  1.00  0.00    -0.267 N 
HETATM    6  C   UNL     1      44.565 -13.713   7.149  1.00  0.00     0.245 C 
HETATM    7  O   UNL     1      45.473 -13.668   6.317  1.00  0.00    -0.271 OA
HETATM    8  H   UNL     1      43.117 -14.939   8.068  1.00  0.00     0.190 HD
BRANCH   6   9
HETATM    9  C   UNL     1      44.217 -12.536   8.038  1.00  0.00     0.184 C 
BRANCH   9  10
HETATM   10  S   UNL     1      45.579 -12.156   9.189  1.00  0.00    -0.121 SA
BRANCH  10  11
HETATM   11  C   UNL     1      44.634 -11.634  10.609  1.00  0.00     0.001 A 
HETATM   12  C   UNL     1      44.446 -10.269  10.842  1.00  0.00     0.019 A 
HETATM   13  C   UNL     1      43.699  -9.834  11.941  1.00  0.00     0.008 A 
HETATM   14  C   UNL     1      43.128 -10.759  12.822  1.00  0.00    -0.062 A 
HETATM   15  C   UNL     1      42.312 -10.308  13.996  1.00  0.00     0.048 C 
HETATM   16  C   UNL     1      43.302 -12.125  12.576  1.00  0.00     0.008 A 
HETATM   17  C   UNL     1      44.046 -12.560  11.475  1.00  0.00     0.019 A 
ENDBRANCH  10  11
ENDBRANCH   9  10
ENDBRANCH   6   9
ENDBRANCH   1   5
BRANCH   2  18
HETATM   18  C   UNL     1      44.006 -18.298   6.120  1.00  0.00     0.103 A 
HETATM   19  N   UNL     1      44.209 -19.580   6.584  1.00  0.00    -0.351 N 
HETATM   20  H   UNL     1      44.226 -19.824   7.566  1.00  0.00     0.166 HD
HETATM   21  C   UNL     1      44.373 -20.464   5.545  1.00  0.00     0.043 A 
HETATM   22  C   UNL     1      44.286 -19.726   4.368  1.00  0.00    -0.007 A 
HETATM   23  C   UNL     1      44.589 -21.847   5.558  1.00  0.00     0.030 A 
HETATM   24  C   UNL     1      44.060 -18.372   4.737  1.00  0.00     0.049 A 
HETATM   25  C   UNL     1      44.422 -20.396   3.136  1.00  0.00     0.014 A 
HETATM   26  C   UNL     1      44.638 -21.779   3.129  1.00  0.00     0.001 A 
HETATM   27  C   UNL     1      44.720 -22.491   4.324  1.00  0.00     0.002 A 
ENDBRANCH   2  18
TORSDOF 5
ENDMDL
MODEL 5
REMARK VINA RESULT:      -8.7      1.651      2.175
REMARK  5 active torsions:
REMARK  status: ('A' for Active; 'I' for Inactive)
REMARK    1  A    between atoms: C_5  and  S_6 
REMARK    2  A    between atoms: S_6  and  C_7 
REMARK    3  A    between atoms: C_7  and  C_8 
REMARK       I    between atoms: C_8  and  N_9 
REMARK    4  A    between atoms: N_9  and  N_10 
REMARK       I    between atoms: N_10  and  C_11 
REMARK    5  A    between atoms: C_11  and  C_12 
ROOT
HETATM    1  N   UNL     1      43.556 -13.904   6.717  1.00  0.00    -0.262 N 
HETATM    2  C   UNL     1      43.008 -13.751   5.462  1.00  0.00     0.286 C 
HETATM    3  O   UNL     1      42.399 -12.732   5.136  1.00  0.00    -0.264 OA
HETATM    4  H   UNL     1      44.126 -14.703   6.983  1.00  0.00     0.190 HD
ENDROOT
BRANCH   1   5
HETATM    5  N   UNL     1      43.529 -12.833   7.616  1.00  0.00    -0.267 N 
HETATM    6  C   UNL     1      44.649 -12.619   8.394  1.00  0.00     0.245 C 
HETATM    7  O   UNL     1      45.694 -13.249   8.224  1.00  0.00    -0.271 OA
HETATM    8  H   UNL     1      42.611 -12.469   7.876  1.00  0.00     0.190 HD
BRANCH   6   9
HETATM    9  C   UNL     1      44.538 -11.484   9.393  1.00  0.00     0.184 C 
BRANCH   9  10
HETATM   10  S   UNL     1      42.861 -10.768   9.392  1.00  0.00    -0.121 SA
BRANCH  10  11
HETATM   11  C   UNL     1      42.640 -10.519  11.144  1.00  0.00     0.001 A 
HETATM   12  C   UNL     1      43.618  -9.831  11.867  1.00  0.00     0.019 A 
HETATM   13  C   UNL     1      43.462  -9.611  13.238  1.00  0.00     0.008 A 
HETATM   14  C   UNL     1      42.324 -10.074  13.907  1.00  0.00    -0.062 A 
HETATM   15  C   UNL     1      42.136  -9.833  15.375  1.00  0.00     0.048 C 
HETATM   16  C   UNL     1      41.337 -10.746  13.177  1.00  0.00     0.008 A 
HETATM   17  C   UNL     1      41.491 -10.962  11.806  1.00  0.00     0.019 A 
ENDBRANCH  10  11
ENDBRANCH   9  10
ENDBRANCH   6   9
ENDBRANCH   1   5
BRANCH   2  18
HETATM   18  C   UNL     1      43.208 -14.861   4.559  1.00  0.00     0.103 A 
HETATM   19  N   UNL     1      43.252 -16.161   5.016  1.00  0.00    -0.351 N 
HETATM   20  H   UNL     1      43.157 -16.415   5.991  1.00  0.00     0.166 HD
HETATM   21  C   UNL     1      43.428 -17.046   3.980  1.00  0.00     0.043 A 
HETATM   22  C   UNL     1      43.514 -16.292   2.813  1.00  0.00    -0.007 A 
HETATM   23  C   UNL     1      43.515 -18.443   3.986  1.00  0.00     0.030 A 
HETATM   24  C   UNL     1      43.379 -14.926   3.185  1.00  0.00     0.049 A 
HETATM   25  C   UNL     1      43.699 -16.959   1.586  1.00  0.00     0.014 A 
HETATM   26  C   UNL     1      43.788 -18.356   1.573  1.00  0.00     0.001 A 
HETATM   27  C   UNL     1      43.698 -19.085   2.757  1.00  0.00     0.002 A 
ENDBRANCH   2  18
TORSDOF 5
ENDMDL
MODEL 6
REMARK VINA RESULT:      -8.3      5.788      9.583
REMARK  5 active torsions:
REMARK  status: ('A' for Active; 'I' for Inactive)
REMARK    1  A    between atoms: C_5  and  S_6 
REMARK    2  A    between atoms: S_6  and  C_7 
REMARK    3  A    between atoms: C_7  and  C_8 
REMARK       I    between atoms: C_8  and  N_9 
REMARK    4  A    between atoms: N_9  and  N_10 
REMARK       I    between atoms: N_10  and  C_11 
REMARK    5  A    between atoms: C_11  and  C_12 
ROOT
HETATM    1  N   UNL     1      40.664 -16.360   4.871  1.00  0.00    -0.262 N 
HETATM    2  C   UNL     1      41.010 -15.989   3.589  1.00  0.00     0.286 C 
HETATM    3  O   UNL     1      41.967 -16.491   3.000  1.00  0.00    -0.264 OA
HETATM    4  H   UNL     1      39.836 -16.015   5.347  1.00  0.00     0.190 HD
ENDROOT
BRANCH   1   5
HETATM    5  N   UNL     1      41.339 -17.420   5.487  1.00  0.00    -0.267 N 
HETATM    6  C   UNL     1      42.331 -17.110   6.394  1.00  0.00     0.245 C 
HETATM    7  O   UNL     1      42.539 -15.953   6.765  1.00  0.00    -0.271 OA
HETATM    8  H   UNL     1      41.291 -18.330   5.025  1.00  0.00     0.190 HD
BRANCH   6   9
HETATM    9  C   UNL     1      43.068 -18.297   6.982  1.00  0.00     0.184 C 
BRANCH   9  10
HETATM   10  S   UNL     1      44.800 -18.342   6.414  1.00  0.00    -0.121 SA
BRANCH  10  11
HETATM   11  C   UNL     1      44.620 -19.387   4.980  1.00  0.00     0.001 A 
HETATM   12  C   UNL     1      44.828 -20.763   5.105  1.00  0.00     0.019 A 
HETATM   13  C   UNL     1      44.680 -21.605   3.999  1.00  0.00     0.008 A 
HETATM   14  C   UNL     1      44.319 -21.083   2.753  1.00  0.00    -0.062 A 
HETATM   15  C   UNL     1      44.142 -21.976   1.561  1.00  0.00     0.048 C 
HETATM   16  C   UNL     1      44.092 -19.707   2.634  1.00  0.00     0.008 A 
HETATM   17  C   UNL     1      44.237 -18.866   3.741  1.00  0.00     0.019 A 
ENDBRANCH  10  11
ENDBRANCH   9  10
ENDBRANCH   6   9
ENDBRANCH   1   5
BRANCH   2  18
HETATM   18  C   UNL     1      40.167 -14.981   2.988  1.00  0.00     0.103 A 
HETATM   19  N   UNL     1      39.193 -15.313   2.069  1.00  0.00    -0.351 N 
HETATM   20  H   UNL     1      39.015 -16.259   1.759  1.00  0.00     0.166 HD
HETATM   21  C   UNL     1      38.505 -14.199   1.652  1.00  0.00     0.043 A 
HETATM   22  C   UNL     1      39.061 -13.107   2.313  1.00  0.00    -0.007 A 
HETATM   23  C   UNL     1      37.442 -14.076   0.750  1.00  0.00     0.030 A 
HETATM   24  C   UNL     1      40.102 -13.606   3.144  1.00  0.00     0.049 A 
HETATM   25  C   UNL     1      38.536 -11.824   2.064  1.00  0.00     0.014 A 
HETATM   26  C   UNL     1      37.473 -11.682   1.166  1.00  0.00     0.001 A 
HETATM   27  C   UNL     1      36.936 -12.793   0.519  1.00  0.00     0.002 A 
ENDBRANCH   2  18
TORSDOF 5
ENDMDL
MODEL 7
REMARK VINA RESULT:      -8.3      8.112     10.716
REMARK  5 active torsions:
REMARK  status: ('A' for Active; 'I' for Inactive)
REMARK    1  A    between atoms: C_5  and  S_6 
REMARK    2  A    between atoms: S_6  and  C_7 
REMARK    3  A    between atoms: C_7  and  C_8 
REMARK       I    between atoms: C_8  and  N_9 
REMARK    4  A    between atoms: N_9  and  N_10 
REMARK       I    between atoms: N_10  and  C_11 
REMARK    5  A    between atoms: C_11  and  C_12 
ROOT
HETATM    1  N   UNL     1      42.720 -17.049   0.699  1.00  0.00    -0.262 N 
HETATM    2  C   UNL     1      43.497 -17.091   1.837  1.00  0.00     0.286 C 
HETATM    3  O   UNL     1      43.892 -16.068   2.395  1.00  0.00    -0.264 OA
HETATM    4  H   UNL     1      42.321 -17.878   0.265  1.00  0.00     0.190 HD
ENDROOT
BRANCH   1   5
HETATM    5  N   UNL     1      42.261 -15.816   0.223  1.00  0.00    -0.267 N 
HETATM    6  C   UNL     1      40.984 -15.427   0.573  1.00  0.00     0.245 C 
HETATM    7  O   UNL     1      40.307 -16.060   1.385  1.00  0.00    -0.271 OA
HETATM    8  H   UNL     1      42.746 -15.423  -0.585  1.00  0.00     0.190 HD
BRANCH   6   9
HETATM    9  C   UNL     1      40.520 -14.112  -0.022  1.00  0.00     0.184 C 
BRANCH   9  10
HETATM   10  S   UNL     1      41.110 -13.923  -1.737  1.00  0.00    -0.121 SA
BRANCH  10  11
HETATM   11  C   UNL     1      39.557 -14.064  -2.605  1.00  0.00     0.001 A 
HETATM   12  C   UNL     1      38.620 -13.033  -2.502  1.00  0.00     0.019 A 
HETATM   13  C   UNL     1      37.401 -13.114  -3.183  1.00  0.00     0.008 A 
HETATM   14  C   UNL     1      37.104 -14.225  -3.978  1.00  0.00    -0.062 A 
HETATM   15  C   UNL     1      35.808 -14.318  -4.726  1.00  0.00     0.048 C 
HETATM   16  C   UNL     1      38.053 -15.247  -4.095  1.00  0.00     0.008 A 
HETATM   17  C   UNL     1      39.272 -15.165  -3.418  1.00  0.00     0.019 A 
ENDBRANCH  10  11
ENDBRANCH   9  10
ENDBRANCH   6   9
ENDBRANCH   1   5
BRANCH   2  18
HETATM   18  C   UNL     1      43.804 -18.415   2.329  1.00  0.00     0.103 A 
HETATM   19  N   UNL     1      44.140 -18.632   3.648  1.00  0.00    -0.351 N 
HETATM   20  H   UNL     1      44.199 -17.895   4.339  1.00  0.00     0.166 HD
HETATM   21  C   UNL     1      44.367 -19.965   3.890  1.00  0.00     0.043 A 
HETATM   22  C   UNL     1      44.186 -20.633   2.682  1.00  0.00    -0.007 A 
HETATM   23  C   UNL     1      44.716 -20.625   5.075  1.00  0.00     0.030 A 
HETATM   24  C   UNL     1      43.837 -19.655   1.710  1.00  0.00     0.049 A 
HETATM   25  C   UNL     1      44.361 -22.030   2.646  1.00  0.00     0.014 A 
HETATM   26  C   UNL     1      44.708 -22.707   3.821  1.00  0.00     0.001 A 
HETATM   27  C   UNL     1      44.883 -22.012   5.016  1.00  0.00     0.002 A 
ENDBRANCH   2  18
TORSDOF 5
ENDMDL
MODEL 8
REMARK VINA RESULT:      -8.3      1.807      2.673
REMARK  5 active torsions:
REMARK  status: ('A' for Active; 'I' for Inactive)
REMARK    1  A    between atoms: C_5  and  S_6 
REMARK    2  A    between atoms: S_6  and  C_7 
REMARK    3  A    between atoms: C_7  and  C_8 
REMARK       I    between atoms: C_8  and  N_9 
REMARK    4  A    between atoms: N_9  and  N_10 
REMARK       I    between atoms: N_10  and  C_11 
REMARK    5  A    between atoms: C_11  and  C_12 
ROOT
HETATM    1  N   UNL     1      43.169 -16.014   5.428  1.00  0.00    -0.262 N 
HETATM    2  C   UNL     1      43.239 -16.200   4.064  1.00  0.00     0.286 C 
HETATM    3  O   UNL     1      43.119 -15.266   3.271  1.00  0.00    -0.264 OA
HETATM    4  H   UNL     1      43.340 -16.756   6.101  1.00  0.00     0.190 HD
ENDROOT
BRANCH   1   5
HETATM    5  N   UNL     1      43.077 -14.716   5.942  1.00  0.00    -0.267 N 
HETATM    6  C   UNL     1      44.085 -14.285   6.780  1.00  0.00     0.245 C 
HETATM    7  O   UNL     1      45.105 -14.949   6.973  1.00  0.00    -0.271 OA
HETATM    8  H   UNL     1      42.155 -14.279   5.934  1.00  0.00     0.190 HD
BRANCH   6   9
HETATM    9  C   UNL     1      43.901 -12.894   7.356  1.00  0.00     0.184 C 
BRANCH   9  10
HETATM   10  S   UNL     1      45.147 -12.544   8.639  1.00  0.00    -0.121 SA
BRANCH  10  11
HETATM   11  C   UNL     1      44.215 -11.419   9.664  1.00  0.00     0.001 A 
HETATM   12  C   UNL     1      44.696 -11.091  10.934  1.00  0.00     0.019 A 
HETATM   13  C   UNL     1      43.991 -10.203  11.751  1.00  0.00     0.008 A 
HETATM   14  C   UNL     1      42.795  -9.628  11.308  1.00  0.00    -0.062 A 
HETATM   15  C   UNL     1      42.035  -8.662  12.168  1.00  0.00     0.048 C 
HETATM   16  C   UNL     1      42.324  -9.944  10.029  1.00  0.00     0.008 A 
HETATM   17  C   UNL     1      43.031 -10.829   9.211  1.00  0.00     0.019 A 
ENDBRANCH  10  11
ENDBRANCH   9  10
ENDBRANCH   6   9
ENDBRANCH   1   5
BRANCH   2  18
HETATM   18  C   UNL     1      43.472 -17.560   3.635  1.00  0.00     0.103 A 
HETATM   19  N   UNL     1      44.111 -18.471   4.449  1.00  0.00    -0.351 N 
HETATM   20  H   UNL     1      44.457 -18.249   5.374  1.00  0.00     0.166 HD
HETATM   21  C   UNL     1      44.201 -19.701   3.844  1.00  0.00     0.043 A 
HETATM   22  C   UNL     1      43.611 -19.579   2.589  1.00  0.00    -0.007 A 
HETATM   23  C   UNL     1      44.752 -20.902   4.307  1.00  0.00     0.030 A 
HETATM   24  C   UNL     1      43.162 -18.236   2.465  1.00  0.00     0.049 A 
HETATM   25  C   UNL     1      43.568 -20.708   1.746  1.00  0.00     0.014 A 
HETATM   26  C   UNL     1      44.113 -21.916   2.193  1.00  0.00     0.001 A 
HETATM   27  C   UNL     1      44.697 -22.009   3.455  1.00  0.00     0.002 A 
ENDBRANCH   2  18
TORSDOF 5
ENDMDL
MODEL 9
REMARK VINA RESULT:      -8.2      8.049      9.854
REMARK  5 active torsions:
REMARK  status: ('A' for Active; 'I' for Inactive)
REMARK    1  A    between atoms: C_5  and  S_6 
REMARK    2  A    between atoms: S_6  and  C_7 
REMARK    3  A    between atoms: C_7  and  C_8 
REMARK       I    between atoms: C_8  and  N_9 
REMARK    4  A    between atoms: N_9  and  N_10 
REMARK       I    between atoms: N_10  and  C_11 
REMARK    5  A    between atoms: C_11  and  C_12 
ROOT
HETATM    1  N   UNL     1      42.711 -17.106   0.659  1.00  0.00    -0.262 N 
HETATM    2  C   UNL     1      43.594 -17.142   1.716  1.00  0.00     0.286 C 
HETATM    3  O   UNL     1      44.106 -16.120   2.174  1.00  0.00    -0.264 OA
HETATM    4  H   UNL     1      42.219 -17.926   0.314  1.00  0.00     0.190 HD
ENDROOT
BRANCH   1   5
HETATM    5  N   UNL     1      42.284 -15.870   0.159  1.00  0.00    -0.267 N 
HETATM    6  C   UNL     1      41.040 -15.416   0.546  1.00  0.00     0.245 C 
HETATM    7  O   UNL     1      40.371 -15.993   1.406  1.00  0.00    -0.271 OA
HETATM    8  H   UNL     1      42.751 -15.525  -0.681  1.00  0.00     0.190 HD
BRANCH   6   9
HETATM    9  C   UNL     1      40.607 -14.103  -0.075  1.00  0.00     0.184 C 
BRANCH   9  10
HETATM   10  S   UNL     1      41.743 -12.752   0.382  1.00  0.00    -0.121 SA
BRANCH  10  11
HETATM   11  C   UNL     1      41.971 -11.997  -1.217  1.00  0.00     0.001 A 
HETATM   12  C   UNL     1      42.623 -10.764  -1.306  1.00  0.00     0.019 A 
HETATM   13  C   UNL     1      42.826 -10.157  -2.549  1.00  0.00     0.008 A 
HETATM   14  C   UNL     1      42.381 -10.776  -3.721  1.00  0.00    -0.062 A 
HETATM   15  C   UNL     1      42.605 -10.144  -5.063  1.00  0.00     0.048 C 
HETATM   16  C   UNL     1      41.745 -12.019  -3.632  1.00  0.00     0.008 A 
HETATM   17  C   UNL     1      41.546 -12.627  -2.390  1.00  0.00     0.019 A 
ENDBRANCH  10  11
ENDBRANCH   9  10
ENDBRANCH   6   9
ENDBRANCH   1   5
BRANCH   2  18
HETATM   18  C   UNL     1      43.866 -18.456   2.252  1.00  0.00     0.103 A 
HETATM   19  N   UNL     1      44.203 -18.638   3.576  1.00  0.00    -0.351 N 
HETATM   20  H   UNL     1      44.288 -17.880   4.241  1.00  0.00     0.166 HD
HETATM   21  C   UNL     1      44.394 -19.968   3.862  1.00  0.00     0.043 A 
HETATM   22  C   UNL     1      44.186 -20.671   2.678  1.00  0.00    -0.007 A 
HETATM   23  C   UNL     1      44.730 -20.597   5.067  1.00  0.00     0.030 A 
HETATM   24  C   UNL     1      43.860 -19.717   1.676  1.00  0.00     0.049 A 
HETATM   25  C   UNL     1      44.321 -22.073   2.689  1.00  0.00     0.014 A 
HETATM   26  C   UNL     1      44.656 -22.719   3.885  1.00  0.00     0.001 A 
HETATM   27  C   UNL     1      44.858 -21.989   5.055  1.00  0.00     0.002 A 
ENDBRANCH   2  18
TORSDOF 5
ENDMDL
MODEL 10
REMARK VINA RESULT:      -8.2      7.837      9.317
REMARK  5 active torsions:
REMARK  status: ('A' for Active; 'I' for Inactive)
REMARK    1  A    between atoms: C_5  and  S_6 
REMARK    2  A    between atoms: S_6  and  C_7 
REMARK    3  A    between atoms: C_7  and  C_8 
REMARK       I    between atoms: C_8  and  N_9 
REMARK    4  A    between atoms: N_9  and  N_10 
REMARK       I    between atoms: N_10  and  C_11 
REMARK    5  A    between atoms: C_11  and  C_12 
ROOT
HETATM    1  N   UNL     1      42.741 -17.021   0.825  1.00  0.00    -0.262 N 
HETATM    2  C   UNL     1      43.472 -16.928   1.990  1.00  0.00     0.286 C 
HETATM    3  O   UNL     1      43.822 -15.843   2.454  1.00  0.00    -0.264 OA
HETATM    4  H   UNL     1      42.377 -17.899   0.464  1.00  0.00     0.190 HD
ENDROOT
BRANCH   1   5
HETATM    5  N   UNL     1      42.276 -15.855   0.207  1.00  0.00    -0.267 N 
HETATM    6  C   UNL     1      40.978 -15.464   0.467  1.00  0.00     0.245 C 
HETATM    7  O   UNL     1      40.282 -16.028   1.313  1.00  0.00    -0.271 OA
HETATM    8  H   UNL     1      42.784 -15.534  -0.618  1.00  0.00     0.190 HD
BRANCH   6   9
HETATM    9  C   UNL     1      40.511 -14.229  -0.277  1.00  0.00     0.184 C 
BRANCH   9  10
HETATM   10  S   UNL     1      41.315 -14.102  -1.909  1.00  0.00    -0.121 SA
BRANCH  10  11
HETATM   11  C   UNL     1      42.029 -12.473  -1.765  1.00  0.00     0.001 A 
HETATM   12  C   UNL     1      42.274 -11.943  -0.495  1.00  0.00     0.019 A 
HETATM   13  C   UNL     1      42.844 -10.674  -0.356  1.00  0.00     0.008 A 
HETATM   14  C   UNL     1      43.180  -9.919  -1.484  1.00  0.00    -0.062 A 
HETATM   15  C   UNL     1      43.807  -8.563  -1.350  1.00  0.00     0.048 C 
HETATM   16  C   UNL     1      42.952 -10.460  -2.754  1.00  0.00     0.008 A 
HETATM   17  C   UNL     1      42.385 -11.729  -2.893  1.00  0.00     0.019 A 
ENDBRANCH  10  11
ENDBRANCH   9  10
ENDBRANCH   6   9
ENDBRANCH   1   5
BRANCH   2  18
HETATM   18  C   UNL     1      43.787 -18.186   2.626  1.00  0.00     0.103 A 
HETATM   19  N   UNL     1      43.790 -19.369   1.918  1.00  0.00    -0.351 N 
HETATM   20  H   UNL     1      43.569 -19.433   0.933  1.00  0.00     0.166 HD
HETATM   21  C   UNL     1      44.138 -20.428   2.722  1.00  0.00     0.043 A 
HETATM   22  C   UNL     1      44.356 -19.914   3.998  1.00  0.00    -0.007 A 
HETATM   23  C   UNL     1      44.277 -21.788   2.420  1.00  0.00     0.030 A 
HETATM   24  C   UNL     1      44.130 -18.512   3.929  1.00  0.00     0.049 A 
HETATM   25  C   UNL     1      44.730 -20.797   5.030  1.00  0.00     0.014 A 
HETATM   26  C   UNL     1      44.874 -22.159   4.746  1.00  0.00     0.001 A 
HETATM   27  C   UNL     1      44.650 -22.645   3.459  1.00  0.00     0.002 A 
ENDBRANCH   2  18
TORSDOF 5
ENDMDL
