MODEL 1
REMARK VINA RESULT:      -8.8      0.000      0.000
REMARK  6 active torsions:
REMARK  status: ('A' for Active; 'I' for Inactive)
REMARK    1  A    between atoms: C_2  and  C_3 
REMARK    2  A    between atoms: C_3  and  C_4 
REMARK    3  A    between atoms: C_3  and  C_10 
REMARK    4  A    between atoms: C_10  and  C_11 
REMARK       I    between atoms: C_11  and  N_12 
REMARK    5  A    between atoms: N_12  and  C_13 
REMARK    6  A    between atoms: C_15  and  C_16 
ROOT
HETATM    1  C   UNL     1      42.131 -16.818   3.871  1.00  0.00     0.223 C 
HETATM    2  N   UNL     1      41.028 -16.942   3.042  1.00  0.00    -0.327 N 
HETATM    3  O   UNL     1      42.794 -15.801   4.051  1.00  0.00    -0.273 OA
HETATM    4  H   UNL     1      40.475 -17.783   3.141  1.00  0.00     0.169 HD
ENDROOT
BRANCH   2   5
HETATM    5  C   UNL     1      40.546 -15.992   2.116  1.00  0.00     0.035 A 
HETATM    6  C   UNL     1      41.053 -15.842   0.820  1.00  0.00     0.042 A 
HETATM    7  C   UNL     1      40.513 -14.902  -0.076  1.00  0.00    -0.021 A 
HETATM    8  C   UNL     1      39.449 -14.102   0.363  1.00  0.00     0.012 A 
HETATM    9  C   UNL     1      38.934 -14.245   1.652  1.00  0.00     0.003 A 
HETATM   10  C   UNL     1      39.477 -15.189   2.523  1.00  0.00     0.029 A 
BRANCH   7  11
HETATM   11  C   UNL     1      41.053 -14.787  -1.428  1.00  0.00     0.010 A 
HETATM   12  C   UNL     1      40.880 -15.614  -2.569  1.00  0.00     0.152 A 
HETATM   13  N   UNL     1      41.536 -15.167  -3.644  1.00  0.00    -0.187 NA
HETATM   14  N   UNL     1      42.134 -14.053  -3.202  1.00  0.00    -0.289 N 
HETATM   15  H   UNL     1      42.703 -13.523  -3.854  1.00  0.00     0.188 HD
HETATM   16  C   UNL     1      41.878 -13.780  -1.889  1.00  0.00     0.123 A 
ENDBRANCH   7  11
ENDBRANCH   2   5
BRANCH   1  17
HETATM   17  C   UNL     1      42.467 -18.105   4.603  1.00  0.00     0.116 C 
BRANCH  17  18
HETATM   18  C   UNL     1      43.957 -18.474   4.461  1.00  0.00     0.049 C 
BRANCH  18  19
HETATM   19  C   UNL     1      44.777 -18.544   5.739  1.00  0.00    -0.027 C 
HETATM   20  C   UNL     1      45.059 -17.554   6.597  1.00  0.00     0.007 C 
ENDBRANCH  18  19
BRANCH  18  21
HETATM   21  C   UNL     1      44.084 -19.779   3.680  1.00  0.00    -0.050 A 
HETATM   22  C   UNL     1      43.644 -19.873   2.348  1.00  0.00     0.008 A 
HETATM   23  C   UNL     1      43.767 -21.070   1.642  1.00  0.00     0.001 A 
HETATM   24  C   UNL     1      44.334 -22.186   2.254  1.00  0.00     0.000 A 
HETATM   25  C   UNL     1      44.778 -22.107   3.572  1.00  0.00     0.001 A 
HETATM   26  C   UNL     1      44.653 -20.911   4.283  1.00  0.00     0.008 A 
ENDBRANCH  18  21
ENDBRANCH  17  18
ENDBRANCH   1  17
TORSDOF 6
ENDMDL
MODEL 2
REMARK VINA RESULT:      -8.2      2.090      3.597
REMARK  6 active torsions:
REMARK  status: ('A' for Active; 'I' for Inactive)
REMARK    1  A    between atoms: C_2  and  C_3 
REMARK    2  A    between atoms: C_3  and  C_4 
REMARK    3  A    between atoms: C_3  and  C_10 
REMARK    4  A    between atoms: C_10  and  C_11 
REMARK       I    between atoms: C_11  and  N_12 
REMARK    5  A    between atoms: N_12  and  C_13 
REMARK    6  A    between atoms: C_15  and  C_16 
ROOT
HETATM    1  C   UNL     1      42.466 -17.430   1.188  1.00  0.00     0.223 C 
HETATM    2  N   UNL     1      42.737 -16.289   0.452  1.00  0.00    -0.327 N 
HETATM    3  O   UNL     1      41.360 -17.924   1.381  1.00  0.00    -0.273 OA
HETATM    4  H   UNL     1      43.706 -16.112   0.223  1.00  0.00     0.169 HD
ENDROOT
BRANCH   2   5
HETATM    5  C   UNL     1      41.802 -15.372  -0.077  1.00  0.00     0.035 A 
HETATM    6  C   UNL     1      41.028 -15.622  -1.216  1.00  0.00     0.042 A 
HETATM    7  C   UNL     1      40.085 -14.688  -1.683  1.00  0.00    -0.021 A 
HETATM    8  C   UNL     1      39.941 -13.484  -0.979  1.00  0.00     0.012 A 
HETATM    9  C   UNL     1      40.705 -13.226   0.159  1.00  0.00     0.003 A 
HETATM   10  C   UNL     1      41.628 -14.168   0.611  1.00  0.00     0.029 A 
BRANCH   7  11
HETATM   11  C   UNL     1      39.279 -14.989  -2.862  1.00  0.00     0.010 A 
HETATM   12  C   UNL     1      39.369 -16.051  -3.800  1.00  0.00     0.152 A 
HETATM   13  N   UNL     1      38.431 -15.992  -4.750  1.00  0.00    -0.187 NA
HETATM   14  N   UNL     1      37.735 -14.893  -4.432  1.00  0.00    -0.289 N 
HETATM   15  H   UNL     1      36.952 -14.633  -5.021  1.00  0.00     0.188 HD
HETATM   16  C   UNL     1      38.198 -14.259  -3.314  1.00  0.00     0.123 A 
ENDBRANCH   7  11
ENDBRANCH   2   5
BRANCH   1  17
HETATM   17  C   UNL     1      43.717 -18.079   1.752  1.00  0.00     0.116 C 
BRANCH  17  18
HETATM   18  C   UNL     1      43.381 -19.272   2.670  1.00  0.00     0.049 C 
BRANCH  18  19
HETATM   19  C   UNL     1      44.151 -20.561   2.439  1.00  0.00    -0.027 C 
HETATM   20  C   UNL     1      43.765 -21.644   1.751  1.00  0.00     0.007 C 
ENDBRANCH  18  19
BRANCH  18  21
HETATM   21  C   UNL     1      43.501 -18.838   4.129  1.00  0.00    -0.050 A 
HETATM   22  C   UNL     1      44.685 -19.053   4.855  1.00  0.00     0.008 A 
HETATM   23  C   UNL     1      44.784 -18.651   6.188  1.00  0.00     0.001 A 
HETATM   24  C   UNL     1      43.706 -18.025   6.809  1.00  0.00     0.000 A 
HETATM   25  C   UNL     1      42.527 -17.802   6.102  1.00  0.00     0.001 A 
HETATM   26  C   UNL     1      42.424 -18.206   4.768  1.00  0.00     0.008 A 
ENDBRANCH  18  21
ENDBRANCH  17  18
ENDBRANCH   1  17
TORSDOF 6
ENDMDL
MODEL 3
REMARK VINA RESULT:      -7.9      1.465      2.061
REMARK  6 active torsions:
REMARK  status: ('A' for Active; 'I' for Inactive)
REMARK    1  A    between atoms: C_2  and  C_3 
REMARK    2  A    between atoms: C_3  and  C_4 
REMARK    3  A    between atoms: C_3  and  C_10 
REMARK    4  A    between atoms: C_10  and  C_11 
REMARK       I    between atoms: C_11  and  N_12 
REMARK    5  A    between atoms: N_12  and  C_13 
REMARK    6  A    between atoms: C_15  and  C_16 
ROOT
HETATM    1  C   UNL     1      43.017 -16.429   2.076  1.00  0.00     0.223 C 
HETATM    2  N   UNL     1      41.830 -16.708   1.420  1.00  0.00    -0.327 N 
HETATM    3  O   UNL     1      43.350 -15.346   2.549  1.00  0.00    -0.273 OA
HETATM    4  H   UNL     1      41.617 -17.683   1.257  1.00  0.00     0.169 HD
ENDROOT
BRANCH   2   5
HETATM    5  C   UNL     1      40.844 -15.784   1.011  1.00  0.00     0.035 A 
HETATM    6  C   UNL     1      40.872 -15.110  -0.216  1.00  0.00     0.042 A 
HETATM    7  C   UNL     1      39.846 -14.224  -0.591  1.00  0.00    -0.021 A 
HETATM    8  C   UNL     1      38.786 -14.021   0.303  1.00  0.00     0.012 A 
HETATM    9  C   UNL     1      38.746 -14.689   1.527  1.00  0.00     0.003 A 
HETATM   10  C   UNL     1      39.769 -15.570   1.877  1.00  0.00     0.029 A 
BRANCH   7  11
HETATM   11  C   UNL     1      39.896 -13.554  -1.887  1.00  0.00     0.010 A 
HETATM   12  C   UNL     1      41.002 -13.175  -2.693  1.00  0.00     0.152 A 
HETATM   13  N   UNL     1      40.640 -12.584  -3.835  1.00  0.00    -0.187 NA
HETATM   14  N   UNL     1      39.301 -12.578  -3.772  1.00  0.00    -0.289 N 
HETATM   15  H   UNL     1      38.786 -12.171  -4.544  1.00  0.00     0.188 HD
HETATM   16  C   UNL     1      38.808 -13.146  -2.632  1.00  0.00     0.123 A 
ENDBRANCH   7  11
ENDBRANCH   2   5
BRANCH   1  17
HETATM   17  C   UNL     1      43.924 -17.641   2.198  1.00  0.00     0.116 C 
BRANCH  17  18
HETATM   18  C   UNL     1      43.821 -18.298   3.589  1.00  0.00     0.049 C 
BRANCH  18  19
HETATM   19  C   UNL     1      42.533 -18.077   4.365  1.00  0.00    -0.027 C 
HETATM   20  C   UNL     1      42.388 -17.818   5.671  1.00  0.00     0.007 C 
ENDBRANCH  18  19
BRANCH  18  21
HETATM   21  C   UNL     1      44.116 -19.791   3.467  1.00  0.00    -0.050 A 
HETATM   22  C   UNL     1      44.597 -20.527   4.563  1.00  0.00     0.008 A 
HETATM   23  C   UNL     1      44.862 -21.892   4.441  1.00  0.00     0.001 A 
HETATM   24  C   UNL     1      44.646 -22.538   3.227  1.00  0.00     0.000 A 
HETATM   25  C   UNL     1      44.166 -21.823   2.133  1.00  0.00     0.001 A 
HETATM   26  C   UNL     1      43.903 -20.456   2.250  1.00  0.00     0.008 A 
ENDBRANCH  18  21
ENDBRANCH  17  18
ENDBRANCH   1  17
TORSDOF 6
ENDMDL
MODEL 4
REMARK VINA RESULT:      -7.9      2.525      4.158
REMARK  6 active torsions:
REMARK  status: ('A' for Active; 'I' for Inactive)
REMARK    1  A    between atoms: C_2  and  C_3 
REMARK    2  A    between atoms: C_3  and  C_4 
REMARK    3  A    between atoms: C_3  and  C_10 
REMARK    4  A    between atoms: C_10  and  C_11 
REMARK       I    between atoms: C_11  and  N_12 
REMARK    5  A    between atoms: N_12  and  C_13 
REMARK    6  A    between atoms: C_15  and  C_16 
ROOT
HETATM    1  C   UNL     1      42.200 -17.103   0.906  1.00  0.00     0.223 C 
HETATM    2  N   UNL     1      42.249 -15.749   0.618  1.00  0.00    -0.327 N 
HETATM    3  O   UNL     1      41.186 -17.788   1.010  1.00  0.00    -0.273 OA
HETATM    4  H   UNL     1      43.154 -15.366   0.378  1.00  0.00     0.169 HD
ENDROOT
BRANCH   2   5
HETATM    5  C   UNL     1      41.162 -14.851   0.553  1.00  0.00     0.035 A 
HETATM    6  C   UNL     1      40.668 -14.148   1.659  1.00  0.00     0.042 A 
HETATM    7  C   UNL     1      39.603 -13.237   1.534  1.00  0.00    -0.021 A 
HETATM    8  C   UNL     1      39.035 -13.052   0.267  1.00  0.00     0.012 A 
HETATM    9  C   UNL     1      39.520 -13.745  -0.843  1.00  0.00     0.003 A 
HETATM   10  C   UNL     1      40.583 -14.637  -0.700  1.00  0.00     0.029 A 
BRANCH   7  11
HETATM   11  C   UNL     1      39.127 -12.505   2.704  1.00  0.00     0.010 A 
HETATM   12  C   UNL     1      39.404 -12.683   4.085  1.00  0.00     0.152 A 
HETATM   13  N   UNL     1      38.779 -11.794   4.863  1.00  0.00    -0.187 NA
HETATM   14  N   UNL     1      38.096 -11.042   3.990  1.00  0.00    -0.289 N 
HETATM   15  H   UNL     1      37.531 -10.282   4.351  1.00  0.00     0.188 HD
HETATM   16  C   UNL     1      38.270 -11.423   2.690  1.00  0.00     0.123 A 
ENDBRANCH   7  11
ENDBRANCH   2   5
BRANCH   1  17
HETATM   17  C   UNL     1      43.576 -17.722   1.072  1.00  0.00     0.116 C 
BRANCH  17  18
HETATM   18  C   UNL     1      43.905 -18.006   2.551  1.00  0.00     0.049 C 
BRANCH  18  19
HETATM   19  C   UNL     1      42.946 -17.451   3.592  1.00  0.00    -0.027 C 
HETATM   20  C   UNL     1      43.233 -16.704   4.666  1.00  0.00     0.007 C 
ENDBRANCH  18  19
BRANCH  18  21
HETATM   21  C   UNL     1      44.090 -19.508   2.750  1.00  0.00    -0.050 A 
HETATM   22  C   UNL     1      44.653 -20.020   3.931  1.00  0.00     0.008 A 
HETATM   23  C   UNL     1      44.816 -21.395   4.103  1.00  0.00     0.001 A 
HETATM   24  C   UNL     1      44.415 -22.275   3.102  1.00  0.00     0.000 A 
HETATM   25  C   UNL     1      43.852 -21.784   1.927  1.00  0.00     0.001 A 
HETATM   26  C   UNL     1      43.690 -20.407   1.750  1.00  0.00     0.008 A 
ENDBRANCH  18  21
ENDBRANCH  17  18
ENDBRANCH   1  17
TORSDOF 6
ENDMDL
MODEL 5
REMARK VINA RESULT:      -7.8      1.480      1.938
REMARK  6 active torsions:
REMARK  status: ('A' for Active; 'I' for Inactive)
REMARK    1  A    between atoms: C_2  and  C_3 
REMARK    2  A    between atoms: C_3  and  C_4 
REMARK    3  A    between atoms: C_3  and  C_10 
REMARK    4  A    between atoms: C_10  and  C_11 
REMARK       I    between atoms: C_11  and  N_12 
REMARK    5  A    between atoms: N_12  and  C_13 
REMARK    6  A    between atoms: C_15  and  C_16 
ROOT
HETATM    1  C   UNL     1      42.412 -16.544   4.247  1.00  0.00     0.223 C 
HETATM    2  N   UNL     1      41.063 -16.230   4.225  1.00  0.00    -0.327 N 
HETATM    3  O   UNL     1      43.327 -15.845   3.823  1.00  0.00    -0.273 OA
HETATM    4  H   UNL     1      40.450 -16.815   4.778  1.00  0.00     0.169 HD
ENDROOT
BRANCH   2   5
HETATM    5  C   UNL     1      40.450 -15.141   3.569  1.00  0.00     0.035 A 
HETATM    6  C   UNL     1      40.107 -15.144   2.212  1.00  0.00     0.042 A 
HETATM    7  C   UNL     1      39.467 -14.043   1.614  1.00  0.00    -0.021 A 
HETATM    8  C   UNL     1      39.183 -12.927   2.413  1.00  0.00     0.012 A 
HETATM    9  C   UNL     1      39.518 -12.914   3.767  1.00  0.00     0.003 A 
HETATM   10  C   UNL     1      40.145 -14.018   4.343  1.00  0.00     0.029 A 
BRANCH   7  11
HETATM   11  C   UNL     1      39.104 -14.088   0.201  1.00  0.00     0.010 A 
HETATM   12  C   UNL     1      37.902 -13.724  -0.460  1.00  0.00     0.152 A 
HETATM   13  N   UNL     1      37.957 -13.899  -1.784  1.00  0.00    -0.187 NA
HETATM   14  N   UNL     1      39.192 -14.379  -1.982  1.00  0.00    -0.289 N 
HETATM   15  H   UNL     1      39.476 -14.595  -2.931  1.00  0.00     0.188 HD
HETATM   16  C   UNL     1      39.918 -14.509  -0.833  1.00  0.00     0.123 A 
ENDBRANCH   7  11
ENDBRANCH   2   5
BRANCH   1  17
HETATM   17  C   UNL     1      42.696 -17.887   4.894  1.00  0.00     0.116 C 
BRANCH  17  18
HETATM   18  C   UNL     1      44.154 -18.336   4.672  1.00  0.00     0.049 C 
BRANCH  18  19
HETATM   19  C   UNL     1      45.028 -18.487   5.906  1.00  0.00    -0.027 C 
HETATM   20  C   UNL     1      44.674 -18.357   7.192  1.00  0.00     0.007 C 
ENDBRANCH  18  19
BRANCH  18  21
HETATM   21  C   UNL     1      44.169 -19.623   3.852  1.00  0.00    -0.050 A 
HETATM   22  C   UNL     1      43.651 -19.659   2.546  1.00  0.00     0.008 A 
HETATM   23  C   UNL     1      43.671 -20.841   1.806  1.00  0.00     0.001 A 
HETATM   24  C   UNL     1      44.212 -22.000   2.357  1.00  0.00     0.000 A 
HETATM   25  C   UNL     1      44.732 -21.980   3.649  1.00  0.00     0.001 A 
HETATM   26  C   UNL     1      44.711 -20.799   4.394  1.00  0.00     0.008 A 
ENDBRANCH  18  21
ENDBRANCH  17  18
ENDBRANCH   1  17
TORSDOF 6
ENDMDL
MODEL 6
REMARK VINA RESULT:      -7.7      1.692      2.507
REMARK  6 active torsions:
REMARK  status: ('A' for Active; 'I' for Inactive)
REMARK    1  A    between atoms: C_2  and  C_3 
REMARK    2  A    between atoms: C_3  and  C_4 
REMARK    3  A    between atoms: C_3  and  C_10 
REMARK    4  A    between atoms: C_10  and  C_11 
REMARK       I    between atoms: C_11  and  N_12 
REMARK    5  A    between atoms: N_12  and  C_13 
REMARK    6  A    between atoms: C_15  and  C_16 
ROOT
HETATM    1  C   UNL     1      40.671 -15.140   3.878  1.00  0.00     0.223 C 
HETATM    2  N   UNL     1      40.017 -15.677   2.781  1.00  0.00    -0.327 N 
HETATM    3  O   UNL     1      40.891 -13.950   4.082  1.00  0.00    -0.273 OA
HETATM    4  H   UNL     1      39.744 -16.649   2.843  1.00  0.00     0.169 HD
ENDROOT
BRANCH   2   5
HETATM    5  C   UNL     1      39.626 -15.000   1.606  1.00  0.00     0.035 A 
HETATM    6  C   UNL     1      40.506 -14.679   0.565  1.00  0.00     0.042 A 
HETATM    7  C   UNL     1      40.058 -14.034  -0.602  1.00  0.00    -0.021 A 
HETATM    8  C   UNL     1      38.699 -13.707  -0.699  1.00  0.00     0.012 A 
HETATM    9  C   UNL     1      37.812 -14.025   0.331  1.00  0.00     0.003 A 
HETATM   10  C   UNL     1      38.274 -14.673   1.476  1.00  0.00     0.029 A 
BRANCH   7  11
HETATM   11  C   UNL     1      40.998 -13.733  -1.678  1.00  0.00     0.010 A 
HETATM   12  C   UNL     1      42.190 -12.961  -1.678  1.00  0.00     0.152 A 
HETATM   13  N   UNL     1      42.792 -12.928  -2.871  1.00  0.00    -0.187 NA
HETATM   14  N   UNL     1      41.992 -13.674  -3.644  1.00  0.00    -0.289 N 
HETATM   15  H   UNL     1      42.247 -13.800  -4.617  1.00  0.00     0.188 HD
HETATM   16  C   UNL     1      40.910 -14.179  -2.981  1.00  0.00     0.123 A 
ENDBRANCH   7  11
ENDBRANCH   2   5
BRANCH   1  17
HETATM   17  C   UNL     1      41.101 -16.193   4.884  1.00  0.00     0.116 C 
BRANCH  17  18
HETATM   18  C   UNL     1      42.633 -16.356   4.926  1.00  0.00     0.049 C 
BRANCH  18  19
HETATM   19  C   UNL     1      43.236 -16.894   6.213  1.00  0.00    -0.027 C 
HETATM   20  C   UNL     1      42.599 -17.309   7.316  1.00  0.00     0.007 C 
ENDBRANCH  18  19
BRANCH  18  21
HETATM   21  C   UNL     1      43.087 -17.199   3.737  1.00  0.00    -0.050 A 
HETATM   22  C   UNL     1      42.998 -18.601   3.765  1.00  0.00     0.008 A 
HETATM   23  C   UNL     1      43.415 -19.361   2.671  1.00  0.00     0.001 A 
HETATM   24  C   UNL     1      43.919 -18.732   1.536  1.00  0.00     0.000 A 
HETATM   25  C   UNL     1      44.009 -17.343   1.492  1.00  0.00     0.001 A 
HETATM   26  C   UNL     1      43.596 -16.579   2.586  1.00  0.00     0.008 A 
ENDBRANCH  18  21
ENDBRANCH  17  18
ENDBRANCH   1  17
TORSDOF 6
ENDMDL
MODEL 7
REMARK VINA RESULT:      -7.6      2.515      4.401
REMARK  6 active torsions:
REMARK  status: ('A' for Active; 'I' for Inactive)
REMARK    1  A    between atoms: C_2  and  C_3 
REMARK    2  A    between atoms: C_3  and  C_4 
REMARK    3  A    between atoms: C_3  and  C_10 
REMARK    4  A    between atoms: C_10  and  C_11 
REMARK       I    between atoms: C_11  and  N_12 
REMARK    5  A    between atoms: N_12  and  C_13 
REMARK    6  A    between atoms: C_15  and  C_16 
ROOT
HETATM    1  C   UNL     1      42.103 -17.394   1.021  1.00  0.00     0.223 C 
HETATM    2  N   UNL     1      42.257 -16.263   0.236  1.00  0.00    -0.327 N 
HETATM    3  O   UNL     1      41.056 -18.002   1.222  1.00  0.00    -0.273 OA
HETATM    4  H   UNL     1      43.204 -15.989   0.013  1.00  0.00     0.169 HD
ENDROOT
BRANCH   2   5
HETATM    5  C   UNL     1      41.235 -15.483  -0.347  1.00  0.00     0.035 A 
HETATM    6  C   UNL     1      40.416 -14.609   0.377  1.00  0.00     0.042 A 
HETATM    7  C   UNL     1      39.433 -13.828  -0.258  1.00  0.00    -0.021 A 
HETATM    8  C   UNL     1      39.284 -13.951  -1.646  1.00  0.00     0.012 A 
HETATM    9  C   UNL     1      40.096 -14.818  -2.378  1.00  0.00     0.003 A 
HETATM   10  C   UNL     1      41.071 -15.577  -1.731  1.00  0.00     0.029 A 
BRANCH   7  11
HETATM   11  C   UNL     1      38.610 -12.910   0.524  1.00  0.00     0.010 A 
HETATM   12  C   UNL     1      38.966 -11.772   1.294  1.00  0.00     0.152 A 
HETATM   13  N   UNL     1      37.915 -11.174   1.863  1.00  0.00    -0.187 NA
HETATM   14  N   UNL     1      36.879 -11.924   1.466  1.00  0.00    -0.289 N 
HETATM   15  H   UNL     1      35.950 -11.662   1.777  1.00  0.00     0.188 HD
HETATM   16  C   UNL     1      37.238 -12.970   0.665  1.00  0.00     0.123 A 
ENDBRANCH   7  11
ENDBRANCH   2   5
BRANCH   1  17
HETATM   17  C   UNL     1      43.408 -17.872   1.632  1.00  0.00     0.116 C 
BRANCH  17  18
HETATM   18  C   UNL     1      43.208 -19.126   2.507  1.00  0.00     0.049 C 
BRANCH  18  19
HETATM   19  C   UNL     1      44.069 -20.337   2.187  1.00  0.00    -0.027 C 
HETATM   20  C   UNL     1      43.675 -21.539   1.747  1.00  0.00     0.007 C 
ENDBRANCH  18  19
BRANCH  18  21
HETATM   21  C   UNL     1      43.355 -18.746   3.978  1.00  0.00    -0.050 A 
HETATM   22  C   UNL     1      44.536 -19.025   4.685  1.00  0.00     0.008 A 
HETATM   23  C   UNL     1      44.660 -18.672   6.030  1.00  0.00     0.001 A 
HETATM   24  C   UNL     1      43.609 -18.034   6.682  1.00  0.00     0.000 A 
HETATM   25  C   UNL     1      42.432 -17.747   5.994  1.00  0.00     0.001 A 
HETATM   26  C   UNL     1      42.304 -18.102   4.649  1.00  0.00     0.008 A 
ENDBRANCH  18  21
ENDBRANCH  17  18
ENDBRANCH   1  17
TORSDOF 6
ENDMDL
MODEL 8
REMARK VINA RESULT:      -7.6      3.443      5.489
REMARK  6 active torsions:
REMARK  status: ('A' for Active; 'I' for Inactive)
REMARK    1  A    between atoms: C_2  and  C_3 
REMARK    2  A    between atoms: C_3  and  C_4 
REMARK    3  A    between atoms: C_3  and  C_10 
REMARK    4  A    between atoms: C_10  and  C_11 
REMARK       I    between atoms: C_11  and  N_12 
REMARK    5  A    between atoms: N_12  and  C_13 
REMARK    6  A    between atoms: C_15  and  C_16 
ROOT
HETATM    1  C   UNL     1      42.699 -16.455   4.707  1.00  0.00     0.223 C 
HETATM    2  N   UNL     1      41.363 -16.270   4.394  1.00  0.00    -0.327 N 
HETATM    3  O   UNL     1      43.491 -15.586   5.060  1.00  0.00    -0.273 OA
HETATM    4  H   UNL     1      40.795 -17.102   4.306  1.00  0.00     0.169 HD
ENDROOT
BRANCH   2   5
HETATM    5  C   UNL     1      40.684 -15.041   4.247  1.00  0.00     0.035 A 
HETATM    6  C   UNL     1      40.448 -14.153   5.303  1.00  0.00     0.042 A 
HETATM    7  C   UNL     1      39.795 -12.924   5.098  1.00  0.00    -0.021 A 
HETATM    8  C   UNL     1      39.372 -12.607   3.799  1.00  0.00     0.012 A 
HETATM    9  C   UNL     1      39.604 -13.484   2.739  1.00  0.00     0.003 A 
HETATM   10  C   UNL     1      40.261 -14.693   2.962  1.00  0.00     0.029 A 
BRANCH   7  11
HETATM   11  C   UNL     1      39.584 -12.012   6.217  1.00  0.00     0.010 A 
HETATM   12  C   UNL     1      39.284 -12.270   7.580  1.00  0.00     0.152 A 
HETATM   13  N   UNL     1      39.175 -11.158   8.313  1.00  0.00    -0.187 NA
HETATM   14  N   UNL     1      39.402 -10.179   7.428  1.00  0.00    -0.289 N 
HETATM   15  H   UNL     1      39.373  -9.220   7.756  1.00  0.00     0.188 HD
HETATM   16  C   UNL     1      39.653 -10.633   6.165  1.00  0.00     0.123 A 
ENDBRANCH   7  11
ENDBRANCH   2   5
BRANCH   1  17
HETATM   17  C   UNL     1      43.135 -17.906   4.601  1.00  0.00     0.116 C 
BRANCH  17  18
HETATM   18  C   UNL     1      43.171 -18.389   3.138  1.00  0.00     0.049 C 
BRANCH  18  19
HETATM   19  C   UNL     1      43.912 -17.516   2.138  1.00  0.00    -0.027 C 
HETATM   20  C   UNL     1      43.478 -17.058   0.957  1.00  0.00     0.007 C 
ENDBRANCH  18  19
BRANCH  18  21
HETATM   21  C   UNL     1      43.705 -19.818   3.089  1.00  0.00    -0.050 A 
HETATM   22  C   UNL     1      44.350 -20.391   4.198  1.00  0.00     0.008 A 
HETATM   23  C   UNL     1      44.832 -21.699   4.142  1.00  0.00     0.001 A 
HETATM   24  C   UNL     1      44.672 -22.453   2.982  1.00  0.00     0.000 A 
HETATM   25  C   UNL     1      44.031 -21.901   1.876  1.00  0.00     0.001 A 
HETATM   26  C   UNL     1      43.550 -20.590   1.927  1.00  0.00     0.008 A 
ENDBRANCH  18  21
ENDBRANCH  17  18
ENDBRANCH   1  17
TORSDOF 6
ENDMDL
MODEL 9
REMARK VINA RESULT:      -7.5      2.903      6.992
REMARK  6 active torsions:
REMARK  status: ('A' for Active; 'I' for Inactive)
REMARK    1  A    between atoms: C_2  and  C_3 
REMARK    2  A    between atoms: C_3  and  C_4 
REMARK    3  A    between atoms: C_3  and  C_10 
REMARK    4  A    between atoms: C_10  and  C_11 
REMARK       I    between atoms: C_11  and  N_12 
REMARK    5  A    between atoms: N_12  and  C_13 
REMARK    6  A    between atoms: C_15  and  C_16 
ROOT
HETATM    1  C   UNL     1      40.988 -15.024   4.986  1.00  0.00     0.223 C 
HETATM    2  N   UNL     1      42.316 -15.238   4.656  1.00  0.00    -0.327 N 
HETATM    3  O   UNL     1      40.350 -15.616   5.852  1.00  0.00    -0.273 OA
HETATM    4  H   UNL     1      42.754 -14.549   4.059  1.00  0.00     0.169 HD
ENDROOT
BRANCH   2   5
HETATM    5  C   UNL     1      43.153 -16.278   5.116  1.00  0.00     0.035 A 
HETATM    6  C   UNL     1      43.316 -17.497   4.448  1.00  0.00     0.042 A 
HETATM    7  C   UNL     1      44.189 -18.488   4.931  1.00  0.00    -0.021 A 
HETATM    8  C   UNL     1      44.895 -18.230   6.114  1.00  0.00     0.012 A 
HETATM    9  C   UNL     1      44.743 -17.017   6.787  1.00  0.00     0.003 A 
HETATM   10  C   UNL     1      43.879 -16.044   6.287  1.00  0.00     0.029 A 
BRANCH   7  11
HETATM   11  C   UNL     1      44.351 -19.740   4.199  1.00  0.00     0.010 A 
HETATM   12  C   UNL     1      44.667 -21.047   4.654  1.00  0.00     0.152 A 
HETATM   13  N   UNL     1      44.715 -21.949   3.669  1.00  0.00    -0.187 NA
HETATM   14  N   UNL     1      44.433 -21.228   2.575  1.00  0.00    -0.289 N 
HETATM   15  H   UNL     1      44.410 -21.705   1.680  1.00  0.00     0.188 HD
HETATM   16  C   UNL     1      44.206 -19.907   2.836  1.00  0.00     0.123 A 
ENDBRANCH   7  11
ENDBRANCH   2   5
BRANCH   1  17
HETATM   17  C   UNL     1      40.346 -13.920   4.165  1.00  0.00     0.116 C 
BRANCH  17  18
HETATM   18  C   UNL     1      39.525 -14.483   2.987  1.00  0.00     0.049 C 
BRANCH  18  19
HETATM   19  C   UNL     1      38.800 -13.479   2.106  1.00  0.00    -0.027 C 
HETATM   20  C   UNL     1      38.045 -13.719   1.026  1.00  0.00     0.007 C 
ENDBRANCH  18  19
BRANCH  18  21
HETATM   21  C   UNL     1      40.414 -15.388   2.137  1.00  0.00    -0.050 A 
HETATM   22  C   UNL     1      40.207 -16.778   2.096  1.00  0.00     0.008 A 
HETATM   23  C   UNL     1      41.024 -17.595   1.314  1.00  0.00     0.001 A 
HETATM   24  C   UNL     1      42.053 -17.035   0.561  1.00  0.00     0.000 A 
HETATM   25  C   UNL     1      42.269 -15.660   0.588  1.00  0.00     0.001 A 
HETATM   26  C   UNL     1      41.454 -14.839   1.373  1.00  0.00     0.008 A 
ENDBRANCH  18  21
ENDBRANCH  17  18
ENDBRANCH   1  17
TORSDOF 6
ENDMDL
MODEL 10
REMARK VINA RESULT:      -7.4      1.848      2.775
REMARK  6 active torsions:
REMARK  status: ('A' for Active; 'I' for Inactive)
REMARK    1  A    between atoms: C_2  and  C_3 
REMARK    2  A    between atoms: C_3  and  C_4 
REMARK    3  A    between atoms: C_3  and  C_10 
REMARK    4  A    between atoms: C_10  and  C_11 
REMARK       I    between atoms: C_11  and  N_12 
REMARK    5  A    between atoms: N_12  and  C_13 
REMARK    6  A    between atoms: C_15  and  C_16 
ROOT
HETATM    1  C   UNL     1      42.909 -16.228   4.245  1.00  0.00     0.223 C 
HETATM    2  N   UNL     1      41.569 -16.206   3.897  1.00  0.00    -0.327 N 
HETATM    3  O   UNL     1      43.631 -15.250   4.417  1.00  0.00    -0.273 OA
HETATM    4  H   UNL     1      41.063 -17.079   3.977  1.00  0.00     0.169 HD
ENDROOT
BRANCH   2   5
HETATM    5  C   UNL     1      40.807 -15.085   3.503  1.00  0.00     0.035 A 
HETATM    6  C   UNL     1      40.400 -14.845   2.186  1.00  0.00     0.042 A 
HETATM    7  C   UNL     1      39.612 -13.729   1.852  1.00  0.00    -0.021 A 
HETATM    8  C   UNL     1      39.245 -12.846   2.877  1.00  0.00     0.012 A 
HETATM    9  C   UNL     1      39.643 -13.077   4.195  1.00  0.00     0.003 A 
HETATM   10  C   UNL     1      40.417 -14.194   4.506  1.00  0.00     0.029 A 
BRANCH   7  11
HETATM   11  C   UNL     1      39.187 -13.520   0.471  1.00  0.00     0.010 A 
HETATM   12  C   UNL     1      37.958 -13.812  -0.175  1.00  0.00     0.152 A 
HETATM   13  N   UNL     1      37.946 -13.459  -1.464  1.00  0.00    -0.187 NA
HETATM   14  N   UNL     1      39.166 -12.940  -1.655  1.00  0.00    -0.289 N 
HETATM   15  H   UNL     1      39.401 -12.594  -2.579  1.00  0.00     0.188 HD
HETATM   16  C   UNL     1      39.945 -12.951  -0.534  1.00  0.00     0.123 A 
ENDBRANCH   7  11
ENDBRANCH   2   5
BRANCH   1  17
HETATM   17  C   UNL     1      43.448 -17.634   4.435  1.00  0.00     0.116 C 
BRANCH  17  18
HETATM   18  C   UNL     1      43.401 -18.449   3.127  1.00  0.00     0.049 C 
BRANCH  18  19
HETATM   19  C   UNL     1      44.098 -17.853   1.915  1.00  0.00    -0.027 C 
HETATM   20  C   UNL     1      43.548 -17.436   0.767  1.00  0.00     0.007 C 
ENDBRANCH  18  19
BRANCH  18  21
HETATM   21  C   UNL     1      43.916 -19.862   3.391  1.00  0.00    -0.050 A 
HETATM   22  C   UNL     1      44.401 -20.233   4.656  1.00  0.00     0.008 A 
HETATM   23  C   UNL     1      44.868 -21.528   4.887  1.00  0.00     0.001 A 
HETATM   24  C   UNL     1      44.851 -22.468   3.859  1.00  0.00     0.000 A 
HETATM   25  C   UNL     1      44.369 -22.116   2.601  1.00  0.00     0.001 A 
HETATM   26  C   UNL     1      43.905 -20.820   2.366  1.00  0.00     0.008 A 
ENDBRANCH  18  21
ENDBRANCH  17  18
ENDBRANCH   1  17
TORSDOF 6
ENDMDL
