MODEL 1
REMARK VINA RESULT:      -7.8      0.000      0.000
REMARK  6 active torsions:
REMARK  status: ('A' for Active; 'I' for Inactive)
REMARK    1  A    between atoms: C_2  and  O_3 
REMARK    2  A    between atoms: O_3  and  C_4 
REMARK    3  A    between atoms: C_4  and  C_5 
REMARK    4  A    between atoms: C_6  and  O_7 
REMARK    5  A    between atoms: C_12  and  O_13 
REMARK    6  A    between atoms: C_17  and  C_18 
ROOT
HETATM    1  C   UNL     1      42.627 -15.853   4.604  1.00  0.00     0.133 C 
HETATM    2  C   UNL     1      41.073 -15.992   4.713  1.00  0.00     0.073 C 
HETATM    3  C   UNL     1      40.489 -15.139   5.850  1.00  0.00     0.047 C 
HETATM    4  C   UNL     1      40.303 -15.703   3.390  1.00  0.00     0.097 C 
HETATM    5  C   UNL     1      41.078 -16.193   2.221  1.00  0.00     0.042 A 
HETATM    6  C   UNL     1      42.402 -16.579   2.191  1.00  0.00     0.030 A 
HETATM    7  C   UNL     1      42.610 -16.919   0.846  1.00  0.00     0.190 A 
HETATM    8  N   UNL     1      41.535 -16.760   0.084  1.00  0.00    -0.149 NA
HETATM    9  N   UNL     1      40.601 -16.330   0.949  1.00  0.00    -0.279 N 
HETATM   10  H   UNL     1      39.667 -16.144   0.597  1.00  0.00     0.189 HD
HETATM   11  C   UNL     1      43.294 -16.548   3.384  1.00  0.00     0.075 C 
ENDROOT
BRANCH  11  12
HETATM   12  C   UNL     1      43.744 -17.976   3.670  1.00  0.00    -0.045 A 
HETATM   13  C   UNL     1      43.621 -18.935   2.647  1.00  0.00     0.050 A 
HETATM   14  C   UNL     1      44.035 -20.248   2.856  1.00  0.00     0.117 A 
HETATM   15  F   UNL     1      43.901 -21.142   1.868  1.00  0.00    -0.206 F 
HETATM   16  C   UNL     1      44.584 -20.644   4.067  1.00  0.00     0.042 A 
HETATM   17  C   UNL     1      44.726 -19.708   5.087  1.00  0.00     0.004 A 
HETATM   18  C   UNL     1      44.315 -18.386   4.889  1.00  0.00     0.008 A 
ENDBRANCH  11  12
BRANCH   1  19
HETATM   19  C   UNL     1      43.120 -14.419   4.609  1.00  0.00     0.267 C 
HETATM   20  O   UNL     1      43.174 -13.743   3.589  1.00  0.00    -0.265 OA
BRANCH  19  21
HETATM   21  O   UNL     1      43.406 -13.976   5.856  1.00  0.00    -0.316 OA
BRANCH  21  22
HETATM   22  C   UNL     1      44.467 -14.584   6.626  1.00  0.00     0.123 C 
HETATM   23  C   UNL     1      43.953 -15.729   7.491  1.00  0.00     0.040 C 
HETATM   24  C   UNL     1      45.282 -13.559   7.405  1.00  0.00     0.040 C 
ENDBRANCH  21  22
ENDBRANCH  19  21
ENDBRANCH   1  19
BRANCH   2  25
HETATM   25  O   UNL     1      40.762 -17.356   5.079  1.00  0.00    -0.389 OA
HETATM   26  H   UNL     1      39.904 -17.598   4.687  1.00  0.00     0.210 HD
ENDBRANCH   2  25
BRANCH   7  27
HETATM   27  O   UNL     1      43.708 -17.379   0.245  1.00  0.00    -0.343 OA
HETATM   28  H   UNL     1      44.291 -16.637   0.028  1.00  0.00     0.219 HD
ENDBRANCH   7  27
TORSDOF 6
ENDMDL
MODEL 2
REMARK VINA RESULT:      -7.8      1.444      1.904
REMARK  6 active torsions:
REMARK  status: ('A' for Active; 'I' for Inactive)
REMARK    1  A    between atoms: C_2  and  O_3 
REMARK    2  A    between atoms: O_3  and  C_4 
REMARK    3  A    between atoms: C_4  and  C_5 
REMARK    4  A    between atoms: C_6  and  O_7 
REMARK    5  A    between atoms: C_12  and  O_13 
REMARK    6  A    between atoms: C_17  and  C_18 
ROOT
HETATM    1  C   UNL     1      42.734 -17.081   4.700  1.00  0.00     0.133 C 
HETATM    2  C   UNL     1      41.172 -17.051   4.782  1.00  0.00     0.073 C 
HETATM    3  C   UNL     1      40.669 -16.527   6.136  1.00  0.00     0.047 C 
HETATM    4  C   UNL     1      40.479 -16.271   3.625  1.00  0.00     0.097 C 
HETATM    5  C   UNL     1      41.218 -16.466   2.352  1.00  0.00     0.042 A 
HETATM    6  C   UNL     1      42.484 -16.987   2.185  1.00  0.00     0.030 A 
HETATM    7  C   UNL     1      42.684 -16.915   0.798  1.00  0.00     0.190 A 
HETATM    8  N   UNL     1      41.657 -16.393   0.138  1.00  0.00    -0.149 NA
HETATM    9  N   UNL     1      40.760 -16.139   1.107  1.00  0.00    -0.279 N 
HETATM   10  H   UNL     1      39.867 -15.738   0.843  1.00  0.00     0.189 HD
HETATM   11  C   UNL     1      43.342 -17.440   3.315  1.00  0.00     0.075 C 
ENDROOT
BRANCH  11  12
HETATM   12  C   UNL     1      43.603 -18.931   3.136  1.00  0.00    -0.045 A 
HETATM   13  C   UNL     1      44.405 -19.590   4.086  1.00  0.00     0.050 A 
HETATM   14  C   UNL     1      44.657 -20.955   3.975  1.00  0.00     0.117 A 
HETATM   15  F   UNL     1      45.429 -21.556   4.890  1.00  0.00    -0.206 F 
HETATM   16  C   UNL     1      44.121 -21.701   2.935  1.00  0.00     0.042 A 
HETATM   17  C   UNL     1      43.314 -21.072   1.992  1.00  0.00     0.004 A 
HETATM   18  C   UNL     1      43.054 -19.702   2.094  1.00  0.00     0.008 A 
ENDBRANCH  11  12
BRANCH   1  19
HETATM   19  C   UNL     1      43.400 -15.794   5.145  1.00  0.00     0.267 C 
HETATM   20  O   UNL     1      43.256 -14.740   4.538  1.00  0.00    -0.265 OA
BRANCH  19  21
HETATM   21  O   UNL     1      44.084 -15.941   6.304  1.00  0.00    -0.316 OA
BRANCH  21  22
HETATM   22  C   UNL     1      44.097 -17.212   6.994  1.00  0.00     0.123 C 
HETATM   23  C   UNL     1      43.519 -17.096   8.399  1.00  0.00     0.040 C 
HETATM   24  C   UNL     1      45.465 -17.881   6.956  1.00  0.00     0.040 C 
ENDBRANCH  21  22
ENDBRANCH  19  21
ENDBRANCH   1  19
BRANCH   2  25
HETATM   25  O   UNL     1      40.685 -18.410   4.709  1.00  0.00    -0.389 OA
HETATM   26  H   UNL     1      39.862 -18.477   5.225  1.00  0.00     0.210 HD
ENDBRANCH   2  25
BRANCH   7  27
HETATM   27  O   UNL     1      43.732 -17.299   0.068  1.00  0.00    -0.343 OA
HETATM   28  H   UNL     1      43.776 -16.765  -0.738  1.00  0.00     0.219 HD
ENDBRANCH   7  27
TORSDOF 6
ENDMDL
MODEL 3
REMARK VINA RESULT:      -7.5      1.474      2.232
REMARK  6 active torsions:
REMARK  status: ('A' for Active; 'I' for Inactive)
REMARK    1  A    between atoms: C_2  and  O_3 
REMARK    2  A    between atoms: O_3  and  C_4 
REMARK    3  A    between atoms: C_4  and  C_5 
REMARK    4  A    between atoms: C_6  and  O_7 
REMARK    5  A    between atoms: C_12  and  O_13 
REMARK    6  A    between atoms: C_17  and  C_18 
ROOT
HETATM    1  C   UNL     1      42.964 -16.974   4.780  1.00  0.00     0.133 C 
HETATM    2  C   UNL     1      41.419 -17.025   5.017  1.00  0.00     0.073 C 
HETATM    3  C   UNL     1      41.020 -16.455   6.387  1.00  0.00     0.047 C 
HETATM    4  C   UNL     1      40.570 -16.348   3.899  1.00  0.00     0.097 C 
HETATM    5  C   UNL     1      41.193 -16.573   2.569  1.00  0.00     0.042 A 
HETATM    6  C   UNL     1      42.466 -17.032   2.302  1.00  0.00     0.030 A 
HETATM    7  C   UNL     1      42.525 -17.026   0.900  1.00  0.00     0.190 A 
HETATM    8  N   UNL     1      41.409 -16.597   0.321  1.00  0.00    -0.149 NA
HETATM    9  N   UNL     1      40.598 -16.340   1.362  1.00  0.00    -0.279 N 
HETATM   10  H   UNL     1      39.660 -16.003   1.169  1.00  0.00     0.189 HD
HETATM   11  C   UNL     1      43.455 -17.375   3.361  1.00  0.00     0.075 C 
ENDROOT
BRANCH  11  12
HETATM   12  C   UNL     1      43.786 -18.857   3.230  1.00  0.00    -0.045 A 
HETATM   13  C   UNL     1      44.469 -19.487   4.287  1.00  0.00     0.050 A 
HETATM   14  C   UNL     1      44.778 -20.843   4.222  1.00  0.00     0.117 A 
HETATM   15  F   UNL     1      45.434 -21.416   5.239  1.00  0.00    -0.206 F 
HETATM   16  C   UNL     1      44.415 -21.609   3.124  1.00  0.00     0.042 A 
HETATM   17  C   UNL     1      43.727 -21.009   2.074  1.00  0.00     0.004 A 
HETATM   18  C   UNL     1      43.411 -19.648   2.129  1.00  0.00     0.008 A 
ENDBRANCH  11  12
BRANCH   1  19
HETATM   19  C   UNL     1      43.592 -15.629   5.093  1.00  0.00     0.267 C 
HETATM   20  O   UNL     1      44.012 -15.348   6.209  1.00  0.00    -0.265 OA
BRANCH  19  21
HETATM   21  O   UNL     1      43.696 -14.841   3.998  1.00  0.00    -0.316 OA
BRANCH  21  22
HETATM   22  C   UNL     1      43.127 -13.512   3.991  1.00  0.00     0.123 C 
HETATM   23  C   UNL     1      42.182 -13.297   5.167  1.00  0.00     0.040 C 
HETATM   24  C   UNL     1      42.509 -13.151   2.646  1.00  0.00     0.040 C 
ENDBRANCH  21  22
ENDBRANCH  19  21
ENDBRANCH   1  19
BRANCH   2  25
HETATM   25  O   UNL     1      41.009 -18.410   5.061  1.00  0.00    -0.389 OA
HETATM   26  H   UNL     1      41.753 -18.947   5.387  1.00  0.00     0.210 HD
ENDBRANCH   2  25
BRANCH   7  27
HETATM   27  O   UNL     1      43.518 -17.392   0.089  1.00  0.00    -0.343 OA
HETATM   28  H   UNL     1      43.932 -16.603  -0.290  1.00  0.00     0.219 HD
ENDBRANCH   7  27
TORSDOF 6
ENDMDL
MODEL 4
REMARK VINA RESULT:      -7.4      2.968      5.538
REMARK  6 active torsions:
REMARK  status: ('A' for Active; 'I' for Inactive)
REMARK    1  A    between atoms: C_2  and  O_3 
REMARK    2  A    between atoms: O_3  and  C_4 
REMARK    3  A    between atoms: C_4  and  C_5 
REMARK    4  A    between atoms: C_6  and  O_7 
REMARK    5  A    between atoms: C_12  and  O_13 
REMARK    6  A    between atoms: C_17  and  C_18 
ROOT
HETATM    1  C   UNL     1      41.512 -14.964   2.933  1.00  0.00     0.133 C 
HETATM    2  C   UNL     1      41.675 -13.654   2.094  1.00  0.00     0.073 C 
HETATM    3  C   UNL     1      41.883 -13.940   0.599  1.00  0.00     0.047 C 
HETATM    4  C   UNL     1      40.523 -12.621   2.277  1.00  0.00     0.097 C 
HETATM    5  C   UNL     1      40.040 -12.627   3.682  1.00  0.00     0.042 A 
HETATM    6  C   UNL     1      40.300 -13.567   4.657  1.00  0.00     0.030 A 
HETATM    7  C   UNL     1      39.581 -13.092   5.765  1.00  0.00     0.190 A 
HETATM    8  N   UNL     1      38.917 -11.967   5.526  1.00  0.00    -0.149 NA
HETATM    9  N   UNL     1      39.225 -11.689   4.248  1.00  0.00    -0.279 N 
HETATM   10  H   UNL     1      38.836 -10.849   3.831  1.00  0.00     0.189 HD
HETATM   11  C   UNL     1      41.135 -14.779   4.429  1.00  0.00     0.075 C 
ENDROOT
BRANCH  11  12
HETATM   12  C   UNL     1      42.344 -14.695   5.354  1.00  0.00    -0.045 A 
HETATM   13  C   UNL     1      43.004 -15.888   5.704  1.00  0.00     0.050 A 
HETATM   14  C   UNL     1      44.124 -15.860   6.531  1.00  0.00     0.117 A 
HETATM   15  F   UNL     1      44.729 -17.011   6.854  1.00  0.00    -0.206 F 
HETATM   16  C   UNL     1      44.624 -14.663   7.022  1.00  0.00     0.042 A 
HETATM   17  C   UNL     1      43.995 -13.471   6.677  1.00  0.00     0.004 A 
HETATM   18  C   UNL     1      42.869 -13.487   5.847  1.00  0.00     0.008 A 
ENDBRANCH  11  12
BRANCH   1  19
HETATM   19  C   UNL     1      40.514 -15.948   2.352  1.00  0.00     0.267 C 
HETATM   20  O   UNL     1      39.349 -15.642   2.132  1.00  0.00    -0.265 OA
BRANCH  19  21
HETATM   21  O   UNL     1      41.081 -17.138   2.048  1.00  0.00    -0.316 OA
BRANCH  21  22
HETATM   22  C   UNL     1      42.493 -17.358   2.269  1.00  0.00     0.123 C 
HETATM   23  C   UNL     1      43.264 -17.442   0.957  1.00  0.00     0.040 C 
HETATM   24  C   UNL     1      42.759 -18.533   3.202  1.00  0.00     0.040 C 
ENDBRANCH  21  22
ENDBRANCH  19  21
ENDBRANCH   1  19
BRANCH   2  25
HETATM   25  O   UNL     1      42.890 -12.992   2.514  1.00  0.00    -0.389 OA
HETATM   26  H   UNL     1      42.654 -12.191   3.015  1.00  0.00     0.210 HD
ENDBRANCH   2  25
BRANCH   7  27
HETATM   27  O   UNL     1      39.484 -13.596   6.995  1.00  0.00    -0.343 OA
HETATM   28  H   UNL     1      39.997 -13.050   7.608  1.00  0.00     0.219 HD
ENDBRANCH   7  27
TORSDOF 6
ENDMDL
MODEL 5
REMARK VINA RESULT:      -7.2      2.755      4.770
REMARK  6 active torsions:
REMARK  status: ('A' for Active; 'I' for Inactive)
REMARK    1  A    between atoms: C_2  and  O_3 
REMARK    2  A    between atoms: O_3  and  C_4 
REMARK    3  A    between atoms: C_4  and  C_5 
REMARK    4  A    between atoms: C_6  and  O_7 
REMARK    5  A    between atoms: C_12  and  O_13 
REMARK    6  A    between atoms: C_17  and  C_18 
ROOT
HETATM    1  C   UNL     1      42.067 -15.808   3.655  1.00  0.00     0.133 C 
HETATM    2  C   UNL     1      43.116 -14.648   3.623  1.00  0.00     0.073 C 
HETATM    3  C   UNL     1      42.736 -13.546   2.621  1.00  0.00     0.047 C 
HETATM    4  C   UNL     1      43.421 -14.013   5.013  1.00  0.00     0.097 C 
HETATM    5  C   UNL     1      43.397 -15.052   6.074  1.00  0.00     0.042 A 
HETATM    6  C   UNL     1      42.900 -16.336   5.984  1.00  0.00     0.030 A 
HETATM    7  C   UNL     1      43.111 -16.855   7.270  1.00  0.00     0.190 A 
HETATM    8  N   UNL     1      43.676 -15.993   8.107  1.00  0.00    -0.149 NA
HETATM    9  N   UNL     1      43.859 -14.898   7.350  1.00  0.00    -0.279 N 
HETATM   10  H   UNL     1      44.297 -14.087   7.774  1.00  0.00     0.189 HD
HETATM   11  C   UNL     1      42.274 -16.890   4.752  1.00  0.00     0.075 C 
ENDROOT
BRANCH  11  12
HETATM   12  C   UNL     1      43.119 -18.070   4.287  1.00  0.00    -0.045 A 
HETATM   13  C   UNL     1      42.797 -18.684   3.063  1.00  0.00     0.050 A 
HETATM   14  C   UNL     1      43.551 -19.754   2.588  1.00  0.00     0.117 A 
HETATM   15  F   UNL     1      43.218 -20.325   1.422  1.00  0.00    -0.206 F 
HETATM   16  C   UNL     1      44.640 -20.236   3.299  1.00  0.00     0.042 A 
HETATM   17  C   UNL     1      44.985 -19.634   4.505  1.00  0.00     0.004 A 
HETATM   18  C   UNL     1      44.234 -18.559   4.992  1.00  0.00     0.008 A 
ENDBRANCH  11  12
BRANCH   1  19
HETATM   19  C   UNL     1      40.630 -15.337   3.775  1.00  0.00     0.267 C 
HETATM   20  O   UNL     1      40.243 -14.656   4.716  1.00  0.00    -0.265 OA
BRANCH  19  21
HETATM   21  O   UNL     1      39.881 -15.690   2.705  1.00  0.00    -0.316 OA
BRANCH  21  22
HETATM   22  C   UNL     1      39.696 -14.773   1.603  1.00  0.00     0.123 C 
HETATM   23  C   UNL     1      38.220 -14.523   1.318  1.00  0.00     0.040 C 
HETATM   24  C   UNL     1      40.489 -15.181   0.367  1.00  0.00     0.040 C 
ENDBRANCH  21  22
ENDBRANCH  19  21
ENDBRANCH   1  19
BRANCH   2  25
HETATM   25  O   UNL     1      44.367 -15.178   3.131  1.00  0.00    -0.389 OA
HETATM   26  H   UNL     1      44.375 -15.114   2.159  1.00  0.00     0.210 HD
ENDBRANCH   2  25
BRANCH   7  27
HETATM   27  O   UNL     1      42.839 -18.068   7.752  1.00  0.00    -0.343 OA
HETATM   28  H   UNL     1      41.926 -18.090   8.074  1.00  0.00     0.219 HD
ENDBRANCH   7  27
TORSDOF 6
ENDMDL
MODEL 6
REMARK VINA RESULT:      -7.1      2.859      5.072
REMARK  6 active torsions:
REMARK  status: ('A' for Active; 'I' for Inactive)
REMARK    1  A    between atoms: C_2  and  O_3 
REMARK    2  A    between atoms: O_3  and  C_4 
REMARK    3  A    between atoms: C_4  and  C_5 
REMARK    4  A    between atoms: C_6  and  O_7 
REMARK    5  A    between atoms: C_12  and  O_13 
REMARK    6  A    between atoms: C_17  and  C_18 
ROOT
HETATM    1  C   UNL     1      43.679 -18.148   4.959  1.00  0.00     0.133 C 
HETATM    2  C   UNL     1      42.608 -18.138   6.099  1.00  0.00     0.073 C 
HETATM    3  C   UNL     1      42.676 -19.399   6.974  1.00  0.00     0.047 C 
HETATM    4  C   UNL     1      42.637 -16.869   7.002  1.00  0.00     0.097 C 
HETATM    5  C   UNL     1      42.972 -15.666   6.197  1.00  0.00     0.042 A 
HETATM    6  C   UNL     1      43.484 -15.627   4.917  1.00  0.00     0.030 A 
HETATM    7  C   UNL     1      43.627 -14.254   4.667  1.00  0.00     0.190 A 
HETATM    8  N   UNL     1      43.256 -13.486   5.685  1.00  0.00    -0.149 NA
HETATM    9  N   UNL     1      42.841 -14.371   6.608  1.00  0.00    -0.279 N 
HETATM   10  H   UNL     1      42.491 -14.016   7.491  1.00  0.00     0.189 HD
HETATM   11  C   UNL     1      43.802 -16.845   4.121  1.00  0.00     0.075 C 
ENDROOT
BRANCH  11  12
HETATM   12  C   UNL     1      42.918 -16.837   2.879  1.00  0.00    -0.045 A 
HETATM   13  C   UNL     1      41.558 -16.510   3.028  1.00  0.00     0.050 A 
HETATM   14  C   UNL     1      40.714 -16.472   1.920  1.00  0.00     0.117 A 
HETATM   15  F   UNL     1      39.422 -16.163   2.090  1.00  0.00    -0.206 F 
HETATM   16  C   UNL     1      41.190 -16.745   0.646  1.00  0.00     0.042 A 
HETATM   17  C   UNL     1      42.535 -17.058   0.475  1.00  0.00     0.004 A 
HETATM   18  C   UNL     1      43.391 -17.098   1.580  1.00  0.00     0.008 A 
ENDBRANCH  11  12
BRANCH   1  19
HETATM   19  C   UNL     1      45.079 -18.494   5.431  1.00  0.00     0.267 C 
HETATM   20  O   UNL     1      45.628 -17.891   6.344  1.00  0.00    -0.265 OA
BRANCH  19  21
HETATM   21  O   UNL     1      45.590 -19.568   4.785  1.00  0.00    -0.316 OA
BRANCH  21  22
HETATM   22  C   UNL     1      44.717 -20.598   4.266  1.00  0.00     0.123 C 
HETATM   23  C   UNL     1      44.931 -21.929   4.976  1.00  0.00     0.040 C 
HETATM   24  C   UNL     1      44.783 -20.706   2.748  1.00  0.00     0.040 C 
ENDBRANCH  21  22
ENDBRANCH  19  21
ENDBRANCH   1  19
BRANCH   2  25
HETATM   25  O   UNL     1      41.297 -18.180   5.493  1.00  0.00    -0.389 OA
HETATM   26  H   UNL     1      41.220 -18.995   4.966  1.00  0.00     0.210 HD
ENDBRANCH   2  25
BRANCH   7  27
HETATM   27  O   UNL     1      44.063 -13.629   3.573  1.00  0.00    -0.343 OA
HETATM   28  H   UNL     1      44.355 -14.284   2.923  1.00  0.00     0.219 HD
ENDBRANCH   7  27
TORSDOF 6
ENDMDL
MODEL 7
REMARK VINA RESULT:      -6.8      3.595      5.924
REMARK  6 active torsions:
REMARK  status: ('A' for Active; 'I' for Inactive)
REMARK    1  A    between atoms: C_2  and  O_3 
REMARK    2  A    between atoms: O_3  and  C_4 
REMARK    3  A    between atoms: C_4  and  C_5 
REMARK    4  A    between atoms: C_6  and  O_7 
REMARK    5  A    between atoms: C_12  and  O_13 
REMARK    6  A    between atoms: C_17  and  C_18 
ROOT
HETATM    1  C   UNL     1      42.964 -13.649   4.845  1.00  0.00     0.133 C 
HETATM    2  C   UNL     1      41.470 -13.598   5.306  1.00  0.00     0.073 C 
HETATM    3  C   UNL     1      40.577 -12.848   4.305  1.00  0.00     0.047 C 
HETATM    4  C   UNL     1      40.846 -14.988   5.630  1.00  0.00     0.097 C 
HETATM    5  C   UNL     1      41.856 -15.876   6.260  1.00  0.00     0.042 A 
HETATM    6  C   UNL     1      43.222 -15.692   6.312  1.00  0.00     0.030 A 
HETATM    7  C   UNL     1      43.677 -16.832   6.992  1.00  0.00     0.190 A 
HETATM    8  N   UNL     1      42.706 -17.671   7.334  1.00  0.00    -0.149 NA
HETATM    9  N   UNL     1      41.594 -17.058   6.891  1.00  0.00    -0.279 N 
HETATM   10  H   UNL     1      40.700 -17.510   7.049  1.00  0.00     0.189 HD
HETATM   11  C   UNL     1      43.919 -14.524   5.705  1.00  0.00     0.075 C 
ENDROOT
BRANCH  11  12
HETATM   12  C   UNL     1      44.604 -13.752   6.827  1.00  0.00    -0.045 A 
HETATM   13  C   UNL     1      45.954 -13.391   6.663  1.00  0.00     0.050 A 
HETATM   14  C   UNL     1      46.618 -12.670   7.652  1.00  0.00     0.117 A 
HETATM   15  F   UNL     1      47.905 -12.344   7.475  1.00  0.00    -0.206 F 
HETATM   16  C   UNL     1      45.968 -12.281   8.815  1.00  0.00     0.042 A 
HETATM   17  C   UNL     1      44.629 -12.616   8.990  1.00  0.00     0.004 A 
HETATM   18  C   UNL     1      43.953 -13.340   8.003  1.00  0.00     0.008 A 
ENDBRANCH  11  12
BRANCH   1  19
HETATM   19  C   UNL     1      43.152 -14.088   3.405  1.00  0.00     0.267 C 
HETATM   20  O   UNL     1      43.082 -13.303   2.469  1.00  0.00    -0.265 OA
BRANCH  19  21
HETATM   21  O   UNL     1      43.472 -15.399   3.304  1.00  0.00    -0.316 OA
BRANCH  21  22
HETATM   22  C   UNL     1      42.948 -16.203   2.223  1.00  0.00     0.123 C 
HETATM   23  C   UNL     1      41.703 -16.974   2.646  1.00  0.00     0.040 C 
HETATM   24  C   UNL     1      44.014 -17.083   1.581  1.00  0.00     0.040 C 
ENDBRANCH  21  22
ENDBRANCH  19  21
ENDBRANCH   1  19
BRANCH   2  25
HETATM   25  O   UNL     1      41.395 -12.820   6.522  1.00  0.00    -0.389 OA
HETATM   26  H   UNL     1      42.288 -12.511   6.753  1.00  0.00     0.210 HD
ENDBRANCH   2  25
BRANCH   7  27
HETATM   27  O   UNL     1      44.916 -17.176   7.343  1.00  0.00    -0.343 OA
HETATM   28  H   UNL     1      45.478 -16.388   7.356  1.00  0.00     0.219 HD
ENDBRANCH   7  27
TORSDOF 6
ENDMDL
MODEL 8
REMARK VINA RESULT:      -6.8      1.837      2.804
REMARK  6 active torsions:
REMARK  status: ('A' for Active; 'I' for Inactive)
REMARK    1  A    between atoms: C_2  and  O_3 
REMARK    2  A    between atoms: O_3  and  C_4 
REMARK    3  A    between atoms: C_4  and  C_5 
REMARK    4  A    between atoms: C_6  and  O_7 
REMARK    5  A    between atoms: C_12  and  O_13 
REMARK    6  A    between atoms: C_17  and  C_18 
ROOT
HETATM    1  C   UNL     1      42.409 -15.337   4.492  1.00  0.00     0.133 C 
HETATM    2  C   UNL     1      40.870 -15.575   4.632  1.00  0.00     0.073 C 
HETATM    3  C   UNL     1      40.219 -14.607   5.633  1.00  0.00     0.047 C 
HETATM    4  C   UNL     1      40.085 -15.546   3.286  1.00  0.00     0.097 C 
HETATM    5  C   UNL     1      40.900 -16.145   2.198  1.00  0.00     0.042 A 
HETATM    6  C   UNL     1      42.250 -16.430   2.217  1.00  0.00     0.030 A 
HETATM    7  C   UNL     1      42.489 -16.951   0.936  1.00  0.00     0.190 A 
HETATM    8  N   UNL     1      41.407 -16.988   0.166  1.00  0.00    -0.149 NA
HETATM    9  N   UNL     1      40.440 -16.506   0.965  1.00  0.00    -0.279 N 
HETATM   10  H   UNL     1      39.496 -16.446   0.596  1.00  0.00     0.189 HD
HETATM   11  C   UNL     1      43.133 -16.153   3.384  1.00  0.00     0.075 C 
ENDROOT
BRANCH  11  12
HETATM   12  C   UNL     1      43.687 -17.485   3.878  1.00  0.00    -0.045 A 
HETATM   13  C   UNL     1      44.154 -17.566   5.202  1.00  0.00     0.050 A 
HETATM   14  C   UNL     1      44.654 -18.765   5.704  1.00  0.00     0.117 A 
HETATM   15  F   UNL     1      45.098 -18.814   6.967  1.00  0.00    -0.206 F 
HETATM   16  C   UNL     1      44.696 -19.909   4.920  1.00  0.00     0.042 A 
HETATM   17  C   UNL     1      44.226 -19.854   3.611  1.00  0.00     0.004 A 
HETATM   18  C   UNL     1      43.722 -18.655   3.097  1.00  0.00     0.008 A 
ENDBRANCH  11  12
BRANCH   1  19
HETATM   19  C   UNL     1      42.792 -13.884   4.279  1.00  0.00     0.267 C 
HETATM   20  O   UNL     1      43.949 -13.494   4.373  1.00  0.00    -0.265 OA
BRANCH  19  21
HETATM   21  O   UNL     1      41.737 -13.122   3.909  1.00  0.00    -0.316 OA
BRANCH  21  22
HETATM   22  C   UNL     1      41.870 -12.151   2.846  1.00  0.00     0.123 C 
HETATM   23  C   UNL     1      40.743 -11.125   2.876  1.00  0.00     0.040 C 
HETATM   24  C   UNL     1      42.057 -12.803   1.482  1.00  0.00     0.040 C 
ENDBRANCH  21  22
ENDBRANCH  19  21
ENDBRANCH   1  19
BRANCH   2  25
HETATM   25  O   UNL     1      40.662 -16.888   5.200  1.00  0.00    -0.389 OA
HETATM   26  H   UNL     1      41.078 -16.919   6.080  1.00  0.00     0.210 HD
ENDBRANCH   2  25
BRANCH   7  27
HETATM   27  O   UNL     1      43.621 -17.411   0.402  1.00  0.00    -0.343 OA
HETATM   28  H   UNL     1      43.648 -17.185  -0.539  1.00  0.00     0.219 HD
ENDBRANCH   7  27
TORSDOF 6
ENDMDL
MODEL 9
REMARK VINA RESULT:      -6.8      4.232      6.961
REMARK  6 active torsions:
REMARK  status: ('A' for Active; 'I' for Inactive)
REMARK    1  A    between atoms: C_2  and  O_3 
REMARK    2  A    between atoms: O_3  and  C_4 
REMARK    3  A    between atoms: C_4  and  C_5 
REMARK    4  A    between atoms: C_6  and  O_7 
REMARK    5  A    between atoms: C_12  and  O_13 
REMARK    6  A    between atoms: C_17  and  C_18 
ROOT
HETATM    1  C   UNL     1      41.579 -14.216  -1.462  1.00  0.00     0.133 C 
HETATM    2  C   UNL     1      41.720 -12.675  -1.241  1.00  0.00     0.073 C 
HETATM    3  C   UNL     1      42.247 -11.952  -2.490  1.00  0.00     0.047 C 
HETATM    4  C   UNL     1      40.425 -11.972  -0.734  1.00  0.00     0.097 C 
HETATM    5  C   UNL     1      39.687 -12.859   0.202  1.00  0.00     0.042 A 
HETATM    6  C   UNL     1      39.880 -14.209   0.412  1.00  0.00     0.030 A 
HETATM    7  C   UNL     1      38.905 -14.530   1.367  1.00  0.00     0.190 A 
HETATM    8  N   UNL     1      38.152 -13.498   1.729  1.00  0.00    -0.149 NA
HETATM    9  N   UNL     1      38.659 -12.478   1.016  1.00  0.00    -0.279 N 
HETATM   10  H   UNL     1      38.247 -11.558   1.132  1.00  0.00     0.189 HD
HETATM   11  C   UNL     1      40.900 -15.016  -0.314  1.00  0.00     0.075 C 
ENDROOT
BRANCH  11  12
HETATM   12  C   UNL     1      41.887 -15.557   0.714  1.00  0.00    -0.045 A 
HETATM   13  C   UNL     1      42.431 -16.838   0.510  1.00  0.00     0.050 A 
HETATM   14  C   UNL     1      43.350 -17.368   1.412  1.00  0.00     0.117 A 
HETATM   15  F   UNL     1      43.849 -18.593   1.197  1.00  0.00    -0.206 F 
HETATM   16  C   UNL     1      43.760 -16.649   2.525  1.00  0.00     0.042 A 
HETATM   17  C   UNL     1      43.244 -15.374   2.738  1.00  0.00     0.004 A 
HETATM   18  C   UNL     1      42.321 -14.832   1.839  1.00  0.00     0.008 A 
ENDBRANCH  11  12
BRANCH   1  19
HETATM   19  C   UNL     1      40.854 -14.593  -2.740  1.00  0.00     0.267 C 
HETATM   20  O   UNL     1      41.446 -14.785  -3.794  1.00  0.00    -0.265 OA
BRANCH  19  21
HETATM   21  O   UNL     1      39.524 -14.759  -2.549  1.00  0.00    -0.316 OA
BRANCH  21  22
HETATM   22  C   UNL     1      38.576 -14.295  -3.537  1.00  0.00     0.123 C 
HETATM   23  C   UNL     1      38.281 -12.808  -3.382  1.00  0.00     0.040 C 
HETATM   24  C   UNL     1      37.321 -15.157  -3.588  1.00  0.00     0.040 C 
ENDBRANCH  21  22
ENDBRANCH  19  21
ENDBRANCH   1  19
BRANCH   2  25
HETATM   25  O   UNL     1      42.731 -12.449  -0.232  1.00  0.00    -0.389 OA
HETATM   26  H   UNL     1      43.450 -11.920  -0.619  1.00  0.00     0.210 HD
ENDBRANCH   2  25
BRANCH   7  27
HETATM   27  O   UNL     1      38.642 -15.698   1.955  1.00  0.00    -0.343 OA
HETATM   28  H   UNL     1      39.413 -15.982   2.467  1.00  0.00     0.219 HD
ENDBRANCH   7  27
TORSDOF 6
ENDMDL
MODEL 10
REMARK VINA RESULT:      -6.7      3.211      5.544
REMARK  6 active torsions:
REMARK  status: ('A' for Active; 'I' for Inactive)
REMARK    1  A    between atoms: C_2  and  O_3 
REMARK    2  A    between atoms: O_3  and  C_4 
REMARK    3  A    between atoms: C_4  and  C_5 
REMARK    4  A    between atoms: C_6  and  O_7 
REMARK    5  A    between atoms: C_12  and  O_13 
REMARK    6  A    between atoms: C_17  and  C_18 
ROOT
HETATM    1  C   UNL     1      41.157 -14.425   1.833  1.00  0.00     0.133 C 
HETATM    2  C   UNL     1      41.998 -13.138   2.117  1.00  0.00     0.073 C 
HETATM    3  C   UNL     1      42.160 -12.260   0.866  1.00  0.00     0.047 C 
HETATM    4  C   UNL     1      41.477 -12.273   3.303  1.00  0.00     0.097 C 
HETATM    5  C   UNL     1      40.940 -13.142   4.381  1.00  0.00     0.042 A 
HETATM    6  C   UNL     1      40.635 -14.485   4.307  1.00  0.00     0.030 A 
HETATM    7  C   UNL     1      40.148 -14.778   5.590  1.00  0.00     0.190 A 
HETATM    8  N   UNL     1      40.131 -13.731   6.405  1.00  0.00    -0.149 NA
HETATM    9  N   UNL     1      40.636 -12.740   5.651  1.00  0.00    -0.279 N 
HETATM   10  H   UNL     1      40.736 -11.820   6.068  1.00  0.00     0.189 HD
HETATM   11  C   UNL     1      40.797 -15.297   3.069  1.00  0.00     0.075 C 
ENDROOT
BRANCH  11  12
HETATM   12  C   UNL     1      41.818 -16.392   3.357  1.00  0.00    -0.045 A 
HETATM   13  C   UNL     1      41.836 -17.526   2.525  1.00  0.00     0.050 A 
HETATM   14  C   UNL     1      42.762 -18.544   2.738  1.00  0.00     0.117 A 
HETATM   15  F   UNL     1      42.754 -19.617   1.936  1.00  0.00    -0.206 F 
HETATM   16  C   UNL     1      43.694 -18.464   3.763  1.00  0.00     0.042 A 
HETATM   17  C   UNL     1      43.702 -17.344   4.588  1.00  0.00     0.004 A 
HETATM   18  C   UNL     1      42.777 -16.316   4.384  1.00  0.00     0.008 A 
ENDBRANCH  11  12
BRANCH   1  19
HETATM   19  C   UNL     1      39.858 -14.163   1.094  1.00  0.00     0.267 C 
HETATM   20  O   UNL     1      38.965 -13.472   1.568  1.00  0.00    -0.265 OA
BRANCH  19  21
HETATM   21  O   UNL     1      39.850 -14.709  -0.144  1.00  0.00    -0.316 OA
BRANCH  21  22
HETATM   22  C   UNL     1      39.703 -13.874  -1.315  1.00  0.00     0.123 C 
HETATM   23  C   UNL     1      38.295 -13.953  -1.891  1.00  0.00     0.040 C 
HETATM   24  C   UNL     1      40.794 -14.124  -2.349  1.00  0.00     0.040 C 
ENDBRANCH  21  22
ENDBRANCH  19  21
ENDBRANCH   1  19
BRANCH   2  25
HETATM   25  O   UNL     1      43.343 -13.539   2.462  1.00  0.00    -0.389 OA
HETATM   26  H   UNL     1      43.706 -14.078   1.736  1.00  0.00     0.210 HD
ENDBRANCH   2  25
BRANCH   7  27
HETATM   27  O   UNL     1      39.722 -15.937   6.093  1.00  0.00    -0.343 OA
HETATM   28  H   UNL     1      38.762 -16.003   5.982  1.00  0.00     0.219 HD
ENDBRANCH   7  27
TORSDOF 6
ENDMDL
