MODEL 1
REMARK VINA RESULT:      -8.8      0.000      0.000
REMARK  4 active torsions:
REMARK  status: ('A' for Active; 'I' for Inactive)
REMARK    1  A    between atoms: C_9  and  C_10 
REMARK       I    between atoms: C_10  and  N_11 
REMARK    2  A    between atoms: N_11  and  C_12 
REMARK    3  A    between atoms: C_14  and  C_15 
REMARK       I    between atoms: C_15  and  N_16 
REMARK    4  A    between atoms: N_16  and  C_17 
ROOT
HETATM    1  C   UNL     1      43.222 -16.487   3.265  1.00  0.00     0.277 C 
HETATM    2  N   UNL     1      41.857 -16.568   3.060  1.00  0.00    -0.322 N 
HETATM    3  O   UNL     1      43.975 -15.637   2.798  1.00  0.00    -0.266 OA
HETATM    4  H   UNL     1      41.430 -17.359   3.538  1.00  0.00     0.169 HD
ENDROOT
BRANCH   2   5
HETATM    5  C   UNL     1      41.030 -15.722   2.304  1.00  0.00     0.036 A 
HETATM    6  C   UNL     1      41.110 -15.595   0.915  1.00  0.00     0.046 A 
HETATM    7  C   UNL     1      40.265 -14.706   0.234  1.00  0.00     0.034 A 
HETATM    8  C   UNL     1      39.304 -13.977   0.943  1.00  0.00     0.017 A 
HETATM    9  C   UNL     1      39.214 -14.106   2.328  1.00  0.00     0.003 A 
HETATM   10  C   UNL     1      40.079 -14.967   3.004  1.00  0.00     0.029 A 
BRANCH   7  11
HETATM   11  C   UNL     1      40.348 -14.513  -1.240  1.00  0.00     0.252 C 
HETATM   12  N   UNL     1      39.304 -15.035  -1.981  1.00  0.00    -0.352 N 
HETATM   13  H   UNL     1      38.589 -15.579  -1.514  1.00  0.00     0.163 HD
HETATM   14  O   UNL     1      41.326 -13.956  -1.727  1.00  0.00    -0.268 OA
BRANCH  12  15
HETATM   15  C   UNL     1      39.256 -14.958  -3.408  1.00  0.00     0.084 A 
HETATM   16  C   UNL     1      38.976 -16.189  -4.226  1.00  0.00     0.027 A 
HETATM   17  C   UNL     1      37.945 -15.104  -4.129  1.00  0.00     0.027 A 
ENDBRANCH  12  15
ENDBRANCH   7  11
ENDBRANCH   2   5
BRANCH   1  18
HETATM   18  C   UNL     1      43.706 -17.573   4.138  1.00  0.00     0.157 A 
HETATM   19  C   UNL     1      43.965 -18.928   3.779  1.00  0.00     0.029 A 
HETATM   20  C   UNL     1      43.866 -19.705   2.608  1.00  0.00     0.023 A 
HETATM   21  C   UNL     1      44.410 -19.533   4.948  1.00  0.00     0.063 A 
HETATM   22  C   UNL     1      44.208 -21.068   2.649  1.00  0.00    -0.061 A 
HETATM   23  C   UNL     1      44.101 -21.917   1.415  1.00  0.00     0.048 C 
HETATM   24  C   UNL     1      44.666 -21.634   3.846  1.00  0.00     0.009 A 
HETATM   25  C   UNL     1      44.776 -20.880   5.020  1.00  0.00     0.032 A 
HETATM   26  N   UNL     1      44.389 -18.548   5.896  1.00  0.00    -0.277 N 
HETATM   27  H   UNL     1      44.655 -18.632   6.870  1.00  0.00     0.189 HD
HETATM   28  N   UNL     1      43.953 -17.355   5.451  1.00  0.00    -0.168 NA
ENDBRANCH   1  18
TORSDOF 4
ENDMDL
MODEL 2
REMARK VINA RESULT:      -8.6      2.202      2.707
REMARK  4 active torsions:
REMARK  status: ('A' for Active; 'I' for Inactive)
REMARK    1  A    between atoms: C_9  and  C_10 
REMARK       I    between atoms: C_10  and  N_11 
REMARK    2  A    between atoms: N_11  and  C_12 
REMARK    3  A    between atoms: C_14  and  C_15 
REMARK       I    between atoms: C_15  and  N_16 
REMARK    4  A    between atoms: N_16  and  C_17 
ROOT
HETATM    1  C   UNL     1      41.236 -17.067   1.811  1.00  0.00     0.277 C 
HETATM    2  N   UNL     1      40.854 -15.744   1.938  1.00  0.00    -0.322 N 
HETATM    3  O   UNL     1      40.855 -17.850   0.946  1.00  0.00    -0.266 OA
HETATM    4  H   UNL     1      41.287 -15.280   2.733  1.00  0.00     0.169 HD
ENDROOT
BRANCH   2   5
HETATM    5  C   UNL     1      39.977 -15.001   1.131  1.00  0.00     0.036 A 
HETATM    6  C   UNL     1      40.341 -14.429  -0.091  1.00  0.00     0.046 A 
HETATM    7  C   UNL     1      39.413 -13.677  -0.826  1.00  0.00     0.034 A 
HETATM    8  C   UNL     1      38.101 -13.539  -0.359  1.00  0.00     0.017 A 
HETATM    9  C   UNL     1      37.729 -14.116   0.854  1.00  0.00     0.003 A 
HETATM   10  C   UNL     1      38.666 -14.835   1.598  1.00  0.00     0.029 A 
BRANCH   7  11
HETATM   11  C   UNL     1      39.775 -13.017  -2.111  1.00  0.00     0.252 C 
HETATM   12  N   UNL     1      40.704 -11.996  -2.029  1.00  0.00    -0.352 N 
HETATM   13  H   UNL     1      41.030 -11.695  -1.119  1.00  0.00     0.163 HD
HETATM   14  O   UNL     1      39.224 -13.363  -3.150  1.00  0.00    -0.268 OA
BRANCH  12  15
HETATM   15  C   UNL     1      41.129 -11.246  -3.169  1.00  0.00     0.084 A 
HETATM   16  C   UNL     1      42.456 -10.536  -3.162  1.00  0.00     0.027 A 
HETATM   17  C   UNL     1      42.259 -11.747  -4.025  1.00  0.00     0.027 A 
ENDBRANCH  12  15
ENDBRANCH   7  11
ENDBRANCH   2   5
BRANCH   1  18
HETATM   18  C   UNL     1      42.189 -17.462   2.866  1.00  0.00     0.157 A 
HETATM   19  C   UNL     1      43.000 -18.632   2.911  1.00  0.00     0.029 A 
HETATM   20  C   UNL     1      43.199 -19.763   2.094  1.00  0.00     0.023 A 
HETATM   21  C   UNL     1      43.720 -18.527   4.095  1.00  0.00     0.063 A 
HETATM   22  C   UNL     1      44.108 -20.757   2.495  1.00  0.00    -0.061 A 
HETATM   23  C   UNL     1      44.328 -21.975   1.645  1.00  0.00     0.048 C 
HETATM   24  C   UNL     1      44.823 -20.604   3.689  1.00  0.00     0.009 A 
HETATM   25  C   UNL     1      44.645 -19.487   4.515  1.00  0.00     0.032 A 
HETATM   26  N   UNL     1      43.312 -17.353   4.663  1.00  0.00    -0.277 N 
HETATM   27  H   UNL     1      43.632 -16.953   5.538  1.00  0.00     0.189 HD
HETATM   28  N   UNL     1      42.374 -16.689   3.962  1.00  0.00    -0.168 NA
ENDBRANCH   1  18
TORSDOF 4
ENDMDL
MODEL 3
REMARK VINA RESULT:      -8.1      2.773      3.685
REMARK  4 active torsions:
REMARK  status: ('A' for Active; 'I' for Inactive)
REMARK    1  A    between atoms: C_9  and  C_10 
REMARK       I    between atoms: C_10  and  N_11 
REMARK    2  A    between atoms: N_11  and  C_12 
REMARK    3  A    between atoms: C_14  and  C_15 
REMARK       I    between atoms: C_15  and  N_16 
REMARK    4  A    between atoms: N_16  and  C_17 
ROOT
HETATM    1  C   UNL     1      41.490 -16.817   2.209  1.00  0.00     0.277 C 
HETATM    2  N   UNL     1      42.222 -16.070   1.304  1.00  0.00    -0.322 N 
HETATM    3  O   UNL     1      40.272 -16.971   2.204  1.00  0.00    -0.266 OA
HETATM    4  H   UNL     1      43.220 -16.074   1.500  1.00  0.00     0.169 HD
ENDROOT
BRANCH   2   5
HETATM    5  C   UNL     1      41.764 -15.340   0.195  1.00  0.00     0.036 A 
HETATM    6  C   UNL     1      41.782 -13.945   0.121  1.00  0.00     0.046 A 
HETATM    7  C   UNL     1      41.281 -13.289  -1.013  1.00  0.00     0.034 A 
HETATM    8  C   UNL     1      40.806 -14.035  -2.097  1.00  0.00     0.017 A 
HETATM    9  C   UNL     1      40.795 -15.426  -2.033  1.00  0.00     0.003 A 
HETATM   10  C   UNL     1      41.263 -16.074  -0.889  1.00  0.00     0.029 A 
BRANCH   7  11
HETATM   11  C   UNL     1      41.244 -11.803  -1.111  1.00  0.00     0.252 C 
HETATM   12  N   UNL     1      42.457 -11.154  -0.965  1.00  0.00    -0.352 N 
HETATM   13  H   UNL     1      43.280 -11.692  -0.725  1.00  0.00     0.163 HD
HETATM   14  O   UNL     1      40.172 -11.230  -1.269  1.00  0.00    -0.268 OA
BRANCH  12  15
HETATM   15  C   UNL     1      42.579  -9.731  -1.002  1.00  0.00     0.084 A 
HETATM   16  C   UNL     1      43.927  -9.087  -1.187  1.00  0.00     0.027 A 
HETATM   17  C   UNL     1      42.913  -9.034  -2.292  1.00  0.00     0.027 A 
ENDBRANCH  12  15
ENDBRANCH   7  11
ENDBRANCH   2   5
BRANCH   1  18
HETATM   18  C   UNL     1      42.358 -17.439   3.227  1.00  0.00     0.157 A 
HETATM   19  C   UNL     1      43.067 -18.672   3.130  1.00  0.00     0.029 A 
HETATM   20  C   UNL     1      43.208 -19.689   2.165  1.00  0.00     0.023 A 
HETATM   21  C   UNL     1      43.738 -18.799   4.340  1.00  0.00     0.063 A 
HETATM   22  C   UNL     1      44.013 -20.806   2.449  1.00  0.00    -0.061 A 
HETATM   23  C   UNL     1      44.170 -21.906   1.439  1.00  0.00     0.048 C 
HETATM   24  C   UNL     1      44.683 -20.887   3.676  1.00  0.00     0.009 A 
HETATM   25  C   UNL     1      44.560 -19.886   4.647  1.00  0.00     0.032 A 
HETATM   26  N   UNL     1      43.403 -17.685   5.058  1.00  0.00    -0.277 N 
HETATM   27  H   UNL     1      43.715 -17.443   5.992  1.00  0.00     0.189 HD
HETATM   28  N   UNL     1      42.557 -16.849   4.429  1.00  0.00    -0.168 NA
ENDBRANCH   1  18
TORSDOF 4
ENDMDL
MODEL 4
REMARK VINA RESULT:      -8.1      1.758      2.501
REMARK  4 active torsions:
REMARK  status: ('A' for Active; 'I' for Inactive)
REMARK    1  A    between atoms: C_9  and  C_10 
REMARK       I    between atoms: C_10  and  N_11 
REMARK    2  A    between atoms: N_11  and  C_12 
REMARK    3  A    between atoms: C_14  and  C_15 
REMARK       I    between atoms: C_15  and  N_16 
REMARK    4  A    between atoms: N_16  and  C_17 
ROOT
HETATM    1  C   UNL     1      43.553 -18.153   1.889  1.00  0.00     0.277 C 
HETATM    2  N   UNL     1      42.193 -17.945   2.028  1.00  0.00    -0.322 N 
HETATM    3  O   UNL     1      44.362 -17.360   1.416  1.00  0.00    -0.266 OA
HETATM    4  H   UNL     1      41.709 -18.739   2.440  1.00  0.00     0.169 HD
ENDROOT
BRANCH   2   5
HETATM    5  C   UNL     1      41.437 -16.812   1.682  1.00  0.00     0.036 A 
HETATM    6  C   UNL     1      41.297 -16.342   0.375  1.00  0.00     0.046 A 
HETATM    7  C   UNL     1      40.546 -15.186   0.114  1.00  0.00     0.034 A 
HETATM    8  C   UNL     1      39.894 -14.527   1.163  1.00  0.00     0.017 A 
HETATM    9  C   UNL     1      40.023 -14.997   2.468  1.00  0.00     0.003 A 
HETATM   10  C   UNL     1      40.799 -16.129   2.726  1.00  0.00     0.029 A 
BRANCH   7  11
HETATM   11  C   UNL     1      40.407 -14.630  -1.260  1.00  0.00     0.252 C 
HETATM   12  N   UNL     1      39.216 -14.900  -1.908  1.00  0.00    -0.352 N 
HETATM   13  H   UNL     1      38.540 -15.513  -1.467  1.00  0.00     0.163 HD
HETATM   14  O   UNL     1      41.339 -14.012  -1.765  1.00  0.00    -0.268 OA
BRANCH  12  15
HETATM   15  C   UNL     1      38.946 -14.463  -3.242  1.00  0.00     0.084 A 
HETATM   16  C   UNL     1      37.583 -14.666  -3.848  1.00  0.00     0.027 A 
HETATM   17  C   UNL     1      38.043 -13.285  -3.483  1.00  0.00     0.027 A 
ENDBRANCH  12  15
ENDBRANCH   7  11
ENDBRANCH   2   5
BRANCH   1  18
HETATM   18  C   UNL     1      43.954 -19.482   2.388  1.00  0.00     0.157 A 
HETATM   19  C   UNL     1      44.051 -19.908   3.745  1.00  0.00     0.029 A 
HETATM   20  C   UNL     1      43.852 -19.322   5.011  1.00  0.00     0.023 A 
HETATM   21  C   UNL     1      44.452 -21.237   3.678  1.00  0.00     0.063 A 
HETATM   22  C   UNL     1      44.072 -20.086   6.170  1.00  0.00    -0.061 A 
HETATM   23  C   UNL     1      43.877 -19.478   7.530  1.00  0.00     0.048 C 
HETATM   24  C   UNL     1      44.464 -21.425   6.057  1.00  0.00     0.009 A 
HETATM   25  C   UNL     1      44.663 -22.030   4.810  1.00  0.00     0.032 A 
HETATM   26  N   UNL     1      44.570 -21.513   2.344  1.00  0.00    -0.277 N 
HETATM   27  H   UNL     1      44.843 -22.394   1.924  1.00  0.00     0.189 HD
HETATM   28  N   UNL     1      44.295 -20.474   1.533  1.00  0.00    -0.168 NA
ENDBRANCH   1  18
TORSDOF 4
ENDMDL
MODEL 5
REMARK VINA RESULT:      -8.1      2.962      4.891
REMARK  4 active torsions:
REMARK  status: ('A' for Active; 'I' for Inactive)
REMARK    1  A    between atoms: C_9  and  C_10 
REMARK       I    between atoms: C_10  and  N_11 
REMARK    2  A    between atoms: N_11  and  C_12 
REMARK    3  A    between atoms: C_14  and  C_15 
REMARK       I    between atoms: C_15  and  N_16 
REMARK    4  A    between atoms: N_16  and  C_17 
ROOT
HETATM    1  C   UNL     1      43.092 -16.617   3.575  1.00  0.00     0.277 C 
HETATM    2  N   UNL     1      41.823 -16.320   4.040  1.00  0.00    -0.322 N 
HETATM    3  O   UNL     1      43.676 -16.052   2.655  1.00  0.00    -0.266 OA
HETATM    4  H   UNL     1      41.531 -16.921   4.808  1.00  0.00     0.169 HD
ENDROOT
BRANCH   2   5
HETATM    5  C   UNL     1      40.933 -15.329   3.594  1.00  0.00     0.036 A 
HETATM    6  C   UNL     1      40.745 -14.106   4.242  1.00  0.00     0.046 A 
HETATM    7  C   UNL     1      39.816 -13.178   3.749  1.00  0.00     0.034 A 
HETATM    8  C   UNL     1      39.109 -13.458   2.574  1.00  0.00     0.017 A 
HETATM    9  C   UNL     1      39.300 -14.672   1.918  1.00  0.00     0.003 A 
HETATM   10  C   UNL     1      40.201 -15.606   2.432  1.00  0.00     0.029 A 
BRANCH   7  11
HETATM   11  C   UNL     1      39.557 -11.882   4.435  1.00  0.00     0.252 C 
HETATM   12  N   UNL     1      40.629 -11.013   4.517  1.00  0.00    -0.352 N 
HETATM   13  H   UNL     1      41.539 -11.316   4.190  1.00  0.00     0.163 HD
HETATM   14  O   UNL     1      38.453 -11.660   4.920  1.00  0.00    -0.268 OA
BRANCH  12  15
HETATM   15  C   UNL     1      40.547  -9.746   5.173  1.00  0.00     0.084 A 
HETATM   16  C   UNL     1      41.436  -9.438   6.347  1.00  0.00     0.027 A 
HETATM   17  C   UNL     1      41.664  -8.749   5.034  1.00  0.00     0.027 A 
ENDBRANCH  12  15
ENDBRANCH   7  11
ENDBRANCH   2   5
BRANCH   1  18
HETATM   18  C   UNL     1      43.700 -17.731   4.327  1.00  0.00     0.157 A 
HETATM   19  C   UNL     1      43.966 -19.052   3.861  1.00  0.00     0.029 A 
HETATM   20  C   UNL     1      43.774 -19.763   2.660  1.00  0.00     0.023 A 
HETATM   21  C   UNL     1      44.549 -19.705   4.940  1.00  0.00     0.063 A 
HETATM   22  C   UNL     1      44.165 -21.111   2.583  1.00  0.00    -0.061 A 
HETATM   23  C   UNL     1      43.960 -21.892   1.317  1.00  0.00     0.048 C 
HETATM   24  C   UNL     1      44.762 -21.726   3.691  1.00  0.00     0.009 A 
HETATM   25  C   UNL     1      44.966 -21.037   4.892  1.00  0.00     0.032 A 
HETATM   26  N   UNL     1      44.592 -18.777   5.944  1.00  0.00    -0.277 N 
HETATM   27  H   UNL     1      44.959 -18.906   6.880  1.00  0.00     0.189 HD
HETATM   28  N   UNL     1      44.072 -17.579   5.619  1.00  0.00    -0.168 NA
ENDBRANCH   1  18
TORSDOF 4
ENDMDL
MODEL 6
REMARK VINA RESULT:      -8.0      6.483      9.531
REMARK  4 active torsions:
REMARK  status: ('A' for Active; 'I' for Inactive)
REMARK    1  A    between atoms: C_9  and  C_10 
REMARK       I    between atoms: C_10  and  N_11 
REMARK    2  A    between atoms: N_11  and  C_12 
REMARK    3  A    between atoms: C_14  and  C_15 
REMARK       I    between atoms: C_15  and  N_16 
REMARK    4  A    between atoms: N_16  and  C_17 
ROOT
HETATM    1  C   UNL     1      43.717 -14.723   6.329  1.00  0.00     0.277 C 
HETATM    2  N   UNL     1      44.679 -14.503   7.299  1.00  0.00    -0.322 N 
HETATM    3  O   UNL     1      42.936 -13.888   5.882  1.00  0.00    -0.266 OA
HETATM    4  H   UNL     1      45.212 -15.339   7.526  1.00  0.00     0.169 HD
ENDROOT
BRANCH   2   5
HETATM    5  C   UNL     1      44.989 -13.311   7.974  1.00  0.00     0.036 A 
HETATM    6  C   UNL     1      44.080 -12.608   8.769  1.00  0.00     0.046 A 
HETATM    7  C   UNL     1      44.460 -11.409   9.389  1.00  0.00     0.034 A 
HETATM    8  C   UNL     1      45.771 -10.938   9.251  1.00  0.00     0.017 A 
HETATM    9  C   UNL     1      46.684 -11.639   8.468  1.00  0.00     0.003 A 
HETATM   10  C   UNL     1      46.292 -12.815   7.825  1.00  0.00     0.029 A 
BRANCH   7  11
HETATM   11  C   UNL     1      43.508 -10.611  10.209  1.00  0.00     0.252 C 
HETATM   12  N   UNL     1      43.741 -10.600  11.572  1.00  0.00    -0.352 N 
HETATM   13  H   UNL     1      44.477 -11.181  11.953  1.00  0.00     0.163 HD
HETATM   14  O   UNL     1      42.562 -10.047   9.668  1.00  0.00    -0.268 OA
BRANCH  12  15
HETATM   15  C   UNL     1      42.896  -9.906  12.493  1.00  0.00     0.084 A 
HETATM   16  C   UNL     1      42.596 -10.499  13.844  1.00  0.00     0.027 A 
HETATM   17  C   UNL     1      43.478  -9.290  13.735  1.00  0.00     0.027 A 
ENDBRANCH  12  15
ENDBRANCH   7  11
ENDBRANCH   2   5
BRANCH   1  18
HETATM   18  C   UNL     1      43.722 -16.123   5.866  1.00  0.00     0.157 A 
HETATM   19  C   UNL     1      43.439 -16.607   4.556  1.00  0.00     0.029 A 
HETATM   20  C   UNL     1      43.067 -16.038   3.321  1.00  0.00     0.023 A 
HETATM   21  C   UNL     1      43.590 -17.986   4.638  1.00  0.00     0.063 A 
HETATM   22  C   UNL     1      42.850 -16.872   2.211  1.00  0.00    -0.061 A 
HETATM   23  C   UNL     1      42.443 -16.289   0.889  1.00  0.00     0.048 C 
HETATM   24  C   UNL     1      43.027 -18.256   2.336  1.00  0.00     0.009 A 
HETATM   25  C   UNL     1      43.401 -18.842   3.551  1.00  0.00     0.032 A 
HETATM   26  N   UNL     1      43.937 -18.233   5.937  1.00  0.00    -0.277 N 
HETATM   27  H   UNL     1      44.131 -19.136   6.357  1.00  0.00     0.189 HD
HETATM   28  N   UNL     1      44.009 -17.137   6.715  1.00  0.00    -0.168 NA
ENDBRANCH   1  18
TORSDOF 4
ENDMDL
MODEL 7
REMARK VINA RESULT:      -8.0      4.478      7.447
REMARK  4 active torsions:
REMARK  status: ('A' for Active; 'I' for Inactive)
REMARK    1  A    between atoms: C_9  and  C_10 
REMARK       I    between atoms: C_10  and  N_11 
REMARK    2  A    between atoms: N_11  and  C_12 
REMARK    3  A    between atoms: C_14  and  C_15 
REMARK       I    between atoms: C_15  and  N_16 
REMARK    4  A    between atoms: N_16  and  C_17 
ROOT
HETATM    1  C   UNL     1      41.017 -15.653   4.610  1.00  0.00     0.277 C 
HETATM    2  N   UNL     1      41.142 -14.320   4.261  1.00  0.00    -0.322 N 
HETATM    3  O   UNL     1      40.629 -16.084   5.692  1.00  0.00    -0.266 OA
HETATM    4  H   UNL     1      41.490 -14.188   3.314  1.00  0.00     0.169 HD
ENDROOT
BRANCH   2   5
HETATM    5  C   UNL     1      40.856 -13.180   5.030  1.00  0.00     0.036 A 
HETATM    6  C   UNL     1      41.743 -12.625   5.956  1.00  0.00     0.046 A 
HETATM    7  C   UNL     1      41.372 -11.499   6.705  1.00  0.00     0.034 A 
HETATM    8  C   UNL     1      40.126 -10.899   6.491  1.00  0.00     0.017 A 
HETATM    9  C   UNL     1      39.241 -11.442   5.562  1.00  0.00     0.003 A 
HETATM   10  C   UNL     1      39.602 -12.583   4.843  1.00  0.00     0.029 A 
BRANCH   7  11
HETATM   11  C   UNL     1      42.272 -10.904   7.731  1.00  0.00     0.252 C 
HETATM   12  N   UNL     1      43.160 -11.773   8.338  1.00  0.00    -0.352 N 
HETATM   13  H   UNL     1      43.109 -12.761   8.126  1.00  0.00     0.163 HD
HETATM   14  O   UNL     1      42.168  -9.716   8.018  1.00  0.00    -0.268 OA
BRANCH  12  15
HETATM   15  C   UNL     1      44.066 -11.359   9.364  1.00  0.00     0.084 A 
HETATM   16  C   UNL     1      44.229 -12.182  10.612  1.00  0.00     0.027 A 
HETATM   17  C   UNL     1      45.338 -12.124   9.603  1.00  0.00     0.027 A 
ENDBRANCH  12  15
ENDBRANCH   7  11
ENDBRANCH   2   5
BRANCH   1  18
HETATM   18  C   UNL     1      41.415 -16.544   3.504  1.00  0.00     0.157 A 
HETATM   19  C   UNL     1      42.346 -17.622   3.548  1.00  0.00     0.029 A 
HETATM   20  C   UNL     1      43.180 -18.205   4.522  1.00  0.00     0.023 A 
HETATM   21  C   UNL     1      42.354 -18.145   2.260  1.00  0.00     0.063 A 
HETATM   22  C   UNL     1      44.003 -19.289   4.171  1.00  0.00    -0.061 A 
HETATM   23  C   UNL     1      44.907 -19.919   5.191  1.00  0.00     0.048 C 
HETATM   24  C   UNL     1      43.971 -19.793   2.865  1.00  0.00     0.009 A 
HETATM   25  C   UNL     1      43.147 -19.232   1.882  1.00  0.00     0.032 A 
HETATM   26  N   UNL     1      41.470 -17.379   1.553  1.00  0.00    -0.277 N 
HETATM   27  H   UNL     1      41.220 -17.478   0.576  1.00  0.00     0.189 HD
HETATM   28  N   UNL     1      40.895 -16.390   2.263  1.00  0.00    -0.168 NA
ENDBRANCH   1  18
TORSDOF 4
ENDMDL
MODEL 8
REMARK VINA RESULT:      -8.0      3.604      5.833
REMARK  4 active torsions:
REMARK  status: ('A' for Active; 'I' for Inactive)
REMARK    1  A    between atoms: C_9  and  C_10 
REMARK       I    between atoms: C_10  and  N_11 
REMARK    2  A    between atoms: N_11  and  C_12 
REMARK    3  A    between atoms: C_14  and  C_15 
REMARK       I    between atoms: C_15  and  N_16 
REMARK    4  A    between atoms: N_16  and  C_17 
ROOT
HETATM    1  C   UNL     1      43.114 -16.956   5.199  1.00  0.00     0.277 C 
HETATM    2  N   UNL     1      41.745 -16.759   5.194  1.00  0.00    -0.322 N 
HETATM    3  O   UNL     1      43.959 -16.168   4.784  1.00  0.00    -0.266 OA
HETATM    4  H   UNL     1      41.229 -17.546   5.580  1.00  0.00     0.169 HD
ENDROOT
BRANCH   2   5
HETATM    5  C   UNL     1      41.019 -15.646   4.738  1.00  0.00     0.036 A 
HETATM    6  C   UNL     1      40.557 -14.625   5.572  1.00  0.00     0.046 A 
HETATM    7  C   UNL     1      39.814 -13.560   5.043  1.00  0.00     0.034 A 
HETATM    8  C   UNL     1      39.574 -13.493   3.666  1.00  0.00     0.017 A 
HETATM    9  C   UNL     1      40.041 -14.503   2.828  1.00  0.00     0.003 A 
HETATM   10  C   UNL     1      40.751 -15.579   3.364  1.00  0.00     0.029 A 
BRANCH   7  11
HETATM   11  C   UNL     1      39.269 -12.475   5.906  1.00  0.00     0.252 C 
HETATM   12  N   UNL     1      39.786 -12.399   7.186  1.00  0.00    -0.352 N 
HETATM   13  H   UNL     1      40.433 -13.110   7.502  1.00  0.00     0.163 HD
HETATM   14  O   UNL     1      38.383 -11.743   5.477  1.00  0.00    -0.268 OA
BRANCH  12  15
HETATM   15  C   UNL     1      39.341 -11.433   8.141  1.00  0.00     0.084 A 
HETATM   16  C   UNL     1      40.139 -11.175   9.391  1.00  0.00     0.027 A 
HETATM   17  C   UNL     1      40.085 -10.137   8.308  1.00  0.00     0.027 A 
ENDBRANCH  12  15
ENDBRANCH   7  11
ENDBRANCH   2   5
BRANCH   1  18
HETATM   18  C   UNL     1      43.473 -18.264   5.777  1.00  0.00     0.157 A 
HETATM   19  C   UNL     1      43.874 -19.442   5.081  1.00  0.00     0.029 A 
HETATM   20  C   UNL     1      44.056 -19.814   3.734  1.00  0.00     0.023 A 
HETATM   21  C   UNL     1      44.109 -20.386   6.074  1.00  0.00     0.063 A 
HETATM   22  C   UNL     1      44.459 -21.124   3.426  1.00  0.00    -0.061 A 
HETATM   23  C   UNL     1      44.649 -21.545   1.997  1.00  0.00     0.048 C 
HETATM   24  C   UNL     1      44.698 -22.040   4.458  1.00  0.00     0.009 A 
HETATM   25  C   UNL     1      44.528 -21.691   5.803  1.00  0.00     0.032 A 
HETATM   26  N   UNL     1      43.843 -19.745   7.252  1.00  0.00    -0.277 N 
HETATM   27  H   UNL     1      43.911 -20.131   8.187  1.00  0.00     0.189 HD
HETATM   28  N   UNL     1      43.438 -18.469   7.115  1.00  0.00    -0.168 NA
ENDBRANCH   1  18
TORSDOF 4
ENDMDL
MODEL 9
REMARK VINA RESULT:      -7.9      2.252      3.474
REMARK  4 active torsions:
REMARK  status: ('A' for Active; 'I' for Inactive)
REMARK    1  A    between atoms: C_9  and  C_10 
REMARK       I    between atoms: C_10  and  N_11 
REMARK    2  A    between atoms: N_11  and  C_12 
REMARK    3  A    between atoms: C_14  and  C_15 
REMARK       I    between atoms: C_15  and  N_16 
REMARK    4  A    between atoms: N_16  and  C_17 
ROOT
HETATM    1  C   UNL     1      41.113 -16.695   1.867  1.00  0.00     0.277 C 
HETATM    2  N   UNL     1      41.685 -15.923   0.871  1.00  0.00    -0.322 N 
HETATM    3  O   UNL     1      39.929 -17.005   1.951  1.00  0.00    -0.266 OA
HETATM    4  H   UNL     1      42.685 -15.784   1.002  1.00  0.00     0.169 HD
ENDROOT
BRANCH   2   5
HETATM    5  C   UNL     1      41.072 -15.339  -0.249  1.00  0.00     0.036 A 
HETATM    6  C   UNL     1      40.284 -14.187  -0.191  1.00  0.00     0.046 A 
HETATM    7  C   UNL     1      39.683 -13.680  -1.352  1.00  0.00     0.034 A 
HETATM    8  C   UNL     1      39.913 -14.303  -2.584  1.00  0.00     0.017 A 
HETATM    9  C   UNL     1      40.706 -15.446  -2.650  1.00  0.00     0.003 A 
HETATM   10  C   UNL     1      41.274 -15.966  -1.486  1.00  0.00     0.029 A 
BRANCH   7  11
HETATM   11  C   UNL     1      38.803 -12.480  -1.324  1.00  0.00     0.252 C 
HETATM   12  N   UNL     1      38.080 -12.283  -0.161  1.00  0.00    -0.352 N 
HETATM   13  H   UNL     1      38.116 -12.984   0.569  1.00  0.00     0.163 HD
HETATM   14  O   UNL     1      38.722 -11.760  -2.313  1.00  0.00    -0.268 OA
BRANCH  12  15
HETATM   15  C   UNL     1      37.168 -11.195   0.006  1.00  0.00     0.084 A 
HETATM   16  C   UNL     1      35.733 -11.455   0.375  1.00  0.00     0.027 A 
HETATM   17  C   UNL     1      36.664 -10.836   1.376  1.00  0.00     0.027 A 
ENDBRANCH  12  15
ENDBRANCH   7  11
ENDBRANCH   2   5
BRANCH   1  18
HETATM   18  C   UNL     1      42.113 -17.125   2.863  1.00  0.00     0.157 A 
HETATM   19  C   UNL     1      42.865 -18.336   2.872  1.00  0.00     0.029 A 
HETATM   20  C   UNL     1      42.951 -19.485   2.061  1.00  0.00     0.023 A 
HETATM   21  C   UNL     1      43.667 -18.254   4.005  1.00  0.00     0.063 A 
HETATM   22  C   UNL     1      43.833 -20.519   2.417  1.00  0.00    -0.061 A 
HETATM   23  C   UNL     1      43.934 -21.757   1.572  1.00  0.00     0.048 C 
HETATM   24  C   UNL     1      44.633 -20.390   3.559  1.00  0.00     0.009 A 
HETATM   25  C   UNL     1      44.567 -19.256   4.377  1.00  0.00     0.032 A 
HETATM   26  N   UNL     1      43.357 -17.054   4.581  1.00  0.00    -0.277 N 
HETATM   27  H   UNL     1      43.755 -16.661   5.427  1.00  0.00     0.189 HD
HETATM   28  N   UNL     1      42.410 -16.351   3.933  1.00  0.00    -0.168 NA
ENDBRANCH   1  18
TORSDOF 4
ENDMDL
MODEL 10
REMARK VINA RESULT:      -7.8      6.440      9.445
REMARK  4 active torsions:
REMARK  status: ('A' for Active; 'I' for Inactive)
REMARK    1  A    between atoms: C_9  and  C_10 
REMARK       I    between atoms: C_10  and  N_11 
REMARK    2  A    between atoms: N_11  and  C_12 
REMARK    3  A    between atoms: C_14  and  C_15 
REMARK       I    between atoms: C_15  and  N_16 
REMARK    4  A    between atoms: N_16  and  C_17 
ROOT
HETATM    1  C   UNL     1      43.485 -13.976   6.161  1.00  0.00     0.277 C 
HETATM    2  N   UNL     1      44.495 -13.965   7.107  1.00  0.00    -0.322 N 
HETATM    3  O   UNL     1      42.674 -13.077   5.959  1.00  0.00    -0.266 OA
HETATM    4  H   UNL     1      45.047 -14.819   7.108  1.00  0.00     0.169 HD
ENDROOT
BRANCH   2   5
HETATM    5  C   UNL     1      44.829 -12.954   8.024  1.00  0.00     0.036 A 
HETATM    6  C   UNL     1      43.925 -12.398   8.931  1.00  0.00     0.046 A 
HETATM    7  C   UNL     1      44.330 -11.371   9.796  1.00  0.00     0.034 A 
HETATM    8  C   UNL     1      45.660 -10.935   9.786  1.00  0.00     0.017 A 
HETATM    9  C   UNL     1      46.569 -11.493   8.890  1.00  0.00     0.003 A 
HETATM   10  C   UNL     1      46.152 -12.491   8.007  1.00  0.00     0.029 A 
BRANCH   7  11
HETATM   11  C   UNL     1      43.385 -10.724  10.748  1.00  0.00     0.252 C 
HETATM   12  N   UNL     1      42.201 -11.399  10.981  1.00  0.00    -0.352 N 
HETATM   13  H   UNL     1      41.995 -12.237  10.452  1.00  0.00     0.163 HD
HETATM   14  O   UNL     1      43.665  -9.636  11.239  1.00  0.00    -0.268 OA
BRANCH  12  15
HETATM   15  C   UNL     1      41.180 -10.890  11.844  1.00  0.00     0.084 A 
HETATM   16  C   UNL     1      40.337 -11.830  12.662  1.00  0.00     0.027 A 
HETATM   17  C   UNL     1      41.351 -10.954  13.336  1.00  0.00     0.027 A 
ENDBRANCH  12  15
ENDBRANCH   7  11
ENDBRANCH   2   5
BRANCH   1  18
HETATM   18  C   UNL     1      43.479 -15.231   5.387  1.00  0.00     0.157 A 
HETATM   19  C   UNL     1      43.656 -16.557   5.880  1.00  0.00     0.029 A 
HETATM   20  C   UNL     1      43.897 -17.151   7.135  1.00  0.00     0.023 A 
HETATM   21  C   UNL     1      43.554 -17.375   4.761  1.00  0.00     0.063 A 
HETATM   22  C   UNL     1      44.036 -18.547   7.226  1.00  0.00    -0.061 A 
HETATM   23  C   UNL     1      44.303 -19.200   8.551  1.00  0.00     0.048 C 
HETATM   24  C   UNL     1      43.912 -19.335   6.074  1.00  0.00     0.009 A 
HETATM   25  C   UNL     1      43.669 -18.766   4.818  1.00  0.00     0.032 A 
HETATM   26  N   UNL     1      43.334 -16.526   3.712  1.00  0.00    -0.277 N 
HETATM   27  H   UNL     1      43.207 -16.778   2.738  1.00  0.00     0.189 HD
HETATM   28  N   UNL     1      43.301 -15.223   4.046  1.00  0.00    -0.168 NA
ENDBRANCH   1  18
TORSDOF 4
ENDMDL
