MODEL 1
REMARK VINA RESULT:      -8.5      0.000      0.000
REMARK  3 active torsions:
REMARK  status: ('A' for Active; 'I' for Inactive)
REMARK    1  A    between atoms: C_4  and  N_5 
REMARK       I    between atoms: N_5  and  C_6 
REMARK    2  A    between atoms: C_6  and  C_7 
REMARK    3  A    between atoms: C_7  and  C_8 
ROOT
HETATM    1  C   UNL     1      41.170 -17.525   4.778  1.00  0.00     0.286 C 
HETATM    2  N   UNL     1      41.629 -17.542   3.324  1.00  0.00    -0.056 N 
HETATM    3  H   UNL     1      42.525 -17.010   3.308  1.00  0.00     0.278 HD
HETATM    4  H   UNL     1      41.857 -18.497   3.027  1.00  0.00     0.278 HD
HETATM    5  C   UNL     1      40.618 -16.905   2.405  1.00  0.00     0.209 C 
HETATM    6  C   UNL     1      40.388 -15.436   2.846  1.00  0.00     0.115 C 
HETATM    7  N   UNL     1      40.124 -15.324   4.282  1.00  0.00    -0.353 N 
HETATM    8  C   UNL     1      40.692 -16.131   5.240  1.00  0.00     0.249 C 
HETATM    9  O   UNL     1      40.705 -15.782   6.414  1.00  0.00    -0.271 OA
HETATM   10  C   UNL     1      41.100 -17.030   0.960  1.00  0.00     0.035 C 
HETATM   11  C   UNL     1      42.263 -16.100   0.629  1.00  0.00     0.002 C 
HETATM   12  C   UNL     1      41.938 -14.656   0.992  1.00  0.00     0.002 C 
HETATM   13  C   UNL     1      41.558 -14.518   2.462  1.00  0.00     0.027 C 
HETATM   14  H   UNL     1      39.815 -14.424   4.645  1.00  0.00     0.163 HD
ENDROOT
BRANCH   1  15
HETATM   15  C   UNL     1      42.246 -18.098   5.707  1.00  0.00     0.146 C 
BRANCH  15  16
HETATM   16  C   UNL     1      43.614 -17.611   5.302  1.00  0.00     0.224 C 
HETATM   17  N   UNL     1      44.557 -18.444   4.792  1.00  0.00    -0.327 N 
HETATM   18  H   UNL     1      45.468 -17.998   4.727  1.00  0.00     0.169 HD
HETATM   19  O   UNL     1      43.869 -16.406   5.430  1.00  0.00    -0.273 OA
BRANCH  17  20
HETATM   20  C   UNL     1      44.525 -19.787   4.365  1.00  0.00     0.035 A 
HETATM   21  C   UNL     1      44.307 -20.209   3.051  1.00  0.00     0.036 A 
HETATM   22  C   UNL     1      44.302 -21.575   2.720  1.00  0.00    -0.060 A 
HETATM   23  C   UNL     1      44.104 -22.019   1.299  1.00  0.00     0.048 C 
HETATM   24  C   UNL     1      44.554 -22.523   3.715  1.00  0.00     0.007 A 
HETATM   25  C   UNL     1      44.797 -22.115   5.022  1.00  0.00     0.003 A 
HETATM   26  C   UNL     1      44.789 -20.757   5.342  1.00  0.00     0.029 A 
ENDBRANCH  17  20
ENDBRANCH  15  16
ENDBRANCH   1  15
TORSDOF 3
ENDMDL
MODEL 2
REMARK VINA RESULT:      -8.2      1.377      1.723
REMARK  3 active torsions:
REMARK  status: ('A' for Active; 'I' for Inactive)
REMARK    1  A    between atoms: C_4  and  N_5 
REMARK       I    between atoms: N_5  and  C_6 
REMARK    2  A    between atoms: C_6  and  C_7 
REMARK    3  A    between atoms: C_7  and  C_8 
ROOT
HETATM    1  C   UNL     1      41.949 -17.607   5.276  1.00  0.00     0.286 C 
HETATM    2  N   UNL     1      42.808 -16.693   4.410  1.00  0.00    -0.056 N 
HETATM    3  H   UNL     1      43.324 -16.081   5.076  1.00  0.00     0.278 HD
HETATM    4  H   UNL     1      43.519 -17.233   3.905  1.00  0.00     0.278 HD
HETATM    5  C   UNL     1      41.974 -15.862   3.467  1.00  0.00     0.209 C 
HETATM    6  C   UNL     1      40.986 -14.997   4.293  1.00  0.00     0.115 C 
HETATM    7  N   UNL     1      40.255 -15.788   5.285  1.00  0.00    -0.353 N 
HETATM    8  C   UNL     1      40.781 -16.865   5.960  1.00  0.00     0.249 C 
HETATM    9  O   UNL     1      40.259 -17.260   6.995  1.00  0.00    -0.271 OA
HETATM   10  C   UNL     1      42.896 -15.033   2.573  1.00  0.00     0.035 C 
HETATM   11  C   UNL     1      43.561 -13.872   3.306  1.00  0.00     0.002 C 
HETATM   12  C   UNL     1      42.530 -13.001   4.014  1.00  0.00     0.002 C 
HETATM   13  C   UNL     1      41.679 -13.813   4.983  1.00  0.00     0.027 C 
HETATM   14  H   UNL     1      39.479 -15.345   5.774  1.00  0.00     0.163 HD
ENDROOT
BRANCH   1  15
HETATM   15  C   UNL     1      42.805 -18.380   6.286  1.00  0.00     0.146 C 
BRANCH  15  16
HETATM   16  C   UNL     1      44.271 -18.104   6.064  1.00  0.00     0.224 C 
HETATM   17  N   UNL     1      45.089 -18.995   5.447  1.00  0.00    -0.327 N 
HETATM   18  H   UNL     1      46.068 -18.733   5.523  1.00  0.00     0.169 HD
HETATM   19  O   UNL     1      44.728 -17.018   6.446  1.00  0.00    -0.273 OA
BRANCH  17  20
HETATM   20  C   UNL     1      44.852 -20.201   4.756  1.00  0.00     0.035 A 
HETATM   21  C   UNL     1      44.620 -20.309   3.383  1.00  0.00     0.036 A 
HETATM   22  C   UNL     1      44.402 -21.561   2.782  1.00  0.00    -0.060 A 
HETATM   23  C   UNL     1      44.191 -21.673   1.299  1.00  0.00     0.048 C 
HETATM   24  C   UNL     1      44.454 -22.717   3.565  1.00  0.00     0.007 A 
HETATM   25  C   UNL     1      44.710 -22.625   4.929  1.00  0.00     0.003 A 
HETATM   26  C   UNL     1      44.914 -21.376   5.518  1.00  0.00     0.029 A 
ENDBRANCH  17  20
ENDBRANCH  15  16
ENDBRANCH   1  15
TORSDOF 3
ENDMDL
MODEL 3
REMARK VINA RESULT:      -7.9      2.272      3.237
REMARK  3 active torsions:
REMARK  status: ('A' for Active; 'I' for Inactive)
REMARK    1  A    between atoms: C_4  and  N_5 
REMARK       I    between atoms: N_5  and  C_6 
REMARK    2  A    between atoms: C_6  and  C_7 
REMARK    3  A    between atoms: C_7  and  C_8 
ROOT
HETATM    1  C   UNL     1      43.505 -15.904   6.722  1.00  0.00     0.286 C 
HETATM    2  N   UNL     1      42.553 -15.968   5.533  1.00  0.00    -0.056 N 
HETATM    3  H   UNL     1      43.148 -15.821   4.690  1.00  0.00     0.278 HD
HETATM    4  H   UNL     1      42.151 -16.907   5.441  1.00  0.00     0.278 HD
HETATM    5  C   UNL     1      41.479 -14.912   5.613  1.00  0.00     0.209 C 
HETATM    6  C   UNL     1      42.146 -13.513   5.652  1.00  0.00     0.115 C 
HETATM    7  N   UNL     1      43.211 -13.436   6.655  1.00  0.00    -0.353 N 
HETATM    8  C   UNL     1      44.042 -14.480   6.986  1.00  0.00     0.249 C 
HETATM    9  O   UNL     1      45.103 -14.268   7.560  1.00  0.00    -0.271 OA
HETATM   10  C   UNL     1      40.513 -15.085   4.440  1.00  0.00     0.035 C 
HETATM   11  C   UNL     1      41.104 -14.648   3.104  1.00  0.00     0.002 C 
HETATM   12  C   UNL     1      41.652 -13.228   3.178  1.00  0.00     0.002 C 
HETATM   13  C   UNL     1      42.693 -13.085   4.283  1.00  0.00     0.027 C 
HETATM   14  H   UNL     1      43.609 -12.522   6.863  1.00  0.00     0.163 HD
ENDROOT
BRANCH   1  15
HETATM   15  C   UNL     1      44.639 -16.926   6.580  1.00  0.00     0.146 C 
BRANCH  15  16
HETATM   16  C   UNL     1      44.203 -18.278   7.085  1.00  0.00     0.224 C 
HETATM   17  N   UNL     1      43.766 -19.255   6.249  1.00  0.00    -0.327 N 
HETATM   18  H   UNL     1      43.358 -20.037   6.753  1.00  0.00     0.169 HD
HETATM   19  O   UNL     1      44.265 -18.499   8.301  1.00  0.00    -0.273 OA
BRANCH  17  20
HETATM   20  C   UNL     1      43.746 -19.383   4.845  1.00  0.00     0.035 A 
HETATM   21  C   UNL     1      42.900 -18.678   3.985  1.00  0.00     0.036 A 
HETATM   22  C   UNL     1      42.961 -18.867   2.593  1.00  0.00    -0.060 A 
HETATM   23  C   UNL     1      42.075 -18.078   1.673  1.00  0.00     0.048 C 
HETATM   24  C   UNL     1      43.906 -19.748   2.061  1.00  0.00     0.007 A 
HETATM   25  C   UNL     1      44.771 -20.437   2.904  1.00  0.00     0.003 A 
HETATM   26  C   UNL     1      44.695 -20.249   4.285  1.00  0.00     0.029 A 
ENDBRANCH  17  20
ENDBRANCH  15  16
ENDBRANCH   1  15
TORSDOF 3
ENDMDL
MODEL 4
REMARK VINA RESULT:      -7.9      1.921      3.121
REMARK  3 active torsions:
REMARK  status: ('A' for Active; 'I' for Inactive)
REMARK    1  A    between atoms: C_4  and  N_5 
REMARK       I    between atoms: N_5  and  C_6 
REMARK    2  A    between atoms: C_6  and  C_7 
REMARK    3  A    between atoms: C_7  and  C_8 
ROOT
HETATM    1  C   UNL     1      40.975 -16.972   3.542  1.00  0.00     0.286 C 
HETATM    2  N   UNL     1      40.924 -15.468   3.298  1.00  0.00    -0.056 N 
HETATM    3  H   UNL     1      41.917 -15.164   3.220  1.00  0.00     0.278 HD
HETATM    4  H   UNL     1      40.487 -15.262   2.393  1.00  0.00     0.278 HD
HETATM    5  C   UNL     1      40.233 -14.737   4.423  1.00  0.00     0.209 C 
HETATM    6  C   UNL     1      40.995 -15.010   5.746  1.00  0.00     0.115 C 
HETATM    7  N   UNL     1      41.247 -16.438   5.955  1.00  0.00    -0.353 N 
HETATM    8  C   UNL     1      41.506 -17.335   4.946  1.00  0.00     0.249 C 
HETATM    9  O   UNL     1      42.036 -18.411   5.197  1.00  0.00    -0.271 OA
HETATM   10  C   UNL     1      40.141 -13.251   4.077  1.00  0.00     0.035 C 
HETATM   11  C   UNL     1      41.479 -12.525   4.177  1.00  0.00     0.002 C 
HETATM   12  C   UNL     1      42.130 -12.748   5.537  1.00  0.00     0.002 C 
HETATM   13  C   UNL     1      42.315 -14.232   5.834  1.00  0.00     0.027 C 
HETATM   14  H   UNL     1      41.607 -16.734   6.861  1.00  0.00     0.163 HD
ENDROOT
BRANCH   1  15
HETATM   15  C   UNL     1      41.755 -17.688   2.433  1.00  0.00     0.146 C 
BRANCH  15  16
HETATM   16  C   UNL     1      43.194 -17.240   2.418  1.00  0.00     0.224 C 
HETATM   17  N   UNL     1      44.220 -18.097   2.656  1.00  0.00    -0.327 N 
HETATM   18  H   UNL     1      45.106 -17.611   2.773  1.00  0.00     0.169 HD
HETATM   19  O   UNL     1      43.437 -16.052   2.164  1.00  0.00    -0.273 OA
BRANCH  17  20
HETATM   20  C   UNL     1      44.292 -19.498   2.794  1.00  0.00     0.035 A 
HETATM   21  C   UNL     1      44.684 -20.173   3.953  1.00  0.00     0.036 A 
HETATM   22  C   UNL     1      44.715 -21.578   3.997  1.00  0.00    -0.060 A 
HETATM   23  C   UNL     1      45.101 -22.297   5.258  1.00  0.00     0.048 C 
HETATM   24  C   UNL     1      44.315 -22.309   2.876  1.00  0.00     0.007 A 
HETATM   25  C   UNL     1      43.899 -21.649   1.724  1.00  0.00     0.003 A 
HETATM   26  C   UNL     1      43.882 -20.254   1.688  1.00  0.00     0.029 A 
ENDBRANCH  17  20
ENDBRANCH  15  16
ENDBRANCH   1  15
TORSDOF 3
ENDMDL
MODEL 5
REMARK VINA RESULT:      -7.7      2.260      3.072
REMARK  3 active torsions:
REMARK  status: ('A' for Active; 'I' for Inactive)
REMARK    1  A    between atoms: C_4  and  N_5 
REMARK       I    between atoms: N_5  and  C_6 
REMARK    2  A    between atoms: C_6  and  C_7 
REMARK    3  A    between atoms: C_7  and  C_8 
ROOT
HETATM    1  C   UNL     1      40.065 -16.623   2.006  1.00  0.00     0.286 C 
HETATM    2  N   UNL     1      39.636 -15.559   1.002  1.00  0.00    -0.056 N 
HETATM    3  H   UNL     1      40.510 -15.060   0.733  1.00  0.00     0.278 HD
HETATM    4  H   UNL     1      39.276 -15.992   0.145  1.00  0.00     0.278 HD
HETATM    5  C   UNL     1      38.638 -14.595   1.594  1.00  0.00     0.209 C 
HETATM    6  C   UNL     1      39.273 -13.902   2.827  1.00  0.00     0.115 C 
HETATM    7  N   UNL     1      39.877 -14.864   3.752  1.00  0.00    -0.353 N 
HETATM    8  C   UNL     1      40.495 -16.030   3.365  1.00  0.00     0.249 C 
HETATM    9  O   UNL     1      41.262 -16.605   4.127  1.00  0.00    -0.271 OA
HETATM   10  C   UNL     1      38.187 -13.610   0.516  1.00  0.00     0.035 C 
HETATM   11  C   UNL     1      39.253 -12.578   0.159  1.00  0.00     0.002 C 
HETATM   12  C   UNL     1      39.765 -11.859   1.401  1.00  0.00     0.002 C 
HETATM   13  C   UNL     1      40.310 -12.840   2.433  1.00  0.00     0.027 C 
HETATM   14  H   UNL     1      40.188 -14.525   4.661  1.00  0.00     0.163 HD
ENDROOT
BRANCH   1  15
HETATM   15  C   UNL     1      41.142 -17.541   1.415  1.00  0.00     0.146 C 
BRANCH  15  16
HETATM   16  C   UNL     1      42.455 -16.810   1.292  1.00  0.00     0.224 C 
HETATM   17  N   UNL     1      43.588 -17.255   1.894  1.00  0.00    -0.327 N 
HETATM   18  H   UNL     1      44.338 -16.570   1.852  1.00  0.00     0.169 HD
HETATM   19  O   UNL     1      42.492 -15.782   0.604  1.00  0.00    -0.273 OA
BRANCH  17  20
HETATM   20  C   UNL     1      43.914 -18.447   2.573  1.00  0.00     0.035 A 
HETATM   21  C   UNL     1      44.020 -19.707   1.980  1.00  0.00     0.036 A 
HETATM   22  C   UNL     1      44.359 -20.839   2.741  1.00  0.00    -0.060 A 
HETATM   23  C   UNL     1      44.508 -22.184   2.090  1.00  0.00     0.048 C 
HETATM   24  C   UNL     1      44.629 -20.695   4.104  1.00  0.00     0.007 A 
HETATM   25  C   UNL     1      44.551 -19.441   4.702  1.00  0.00     0.003 A 
HETATM   26  C   UNL     1      44.203 -18.325   3.939  1.00  0.00     0.029 A 
ENDBRANCH  17  20
ENDBRANCH  15  16
ENDBRANCH   1  15
TORSDOF 3
ENDMDL
MODEL 6
REMARK VINA RESULT:      -7.7      2.293      3.677
REMARK  3 active torsions:
REMARK  status: ('A' for Active; 'I' for Inactive)
REMARK    1  A    between atoms: C_4  and  N_5 
REMARK       I    between atoms: N_5  and  C_6 
REMARK    2  A    between atoms: C_6  and  C_7 
REMARK    3  A    between atoms: C_7  and  C_8 
ROOT
HETATM    1  C   UNL     1      41.061 -16.215   4.117  1.00  0.00     0.286 C 
HETATM    2  N   UNL     1      42.042 -15.074   4.362  1.00  0.00    -0.056 N 
HETATM    3  H   UNL     1      42.981 -15.457   4.125  1.00  0.00     0.278 HD
HETATM    4  H   UNL     1      41.872 -14.302   3.708  1.00  0.00     0.278 HD
HETATM    5  C   UNL     1      42.010 -14.600   5.793  1.00  0.00     0.209 C 
HETATM    6  C   UNL     1      42.368 -15.786   6.727  1.00  0.00     0.115 C 
HETATM    7  N   UNL     1      41.588 -16.986   6.421  1.00  0.00    -0.353 N 
HETATM    8  C   UNL     1      41.188 -17.350   5.156  1.00  0.00     0.249 C 
HETATM    9  O   UNL     1      40.849 -18.504   4.923  1.00  0.00    -0.271 OA
HETATM   10  C   UNL     1      42.949 -13.405   5.951  1.00  0.00     0.035 C 
HETATM   11  C   UNL     1      44.425 -13.790   5.916  1.00  0.00     0.002 C 
HETATM   12  C   UNL     1      44.735 -14.888   6.926  1.00  0.00     0.002 C 
HETATM   13  C   UNL     1      43.866 -16.120   6.701  1.00  0.00     0.027 C 
HETATM   14  H   UNL     1      41.641 -17.771   7.068  1.00  0.00     0.163 HD
ENDROOT
BRANCH   1  15
HETATM   15  C   UNL     1      41.170 -16.740   2.680  1.00  0.00     0.146 C 
BRANCH  15  16
HETATM   16  C   UNL     1      42.462 -16.294   2.045  1.00  0.00     0.224 C 
HETATM   17  N   UNL     1      43.598 -17.035   2.120  1.00  0.00    -0.327 N 
HETATM   18  H   UNL     1      44.411 -16.524   1.789  1.00  0.00     0.169 HD
HETATM   19  O   UNL     1      42.472 -15.223   1.424  1.00  0.00    -0.273 OA
BRANCH  17  20
HETATM   20  C   UNL     1      43.867 -18.340   2.581  1.00  0.00     0.035 A 
HETATM   21  C   UNL     1      43.804 -19.497   1.800  1.00  0.00     0.036 A 
HETATM   22  C   UNL     1      44.100 -20.757   2.348  1.00  0.00    -0.060 A 
HETATM   23  C   UNL     1      44.068 -21.992   1.494  1.00  0.00     0.048 C 
HETATM   24  C   UNL     1      44.497 -20.849   3.685  1.00  0.00     0.007 A 
HETATM   25  C   UNL     1      44.587 -19.701   4.466  1.00  0.00     0.003 A 
HETATM   26  C   UNL     1      44.281 -18.456   3.914  1.00  0.00     0.029 A 
ENDBRANCH  17  20
ENDBRANCH  15  16
ENDBRANCH   1  15
TORSDOF 3
ENDMDL
MODEL 7
REMARK VINA RESULT:      -7.7      1.913      2.740
REMARK  3 active torsions:
REMARK  status: ('A' for Active; 'I' for Inactive)
REMARK    1  A    between atoms: C_4  and  N_5 
REMARK       I    between atoms: N_5  and  C_6 
REMARK    2  A    between atoms: C_6  and  C_7 
REMARK    3  A    between atoms: C_7  and  C_8 
ROOT
HETATM    1  C   UNL     1      42.020 -16.494   2.456  1.00  0.00     0.286 C 
HETATM    2  N   UNL     1      41.657 -15.110   2.982  1.00  0.00    -0.056 N 
HETATM    3  H   UNL     1      40.763 -15.235   3.503  1.00  0.00     0.278 HD
HETATM    4  H   UNL     1      42.348 -14.791   3.670  1.00  0.00     0.278 HD
HETATM    5  C   UNL     1      41.485 -14.110   1.867  1.00  0.00     0.209 C 
HETATM    6  C   UNL     1      40.362 -14.601   0.916  1.00  0.00     0.115 C 
HETATM    7  N   UNL     1      40.547 -15.997   0.516  1.00  0.00    -0.353 N 
HETATM    8  C   UNL     1      41.084 -16.971   1.324  1.00  0.00     0.249 C 
HETATM    9  O   UNL     1      40.901 -18.155   1.070  1.00  0.00    -0.271 OA
HETATM   10  C   UNL     1      41.207 -12.730   2.464  1.00  0.00     0.035 C 
HETATM   11  C   UNL     1      39.805 -12.599   3.050  1.00  0.00     0.002 C 
HETATM   12  C   UNL     1      38.740 -12.998   2.035  1.00  0.00     0.002 C 
HETATM   13  C   UNL     1      38.962 -14.415   1.518  1.00  0.00     0.027 C 
HETATM   14  H   UNL     1      39.950 -16.368  -0.222  1.00  0.00     0.163 HD
ENDROOT
BRANCH   1  15
HETATM   15  C   UNL     1      42.106 -17.516   3.596  1.00  0.00     0.146 C 
BRANCH  15  16
HETATM   16  C   UNL     1      43.336 -17.276   4.435  1.00  0.00     0.224 C 
HETATM   17  N   UNL     1      44.187 -18.278   4.772  1.00  0.00    -0.327 N 
HETATM   18  H   UNL     1      44.866 -17.986   5.470  1.00  0.00     0.169 HD
HETATM   19  O   UNL     1      43.575 -16.120   4.808  1.00  0.00    -0.273 OA
BRANCH  17  20
HETATM   20  C   UNL     1      44.295 -19.626   4.371  1.00  0.00     0.035 A 
HETATM   21  C   UNL     1      44.160 -20.087   3.060  1.00  0.00     0.036 A 
HETATM   22  C   UNL     1      44.294 -21.453   2.755  1.00  0.00    -0.060 A 
HETATM   23  C   UNL     1      44.185 -21.937   1.338  1.00  0.00     0.048 C 
HETATM   24  C   UNL     1      44.602 -22.357   3.775  1.00  0.00     0.007 A 
HETATM   25  C   UNL     1      44.765 -21.906   5.081  1.00  0.00     0.003 A 
HETATM   26  C   UNL     1      44.619 -20.549   5.374  1.00  0.00     0.029 A 
ENDBRANCH  17  20
ENDBRANCH  15  16
ENDBRANCH   1  15
TORSDOF 3
ENDMDL
MODEL 8
REMARK VINA RESULT:      -7.6      2.327      3.440
REMARK  3 active torsions:
REMARK  status: ('A' for Active; 'I' for Inactive)
REMARK    1  A    between atoms: C_4  and  N_5 
REMARK       I    between atoms: N_5  and  C_6 
REMARK    2  A    between atoms: C_6  and  C_7 
REMARK    3  A    between atoms: C_7  and  C_8 
ROOT
HETATM    1  C   UNL     1      41.162 -15.787   5.609  1.00  0.00     0.286 C 
HETATM    2  N   UNL     1      40.094 -14.801   5.150  1.00  0.00    -0.056 N 
HETATM    3  H   UNL     1      40.321 -14.585   4.157  1.00  0.00     0.278 HD
HETATM    4  H   UNL     1      39.169 -15.244   5.144  1.00  0.00     0.278 HD
HETATM    5  C   UNL     1      40.096 -13.541   5.980  1.00  0.00     0.209 C 
HETATM    6  C   UNL     1      41.488 -12.867   5.872  1.00  0.00     0.115 C 
HETATM    7  N   UNL     1      42.580 -13.810   6.119  1.00  0.00    -0.353 N 
HETATM    8  C   UNL     1      42.555 -15.138   5.761  1.00  0.00     0.249 C 
HETATM    9  O   UNL     1      43.597 -15.777   5.681  1.00  0.00    -0.271 OA
HETATM   10  C   UNL     1      38.952 -12.635   5.525  1.00  0.00     0.035 C 
HETATM   11  C   UNL     1      39.210 -11.970   4.176  1.00  0.00     0.002 C 
HETATM   12  C   UNL     1      40.546 -11.238   4.166  1.00  0.00     0.002 C 
HETATM   13  C   UNL     1      41.699 -12.170   4.520  1.00  0.00     0.027 C 
HETATM   14  H   UNL     1      43.523 -13.437   6.218  1.00  0.00     0.163 HD
ENDROOT
BRANCH   1  15
HETATM   15  C   UNL     1      41.202 -17.022   4.702  1.00  0.00     0.146 C 
BRANCH  15  16
HETATM   16  C   UNL     1      41.664 -16.651   3.315  1.00  0.00     0.224 C 
HETATM   17  N   UNL     1      42.633 -17.346   2.666  1.00  0.00    -0.327 N 
HETATM   18  H   UNL     1      42.942 -16.874   1.821  1.00  0.00     0.169 HD
HETATM   19  O   UNL     1      41.123 -15.689   2.755  1.00  0.00    -0.273 OA
BRANCH  17  20
HETATM   20  C   UNL     1      43.299 -18.558   2.943  1.00  0.00     0.035 A 
HETATM   21  C   UNL     1      43.357 -19.658   2.084  1.00  0.00     0.036 A 
HETATM   22  C   UNL     1      44.055 -20.823   2.445  1.00  0.00    -0.060 A 
HETATM   23  C   UNL     1      44.144 -21.988   1.501  1.00  0.00     0.048 C 
HETATM   24  C   UNL     1      44.730 -20.868   3.668  1.00  0.00     0.007 A 
HETATM   25  C   UNL     1      44.701 -19.770   4.521  1.00  0.00     0.003 A 
HETATM   26  C   UNL     1      43.996 -18.622   4.157  1.00  0.00     0.029 A 
ENDBRANCH  17  20
ENDBRANCH  15  16
ENDBRANCH   1  15
TORSDOF 3
ENDMDL
MODEL 9
REMARK VINA RESULT:      -7.5      3.889      6.070
REMARK  3 active torsions:
REMARK  status: ('A' for Active; 'I' for Inactive)
REMARK    1  A    between atoms: C_4  and  N_5 
REMARK       I    between atoms: N_5  and  C_6 
REMARK    2  A    between atoms: C_6  and  C_7 
REMARK    3  A    between atoms: C_7  and  C_8 
ROOT
HETATM    1  C   UNL     1      40.112 -13.270  -0.109  1.00  0.00     0.286 C 
HETATM    2  N   UNL     1      39.032 -13.674  -1.107  1.00  0.00    -0.056 N 
HETATM    3  H   UNL     1      38.827 -14.675  -0.906  1.00  0.00     0.278 HD
HETATM    4  H   UNL     1      38.162 -13.161  -0.928  1.00  0.00     0.278 HD
HETATM    5  C   UNL     1      39.490 -13.503  -2.534  1.00  0.00     0.209 C 
HETATM    6  C   UNL     1      40.750 -14.377  -2.769  1.00  0.00     0.115 C 
HETATM    7  N   UNL     1      41.763 -14.176  -1.731  1.00  0.00    -0.353 N 
HETATM    8  C   UNL     1      41.481 -13.917  -0.411  1.00  0.00     0.249 C 
HETATM    9  O   UNL     1      42.333 -14.097   0.451  1.00  0.00    -0.271 OA
HETATM   10  C   UNL     1      38.337 -13.844  -3.478  1.00  0.00     0.035 C 
HETATM   11  C   UNL     1      38.042 -15.338  -3.555  1.00  0.00     0.002 C 
HETATM   12  C   UNL     1      39.298 -16.134  -3.889  1.00  0.00     0.002 C 
HETATM   13  C   UNL     1      40.414 -15.871  -2.884  1.00  0.00     0.027 C 
HETATM   14  H   UNL     1      42.684 -14.589  -1.873  1.00  0.00     0.163 HD
ENDROOT
BRANCH   1  15
HETATM   15  C   UNL     1      39.660 -13.531   1.333  1.00  0.00     0.146 C 
BRANCH  15  16
HETATM   16  C   UNL     1      38.757 -14.736   1.399  1.00  0.00     0.224 C 
HETATM   17  N   UNL     1      39.213 -15.962   1.764  1.00  0.00    -0.327 N 
HETATM   18  H   UNL     1      38.525 -16.691   1.599  1.00  0.00     0.169 HD
HETATM   19  O   UNL     1      37.559 -14.587   1.125  1.00  0.00    -0.273 OA
BRANCH  17  20
HETATM   20  C   UNL     1      40.439 -16.415   2.292  1.00  0.00     0.035 A 
HETATM   21  C   UNL     1      41.356 -17.224   1.617  1.00  0.00     0.036 A 
HETATM   22  C   UNL     1      42.560 -17.618   2.226  1.00  0.00    -0.060 A 
HETATM   23  C   UNL     1      43.559 -18.456   1.480  1.00  0.00     0.048 C 
HETATM   24  C   UNL     1      42.859 -17.164   3.513  1.00  0.00     0.007 A 
HETATM   25  C   UNL     1      41.965 -16.338   4.187  1.00  0.00     0.003 A 
HETATM   26  C   UNL     1      40.768 -15.961   3.577  1.00  0.00     0.029 A 
ENDBRANCH  17  20
ENDBRANCH  15  16
ENDBRANCH   1  15
TORSDOF 3
ENDMDL
MODEL 10
REMARK VINA RESULT:      -7.5      2.630      3.794
REMARK  3 active torsions:
REMARK  status: ('A' for Active; 'I' for Inactive)
REMARK    1  A    between atoms: C_4  and  N_5 
REMARK       I    between atoms: N_5  and  C_6 
REMARK    2  A    between atoms: C_6  and  C_7 
REMARK    3  A    between atoms: C_7  and  C_8 
ROOT
HETATM    1  C   UNL     1      40.209 -15.766   2.519  1.00  0.00     0.286 C 
HETATM    2  N   UNL     1      39.154 -15.438   1.470  1.00  0.00    -0.056 N 
HETATM    3  H   UNL     1      39.618 -15.591   0.549  1.00  0.00     0.278 HD
HETATM    4  H   UNL     1      38.377 -16.107   1.514  1.00  0.00     0.278 HD
HETATM    5  C   UNL     1      38.664 -14.017   1.586  1.00  0.00     0.209 C 
HETATM    6  C   UNL     1      39.867 -13.052   1.414  1.00  0.00     0.115 C 
HETATM    7  N   UNL     1      40.999 -13.423   2.265  1.00  0.00    -0.353 N 
HETATM    8  C   UNL     1      41.340 -14.717   2.583  1.00  0.00     0.249 C 
HETATM    9  O   UNL     1      42.463 -14.976   2.999  1.00  0.00    -0.271 OA
HETATM   10  C   UNL     1      37.553 -13.780   0.564  1.00  0.00     0.035 C 
HETATM   11  C   UNL     1      38.063 -13.684  -0.870  1.00  0.00     0.002 C 
HETATM   12  C   UNL     1      39.174 -12.648  -0.995  1.00  0.00     0.002 C 
HETATM   13  C   UNL     1      40.329 -12.946  -0.047  1.00  0.00     0.027 C 
HETATM   14  H   UNL     1      41.779 -12.771   2.337  1.00  0.00     0.163 HD
ENDROOT
BRANCH   1  15
HETATM   15  C   UNL     1      40.756 -17.186   2.332  1.00  0.00     0.146 C 
BRANCH  15  16
HETATM   16  C   UNL     1      41.718 -17.238   1.172  1.00  0.00     0.224 C 
HETATM   17  N   UNL     1      42.941 -17.821   1.273  1.00  0.00    -0.327 N 
HETATM   18  H   UNL     1      43.525 -17.627   0.464  1.00  0.00     0.169 HD
HETATM   19  O   UNL     1      41.365 -16.744   0.094  1.00  0.00    -0.273 OA
BRANCH  17  20
HETATM   20  C   UNL     1      43.554 -18.606   2.271  1.00  0.00     0.035 A 
HETATM   21  C   UNL     1      43.901 -18.156   3.547  1.00  0.00     0.036 A 
HETATM   22  C   UNL     1      44.503 -19.018   4.480  1.00  0.00    -0.060 A 
HETATM   23  C   UNL     1      44.838 -18.538   5.863  1.00  0.00     0.048 C 
HETATM   24  C   UNL     1      44.724 -20.354   4.137  1.00  0.00     0.007 A 
HETATM   25  C   UNL     1      44.359 -20.821   2.878  1.00  0.00     0.003 A 
HETATM   26  C   UNL     1      43.773 -19.953   1.956  1.00  0.00     0.029 A 
ENDBRANCH  17  20
ENDBRANCH  15  16
ENDBRANCH   1  15
TORSDOF 3
ENDMDL
