MODEL 1
REMARK VINA RESULT:      -8.8      0.000      0.000
REMARK  9 active torsions:
REMARK  status: ('A' for Active; 'I' for Inactive)
REMARK    1  A    between atoms: C_2  and  C_3 
REMARK    2  A    between atoms: C_3  and  N_4 
REMARK    3  A    between atoms: N_4  and  C_7 
REMARK    4  A    between atoms: C_12  and  N_13 
REMARK       I    between atoms: N_13  and  C_14 
REMARK    5  A    between atoms: C_14  and  C_16 
REMARK    6  A    between atoms: C_20  and  C_22 
REMARK    7  A    between atoms: C_22  and  N_24 
REMARK       I    between atoms: N_24  and  C_25 
REMARK    8  A    between atoms: C_25  and  C_27 
REMARK    9  A    between atoms: C_30  and  O_31 
ROOT
HETATM    1  C   UNL     1      43.076 -14.985   4.748  1.00  0.00     0.033 A 
HETATM    2  C   UNL     1      42.516 -16.144   5.301  1.00  0.00     0.017 A 
HETATM    3  C   UNL     1      42.818 -16.521   6.607  1.00  0.00     0.002 A 
HETATM    4  C   UNL     1      43.673 -15.737   7.381  1.00  0.00     0.009 A 
HETATM    5  C   UNL     1      44.222 -14.553   6.865  1.00  0.00    -0.035 A 
HETATM    6  C   UNL     1      43.920 -14.191   5.536  1.00  0.00     0.026 A 
ENDROOT
BRANCH   1   7
HETATM    7  C   UNL     1      42.709 -14.635   3.343  1.00  0.00     0.257 C 
HETATM    8  N   UNL     1      41.658 -15.341   2.794  1.00  0.00    -0.301 N 
HETATM    9  H   UNL     1      41.132 -16.014   3.331  1.00  0.00     0.171 HD
HETATM   10  O   UNL     1      43.348 -13.744   2.794  1.00  0.00    -0.267 OA
BRANCH   8  11
HETATM   11  C   UNL     1      41.239 -15.102   1.513  1.00  0.00     0.174 A 
HETATM   12  N   UNL     1      41.639 -15.658   0.396  1.00  0.00    -0.228 NA
HETATM   13  C   UNL     1      40.962 -15.116  -0.661  1.00  0.00     0.050 A 
HETATM   14  C   UNL     1      41.230 -15.573  -2.050  1.00  0.00     0.062 C 
HETATM   15  C   UNL     1      40.017 -14.168  -0.331  1.00  0.00     0.013 A 
HETATM   16  C   UNL     1      40.622 -14.601  -3.075  1.00  0.00     0.039 C 
HETATM   17  C   UNL     1      39.188 -14.189  -2.678  1.00  0.00     0.191 C 
HETATM   18  C   UNL     1      39.155 -13.449  -1.309  1.00  0.00     0.081 C 
HETATM   19  S   UNL     1      40.012 -13.912   1.355  1.00  0.00    -0.055 SA
BRANCH  17  20
HETATM   20  N   UNL     1      38.598 -13.285  -3.739  1.00  0.00    -0.071 N 
HETATM   21  H   UNL     1      38.919 -13.588  -4.670  1.00  0.00     0.277 HD
HETATM   22  H   UNL     1      38.977 -12.336  -3.610  1.00  0.00     0.277 HD
BRANCH  20  23
HETATM   23  C   UNL     1      37.100 -13.181  -3.745  1.00  0.00     0.232 C 
BRANCH  23  24
HETATM   24  C   UNL     1      36.518 -14.426  -4.399  1.00  0.00     0.023 C 
HETATM   25  C   UNL     1      35.205 -14.111  -5.100  1.00  0.00     0.007 C 
ENDBRANCH  23  24
ENDBRANCH  20  23
ENDBRANCH  17  20
ENDBRANCH   8  11
ENDBRANCH   1   7
BRANCH   5  26
HETATM   26  C   UNL     1      45.165 -13.680   7.676  1.00  0.00     0.114 C 
HETATM   27  C   UNL     1      46.289 -13.058   6.845  1.00  0.00     0.037 C 
BRANCH  26  28
HETATM   28  N   UNL     1      44.407 -12.646   8.358  1.00  0.00    -0.349 N 
HETATM   29  C   UNL     1      44.676 -12.280   9.659  1.00  0.00     0.252 C 
HETATM   30  O   UNL     1      45.604 -12.730  10.322  1.00  0.00    -0.268 OA
HETATM   31  H   UNL     1      43.612 -12.252   7.875  1.00  0.00     0.163 HD
BRANCH  29  32
HETATM   32  C   UNL     1      43.778 -11.248  10.238  1.00  0.00     0.033 A 
HETATM   33  C   UNL     1      42.765 -10.717   9.434  1.00  0.00     0.020 A 
HETATM   34  C   UNL     1      41.886  -9.755   9.947  1.00  0.00     0.039 A 
HETATM   35  C   UNL     1      42.021  -9.304  11.264  1.00  0.00     0.089 A 
HETATM   36  C   UNL     1      43.059  -9.828  12.054  1.00  0.00     0.068 A 
HETATM   37 CL   UNL     1      43.301  -9.304  13.685  1.00  0.00    -0.081 Cl
HETATM   38  C   UNL     1      43.936 -10.792  11.548  1.00  0.00     0.043 A 
BRANCH  35  39
HETATM   39  O   UNL     1      41.210  -8.370  11.851  1.00  0.00    -0.354 OA
HETATM   40  C   UNL     1      39.894  -8.765  12.216  1.00  0.00     0.210 C 
ENDBRANCH  35  39
ENDBRANCH  29  32
ENDBRANCH  26  28
ENDBRANCH   5  26
TORSDOF 9
ENDMDL
MODEL 2
REMARK VINA RESULT:      -8.7      4.225     11.792
REMARK  9 active torsions:
REMARK  status: ('A' for Active; 'I' for Inactive)
REMARK    1  A    between atoms: C_2  and  C_3 
REMARK    2  A    between atoms: C_3  and  N_4 
REMARK    3  A    between atoms: N_4  and  C_7 
REMARK    4  A    between atoms: C_12  and  N_13 
REMARK       I    between atoms: N_13  and  C_14 
REMARK    5  A    between atoms: C_14  and  C_16 
REMARK    6  A    between atoms: C_20  and  C_22 
REMARK    7  A    between atoms: C_22  and  N_24 
REMARK       I    between atoms: N_24  and  C_25 
REMARK    8  A    between atoms: C_25  and  C_27 
REMARK    9  A    between atoms: C_30  and  O_31 
ROOT
HETATM    1  C   UNL     1      40.576 -12.608   4.599  1.00  0.00     0.033 A 
HETATM    2  C   UNL     1      39.562 -11.691   4.296  1.00  0.00     0.017 A 
HETATM    3  C   UNL     1      38.809 -11.828   3.132  1.00  0.00     0.002 A 
HETATM    4  C   UNL     1      39.055 -12.891   2.262  1.00  0.00     0.009 A 
HETATM    5  C   UNL     1      40.043 -13.844   2.557  1.00  0.00    -0.035 A 
HETATM    6  C   UNL     1      40.807 -13.684   3.731  1.00  0.00     0.026 A 
ENDROOT
BRANCH   1   7
HETATM    7  C   UNL     1      41.343 -12.406   5.865  1.00  0.00     0.257 C 
HETATM    8  N   UNL     1      40.963 -11.332   6.643  1.00  0.00    -0.301 N 
HETATM    9  H   UNL     1      40.175 -10.752   6.398  1.00  0.00     0.171 HD
HETATM   10  O   UNL     1      42.232 -13.211   6.126  1.00  0.00    -0.267 OA
BRANCH   8  11
HETATM   11  C   UNL     1      41.599 -11.053   7.823  1.00  0.00     0.174 A 
HETATM   12  N   UNL     1      42.882 -11.046   8.088  1.00  0.00    -0.228 NA
HETATM   13  C   UNL     1      43.083 -10.722   9.401  1.00  0.00     0.050 A 
HETATM   14  C   UNL     1      44.458 -10.645   9.962  1.00  0.00     0.062 C 
HETATM   15  C   UNL     1      41.941 -10.447  10.121  1.00  0.00     0.013 A 
HETATM   16  C   UNL     1      44.422 -10.611  11.499  1.00  0.00     0.039 C 
HETATM   17  C   UNL     1      43.338  -9.639  12.015  1.00  0.00     0.191 C 
HETATM   18  C   UNL     1      41.912 -10.066  11.559  1.00  0.00     0.081 C 
HETATM   19  S   UNL     1      40.565 -10.651   9.133  1.00  0.00    -0.055 SA
BRANCH  17  20
HETATM   20  N   UNL     1      43.374  -9.583  13.528  1.00  0.00    -0.071 N 
HETATM   21  H   UNL     1      43.346  -8.602  13.839  1.00  0.00     0.277 HD
HETATM   22  H   UNL     1      44.282  -9.950  13.849  1.00  0.00     0.277 HD
BRANCH  20  23
HETATM   23  C   UNL     1      42.296 -10.355  14.232  1.00  0.00     0.232 C 
BRANCH  23  24
HETATM   24  C   UNL     1      41.948  -9.647  15.534  1.00  0.00     0.023 C 
HETATM   25  C   UNL     1      41.676  -8.169  15.296  1.00  0.00     0.007 C 
ENDBRANCH  23  24
ENDBRANCH  20  23
ENDBRANCH  17  20
ENDBRANCH   8  11
ENDBRANCH   1   7
BRANCH   5  26
HETATM   26  C   UNL     1      40.344 -15.008   1.628  1.00  0.00     0.114 C 
HETATM   27  C   UNL     1      40.851 -14.575   0.251  1.00  0.00     0.037 C 
BRANCH  26  28
HETATM   28  N   UNL     1      41.296 -15.903   2.260  1.00  0.00    -0.349 N 
HETATM   29  C   UNL     1      41.406 -17.228   1.899  1.00  0.00     0.252 C 
HETATM   30  O   UNL     1      40.777 -17.745   0.982  1.00  0.00    -0.268 OA
HETATM   31  H   UNL     1      41.828 -15.545   3.042  1.00  0.00     0.163 HD
BRANCH  29  32
HETATM   32  C   UNL     1      42.385 -18.030   2.675  1.00  0.00     0.033 A 
HETATM   33  C   UNL     1      42.997 -19.122   2.052  1.00  0.00     0.020 A 
HETATM   34  C   UNL     1      43.939 -19.895   2.743  1.00  0.00     0.039 A 
HETATM   35  C   UNL     1      44.268 -19.591   4.068  1.00  0.00     0.089 A 
HETATM   36  C   UNL     1      43.627 -18.506   4.691  1.00  0.00     0.068 A 
HETATM   37 CL   UNL     1      43.967 -18.082   6.334  1.00  0.00    -0.081 Cl
HETATM   38  C   UNL     1      42.689 -17.729   4.004  1.00  0.00     0.043 A 
BRANCH  35  39
HETATM   39  O   UNL     1      45.176 -20.287   4.821  1.00  0.00    -0.354 OA
HETATM   40  C   UNL     1      44.895 -21.649   5.111  1.00  0.00     0.210 C 
ENDBRANCH  35  39
ENDBRANCH  29  32
ENDBRANCH  26  28
ENDBRANCH   5  26
TORSDOF 9
ENDMDL
MODEL 3
REMARK VINA RESULT:      -8.6      1.603      2.110
REMARK  9 active torsions:
REMARK  status: ('A' for Active; 'I' for Inactive)
REMARK    1  A    between atoms: C_2  and  C_3 
REMARK    2  A    between atoms: C_3  and  N_4 
REMARK    3  A    between atoms: N_4  and  C_7 
REMARK    4  A    between atoms: C_12  and  N_13 
REMARK       I    between atoms: N_13  and  C_14 
REMARK    5  A    between atoms: C_14  and  C_16 
REMARK    6  A    between atoms: C_20  and  C_22 
REMARK    7  A    between atoms: C_22  and  N_24 
REMARK       I    between atoms: N_24  and  C_25 
REMARK    8  A    between atoms: C_25  and  C_27 
REMARK    9  A    between atoms: C_30  and  O_31 
ROOT
HETATM    1  C   UNL     1      42.353 -15.767   5.019  1.00  0.00     0.033 A 
HETATM    2  C   UNL     1      41.979 -16.904   5.747  1.00  0.00     0.017 A 
HETATM    3  C   UNL     1      42.539 -17.158   6.997  1.00  0.00     0.002 A 
HETATM    4  C   UNL     1      43.470 -16.273   7.539  1.00  0.00     0.009 A 
HETATM    5  C   UNL     1      43.839 -15.109   6.846  1.00  0.00    -0.035 A 
HETATM    6  C   UNL     1      43.276 -14.872   5.576  1.00  0.00     0.026 A 
ENDROOT
BRANCH   1   7
HETATM    7  C   UNL     1      41.713 -15.551   3.687  1.00  0.00     0.257 C 
HETATM    8  N   UNL     1      42.527 -15.039   2.696  1.00  0.00    -0.301 N 
HETATM    9  H   UNL     1      43.510 -14.876   2.848  1.00  0.00     0.171 HD
HETATM   10  O   UNL     1      40.532 -15.857   3.567  1.00  0.00    -0.267 OA
BRANCH   8  11
HETATM   11  C   UNL     1      42.043 -14.801   1.437  1.00  0.00     0.174 A 
HETATM   12  N   UNL     1      41.832 -15.647   0.460  1.00  0.00    -0.228 NA
HETATM   13  C   UNL     1      41.351 -14.982  -0.634  1.00  0.00     0.050 A 
HETATM   14  C   UNL     1      41.027 -15.714  -1.887  1.00  0.00     0.062 C 
HETATM   15  C   UNL     1      41.164 -13.627  -0.464  1.00  0.00     0.013 A 
HETATM   16  C   UNL     1      40.841 -14.739  -3.061  1.00  0.00     0.039 C 
HETATM   17  C   UNL     1      39.981 -13.524  -2.651  1.00  0.00     0.191 C 
HETATM   18  C   UNL     1      40.645 -12.702  -1.507  1.00  0.00     0.081 C 
HETATM   19  S   UNL     1      41.655 -13.163   1.103  1.00  0.00    -0.055 SA
BRANCH  17  20
HETATM   20  N   UNL     1      39.765 -12.619  -3.845  1.00  0.00    -0.071 N 
HETATM   21  H   UNL     1      38.766 -12.608  -4.096  1.00  0.00     0.277 HD
HETATM   22  H   UNL     1      40.252 -13.025  -4.658  1.00  0.00     0.277 HD
BRANCH  20  23
HETATM   23  C   UNL     1      40.248 -11.206  -3.685  1.00  0.00     0.232 C 
BRANCH  23  24
HETATM   24  C   UNL     1      41.471 -10.997  -4.568  1.00  0.00     0.023 C 
HETATM   25  C   UNL     1      42.547 -10.212  -3.833  1.00  0.00     0.007 C 
ENDBRANCH  23  24
ENDBRANCH  20  23
ENDBRANCH  17  20
ENDBRANCH   8  11
ENDBRANCH   1   7
BRANCH   5  26
HETATM   26  C   UNL     1      44.858 -14.128   7.402  1.00  0.00     0.114 C 
HETATM   27  C   UNL     1      45.807 -13.567   6.342  1.00  0.00     0.037 C 
BRANCH  26  28
HETATM   28  N   UNL     1      44.172 -13.050   8.091  1.00  0.00    -0.349 N 
HETATM   29  C   UNL     1      44.691 -12.458   9.221  1.00  0.00     0.252 C 
HETATM   30  O   UNL     1      45.788 -12.727   9.697  1.00  0.00    -0.268 OA
HETATM   31  H   UNL     1      43.250 -12.797   7.764  1.00  0.00     0.163 HD
BRANCH  29  32
HETATM   32  C   UNL     1      43.847 -11.408   9.846  1.00  0.00     0.033 A 
HETATM   33  C   UNL     1      42.836 -10.819   9.079  1.00  0.00     0.020 A 
HETATM   34  C   UNL     1      42.006  -9.838   9.635  1.00  0.00     0.039 A 
HETATM   35  C   UNL     1      42.186  -9.426  10.959  1.00  0.00     0.089 A 
HETATM   36  C   UNL     1      43.222 -10.007  11.712  1.00  0.00     0.068 A 
HETATM   37 CL   UNL     1      43.519  -9.534  13.350  1.00  0.00    -0.081 Cl
HETATM   38  C   UNL     1      44.050 -10.991  11.162  1.00  0.00     0.043 A 
BRANCH  35  39
HETATM   39  O   UNL     1      41.425  -8.477  11.587  1.00  0.00    -0.354 OA
HETATM   40  C   UNL     1      40.642  -7.609  10.778  1.00  0.00     0.210 C 
ENDBRANCH  35  39
ENDBRANCH  29  32
ENDBRANCH  26  28
ENDBRANCH   5  26
TORSDOF 9
ENDMDL
MODEL 4
REMARK VINA RESULT:      -8.4      4.365      7.170
REMARK  9 active torsions:
REMARK  status: ('A' for Active; 'I' for Inactive)
REMARK    1  A    between atoms: C_2  and  C_3 
REMARK    2  A    between atoms: C_3  and  N_4 
REMARK    3  A    between atoms: N_4  and  C_7 
REMARK    4  A    between atoms: C_12  and  N_13 
REMARK       I    between atoms: N_13  and  C_14 
REMARK    5  A    between atoms: C_14  and  C_16 
REMARK    6  A    between atoms: C_20  and  C_22 
REMARK    7  A    between atoms: C_22  and  N_24 
REMARK       I    between atoms: N_24  and  C_25 
REMARK    8  A    between atoms: C_25  and  C_27 
REMARK    9  A    between atoms: C_30  and  O_31 
ROOT
HETATM    1  C   UNL     1      39.662 -12.365   4.518  1.00  0.00     0.033 A 
HETATM    2  C   UNL     1      39.001 -12.255   3.288  1.00  0.00     0.017 A 
HETATM    3  C   UNL     1      38.403 -11.055   2.911  1.00  0.00     0.002 A 
HETATM    4  C   UNL     1      38.468  -9.947   3.755  1.00  0.00     0.009 A 
HETATM    5  C   UNL     1      39.152 -10.018   4.979  1.00  0.00    -0.035 A 
HETATM    6  C   UNL     1      39.740 -11.243   5.354  1.00  0.00     0.026 A 
ENDROOT
BRANCH   1   7
HETATM    7  C   UNL     1      40.285 -13.678   4.860  1.00  0.00     0.257 C 
HETATM    8  N   UNL     1      41.583 -13.867   4.432  1.00  0.00    -0.301 N 
HETATM    9  H   UNL     1      42.099 -13.138   3.964  1.00  0.00     0.171 HD
HETATM   10  O   UNL     1      39.612 -14.476   5.505  1.00  0.00    -0.267 OA
BRANCH   8  11
HETATM   11  C   UNL     1      42.250 -15.035   4.690  1.00  0.00     0.174 A 
HETATM   12  N   UNL     1      43.048 -15.327   5.686  1.00  0.00    -0.228 NA
HETATM   13  C   UNL     1      43.510 -16.607   5.552  1.00  0.00     0.050 A 
HETATM   14  C   UNL     1      44.440 -17.189   6.555  1.00  0.00     0.062 C 
HETATM   15  C   UNL     1      43.025 -17.296   4.461  1.00  0.00     0.013 A 
HETATM   16  C   UNL     1      45.083 -18.480   6.024  1.00  0.00     0.039 C 
HETATM   17  C   UNL     1      44.037 -19.391   5.344  1.00  0.00     0.191 C 
HETATM   18  C   UNL     1      43.378 -18.699   4.115  1.00  0.00     0.081 C 
HETATM   19  S   UNL     1      41.994 -16.290   3.547  1.00  0.00    -0.055 SA
BRANCH  17  20
HETATM   20  N   UNL     1      44.692 -20.678   4.891  1.00  0.00    -0.071 N 
HETATM   21  H   UNL     1      44.092 -21.478   5.137  1.00  0.00     0.277 HD
HETATM   22  H   UNL     1      45.563 -20.810   5.426  1.00  0.00     0.277 HD
BRANCH  20  23
HETATM   23  C   UNL     1      45.038 -20.753   3.432  1.00  0.00     0.232 C 
BRANCH  23  24
HETATM   24  C   UNL     1      44.463 -22.037   2.850  1.00  0.00     0.023 C 
HETATM   25  C   UNL     1      43.701 -21.761   1.564  1.00  0.00     0.007 C 
ENDBRANCH  23  24
ENDBRANCH  20  23
ENDBRANCH  17  20
ENDBRANCH   8  11
ENDBRANCH   1   7
BRANCH   5  26
HETATM   26  C   UNL     1      39.235  -8.833   5.927  1.00  0.00     0.114 C 
HETATM   27  C   UNL     1      37.944  -8.016   5.998  1.00  0.00     0.037 C 
BRANCH  26  28
HETATM   28  N   UNL     1      39.616  -9.294   7.250  1.00  0.00    -0.349 N 
HETATM   29  C   UNL     1      40.907  -9.181   7.720  1.00  0.00     0.252 C 
HETATM   30  O   UNL     1      41.815  -8.629   7.109  1.00  0.00    -0.268 OA
HETATM   31  H   UNL     1      38.920  -9.781   7.796  1.00  0.00     0.163 HD
BRANCH  29  32
HETATM   32  C   UNL     1      41.155  -9.749   9.069  1.00  0.00     0.033 A 
HETATM   33  C   UNL     1      40.056 -10.085   9.865  1.00  0.00     0.020 A 
HETATM   34  C   UNL     1      40.245 -10.639  11.138  1.00  0.00     0.039 A 
HETATM   35  C   UNL     1      41.537 -10.851  11.631  1.00  0.00     0.089 A 
HETATM   36  C   UNL     1      42.634 -10.485  10.831  1.00  0.00     0.068 A 
HETATM   37 CL   UNL     1      44.260 -10.698  11.383  1.00  0.00    -0.081 Cl
HETATM   38  C   UNL     1      42.449  -9.936   9.559  1.00  0.00     0.043 A 
BRANCH  35  39
HETATM   39  O   UNL     1      41.819 -11.387  12.859  1.00  0.00    -0.354 OA
HETATM   40  C   UNL     1      41.942 -10.499  13.962  1.00  0.00     0.210 C 
ENDBRANCH  35  39
ENDBRANCH  29  32
ENDBRANCH  26  28
ENDBRANCH   5  26
TORSDOF 9
ENDMDL
MODEL 5
REMARK VINA RESULT:      -8.3      4.074     10.836
REMARK  9 active torsions:
REMARK  status: ('A' for Active; 'I' for Inactive)
REMARK    1  A    between atoms: C_2  and  C_3 
REMARK    2  A    between atoms: C_3  and  N_4 
REMARK    3  A    between atoms: N_4  and  C_7 
REMARK    4  A    between atoms: C_12  and  N_13 
REMARK       I    between atoms: N_13  and  C_14 
REMARK    5  A    between atoms: C_14  and  C_16 
REMARK    6  A    between atoms: C_20  and  C_22 
REMARK    7  A    between atoms: C_22  and  N_24 
REMARK       I    between atoms: N_24  and  C_25 
REMARK    8  A    between atoms: C_25  and  C_27 
REMARK    9  A    between atoms: C_30  and  O_31 
ROOT
HETATM    1  C   UNL     1      38.932 -12.474   2.419  1.00  0.00     0.033 A 
HETATM    2  C   UNL     1      37.756 -12.210   1.706  1.00  0.00     0.017 A 
HETATM    3  C   UNL     1      37.490 -12.873   0.509  1.00  0.00     0.002 A 
HETATM    4  C   UNL     1      38.392 -13.816   0.018  1.00  0.00     0.009 A 
HETATM    5  C   UNL     1      39.562 -14.125   0.729  1.00  0.00    -0.035 A 
HETATM    6  C   UNL     1      39.826 -13.436   1.930  1.00  0.00     0.026 A 
ENDROOT
BRANCH   1   7
HETATM    7  C   UNL     1      39.155 -11.732   3.696  1.00  0.00     0.257 C 
HETATM    8  N   UNL     1      39.649 -12.470   4.752  1.00  0.00    -0.301 N 
HETATM    9  H   UNL     1      39.898 -13.442   4.649  1.00  0.00     0.171 HD
HETATM   10  O   UNL     1      38.904 -10.531   3.707  1.00  0.00    -0.267 OA
BRANCH   8  11
HETATM   11  C   UNL     1      39.889 -11.891   5.968  1.00  0.00     0.174 A 
HETATM   12  N   UNL     1      39.044 -11.593   6.923  1.00  0.00    -0.228 NA
HETATM   13  C   UNL     1      39.707 -11.014   7.968  1.00  0.00     0.050 A 
HETATM   14  C   UNL     1      38.975 -10.578   9.186  1.00  0.00     0.062 C 
HETATM   15  C   UNL     1      41.073 -10.909   7.813  1.00  0.00     0.013 A 
HETATM   16  C   UNL     1      39.851  -9.661  10.056  1.00  0.00     0.039 C 
HETATM   17  C   UNL     1      41.284 -10.219  10.194  1.00  0.00     0.191 C 
HETATM   18  C   UNL     1      42.002 -10.323   8.817  1.00  0.00     0.081 C 
HETATM   19  S   UNL     1      41.533 -11.510   6.284  1.00  0.00    -0.055 SA
BRANCH  17  20
HETATM   20  N   UNL     1      42.099  -9.327  11.107  1.00  0.00    -0.071 N 
HETATM   21  H   UNL     1      41.532  -9.056  11.924  1.00  0.00     0.277 HD
HETATM   22  H   UNL     1      42.305  -8.448  10.609  1.00  0.00     0.277 HD
BRANCH  20  23
HETATM   23  C   UNL     1      43.404  -9.899  11.580  1.00  0.00     0.232 C 
BRANCH  23  24
HETATM   24  C   UNL     1      43.508  -9.716  13.088  1.00  0.00     0.023 C 
HETATM   25  C   UNL     1      42.349 -10.394  13.802  1.00  0.00     0.007 C 
ENDBRANCH  23  24
ENDBRANCH  20  23
ENDBRANCH  17  20
ENDBRANCH   8  11
ENDBRANCH   1   7
BRANCH   5  26
HETATM   26  C   UNL     1      40.572 -15.140   0.218  1.00  0.00     0.114 C 
HETATM   27  C   UNL     1      41.560 -14.562  -0.796  1.00  0.00     0.037 C 
BRANCH  26  28
HETATM   28  N   UNL     1      41.282 -15.728   1.340  1.00  0.00    -0.349 N 
HETATM   29  C   UNL     1      41.227 -17.077   1.613  1.00  0.00     0.252 C 
HETATM   30  O   UNL     1      40.649 -17.899   0.911  1.00  0.00    -0.268 OA
HETATM   31  H   UNL     1      41.759 -15.102   1.973  1.00  0.00     0.163 HD
BRANCH  29  32
HETATM   32  C   UNL     1      41.960 -17.520   2.827  1.00  0.00     0.033 A 
HETATM   33  C   UNL     1      43.076 -18.348   2.669  1.00  0.00     0.020 A 
HETATM   34  C   UNL     1      43.805 -18.775   3.786  1.00  0.00     0.039 A 
HETATM   35  C   UNL     1      43.418 -18.388   5.073  1.00  0.00     0.089 A 
HETATM   36  C   UNL     1      42.279 -17.576   5.220  1.00  0.00     0.068 A 
HETATM   37 CL   UNL     1      41.728 -17.074   6.782  1.00  0.00    -0.081 Cl
HETATM   38  C   UNL     1      41.551 -17.144   4.107  1.00  0.00     0.043 A 
BRANCH  35  39
HETATM   39  O   UNL     1      44.068 -18.753   6.221  1.00  0.00    -0.354 OA
HETATM   40  C   UNL     1      45.245 -18.039   6.576  1.00  0.00     0.210 C 
ENDBRANCH  35  39
ENDBRANCH  29  32
ENDBRANCH  26  28
ENDBRANCH   5  26
TORSDOF 9
ENDMDL
MODEL 6
REMARK VINA RESULT:      -8.0      4.291      8.708
REMARK  9 active torsions:
REMARK  status: ('A' for Active; 'I' for Inactive)
REMARK    1  A    between atoms: C_2  and  C_3 
REMARK    2  A    between atoms: C_3  and  N_4 
REMARK    3  A    between atoms: N_4  and  C_7 
REMARK    4  A    between atoms: C_12  and  N_13 
REMARK       I    between atoms: N_13  and  C_14 
REMARK    5  A    between atoms: C_14  and  C_16 
REMARK    6  A    between atoms: C_20  and  C_22 
REMARK    7  A    between atoms: C_22  and  N_24 
REMARK       I    between atoms: N_24  and  C_25 
REMARK    8  A    between atoms: C_25  and  C_27 
REMARK    9  A    between atoms: C_30  and  O_31 
ROOT
HETATM    1  C   UNL     1      39.284 -13.799  -0.353  1.00  0.00     0.033 A 
HETATM    2  C   UNL     1      38.940 -13.964  -1.701  1.00  0.00     0.017 A 
HETATM    3  C   UNL     1      37.920 -13.205  -2.269  1.00  0.00     0.002 A 
HETATM    4  C   UNL     1      37.239 -12.262  -1.499  1.00  0.00     0.009 A 
HETATM    5  C   UNL     1      37.585 -12.051  -0.155  1.00  0.00    -0.035 A 
HETATM    6  C   UNL     1      38.609 -12.837   0.411  1.00  0.00     0.026 A 
ENDROOT
BRANCH   1   7
HETATM    7  C   UNL     1      40.389 -14.642   0.193  1.00  0.00     0.257 C 
HETATM    8  N   UNL     1      40.014 -15.659   1.047  1.00  0.00    -0.301 N 
HETATM    9  H   UNL     1      39.045 -15.856   1.245  1.00  0.00     0.171 HD
HETATM   10  O   UNL     1      41.533 -14.384  -0.168  1.00  0.00    -0.267 OA
BRANCH   8  11
HETATM   11  C   UNL     1      40.945 -16.492   1.607  1.00  0.00     0.174 A 
HETATM   12  N   UNL     1      41.633 -17.456   1.047  1.00  0.00    -0.228 NA
HETATM   13  C   UNL     1      42.448 -18.044   1.974  1.00  0.00     0.050 A 
HETATM   14  C   UNL     1      43.339 -19.173   1.596  1.00  0.00     0.062 C 
HETATM   15  C   UNL     1      42.399 -17.492   3.236  1.00  0.00     0.013 A 
HETATM   16  C   UNL     1      43.886 -19.883   2.845  1.00  0.00     0.039 C 
HETATM   17  C   UNL     1      44.362 -18.867   3.906  1.00  0.00     0.191 C 
HETATM   18  C   UNL     1      43.199 -17.957   4.401  1.00  0.00     0.081 C 
HETATM   19  S   UNL     1      41.256 -16.225   3.274  1.00  0.00    -0.055 SA
BRANCH  17  20
HETATM   20  N   UNL     1      44.952 -19.599   5.093  1.00  0.00    -0.071 N 
HETATM   21  H   UNL     1      45.726 -19.047   5.490  1.00  0.00     0.277 HD
HETATM   22  H   UNL     1      45.378 -20.476   4.760  1.00  0.00     0.277 HD
BRANCH  20  23
HETATM   23  C   UNL     1      43.985 -19.949   6.187  1.00  0.00     0.232 C 
BRANCH  23  24
HETATM   24  C   UNL     1      43.953 -21.462   6.356  1.00  0.00     0.023 C 
HETATM   25  C   UNL     1      44.886 -22.141   5.365  1.00  0.00     0.007 C 
ENDBRANCH  23  24
ENDBRANCH  20  23
ENDBRANCH  17  20
ENDBRANCH   8  11
ENDBRANCH   1   7
BRANCH   5  26
HETATM   26  C   UNL     1      36.858 -11.039   0.716  1.00  0.00     0.114 C 
HETATM   27  C   UNL     1      35.337 -11.198   0.697  1.00  0.00     0.037 C 
BRANCH  26  28
HETATM   28  N   UNL     1      37.360 -11.118   2.076  1.00  0.00    -0.349 N 
HETATM   29  C   UNL     1      38.151 -10.131   2.622  1.00  0.00     0.252 C 
HETATM   30  O   UNL     1      38.438  -9.085   2.050  1.00  0.00    -0.268 OA
HETATM   31  H   UNL     1      37.180 -11.967   2.594  1.00  0.00     0.163 HD
BRANCH  29  32
HETATM   32  C   UNL     1      38.633 -10.380   4.004  1.00  0.00     0.033 A 
HETATM   33  C   UNL     1      38.748  -9.294   4.877  1.00  0.00     0.020 A 
HETATM   34  C   UNL     1      39.182  -9.488   6.195  1.00  0.00     0.039 A 
HETATM   35  C   UNL     1      39.518 -10.768   6.648  1.00  0.00     0.089 A 
HETATM   36  C   UNL     1      39.422 -11.847   5.752  1.00  0.00     0.068 A 
HETATM   37 CL   UNL     1      39.840 -13.456   6.234  1.00  0.00    -0.081 Cl
HETATM   38  C   UNL     1      38.985 -11.659   4.438  1.00  0.00     0.043 A 
BRANCH  35  39
HETATM   39  O   UNL     1      39.949 -11.053   7.916  1.00  0.00    -0.354 OA
HETATM   40  C   UNL     1      39.227 -10.496   9.006  1.00  0.00     0.210 C 
ENDBRANCH  35  39
ENDBRANCH  29  32
ENDBRANCH  26  28
ENDBRANCH   5  26
TORSDOF 9
ENDMDL
MODEL 7
REMARK VINA RESULT:      -8.0      5.027     10.759
REMARK  9 active torsions:
REMARK  status: ('A' for Active; 'I' for Inactive)
REMARK    1  A    between atoms: C_2  and  C_3 
REMARK    2  A    between atoms: C_3  and  N_4 
REMARK    3  A    between atoms: N_4  and  C_7 
REMARK    4  A    between atoms: C_12  and  N_13 
REMARK       I    between atoms: N_13  and  C_14 
REMARK    5  A    between atoms: C_14  and  C_16 
REMARK    6  A    between atoms: C_20  and  C_22 
REMARK    7  A    between atoms: C_22  and  N_24 
REMARK       I    between atoms: N_24  and  C_25 
REMARK    8  A    between atoms: C_25  and  C_27 
REMARK    9  A    between atoms: C_30  and  O_31 
ROOT
HETATM    1  C   UNL     1      39.833 -12.365   4.857  1.00  0.00     0.033 A 
HETATM    2  C   UNL     1      39.983 -11.442   5.900  1.00  0.00     0.017 A 
HETATM    3  C   UNL     1      39.419 -10.171   5.805  1.00  0.00     0.002 A 
HETATM    4  C   UNL     1      38.688  -9.814   4.673  1.00  0.00     0.009 A 
HETATM    5  C   UNL     1      38.493 -10.730   3.628  1.00  0.00    -0.035 A 
HETATM    6  C   UNL     1      39.083 -12.006   3.729  1.00  0.00     0.026 A 
ENDROOT
BRANCH   1   7
HETATM    7  C   UNL     1      40.460 -13.710   5.022  1.00  0.00     0.257 C 
HETATM    8  N   UNL     1      41.804 -13.798   4.718  1.00  0.00    -0.301 N 
HETATM    9  H   UNL     1      42.343 -12.987   4.455  1.00  0.00     0.171 HD
HETATM   10  O   UNL     1      39.749 -14.623   5.429  1.00  0.00    -0.267 OA
BRANCH   8  11
HETATM   11  C   UNL     1      42.479 -14.983   4.833  1.00  0.00     0.174 A 
HETATM   12  N   UNL     1      43.067 -15.501   5.883  1.00  0.00    -0.228 NA
HETATM   13  C   UNL     1      43.633 -16.701   5.555  1.00  0.00     0.050 A 
HETATM   14  C   UNL     1      44.367 -17.499   6.572  1.00  0.00     0.062 C 
HETATM   15  C   UNL     1      43.435 -17.108   4.253  1.00  0.00     0.013 A 
HETATM   16  C   UNL     1      45.194 -18.611   5.905  1.00  0.00     0.039 C 
HETATM   17  C   UNL     1      44.378 -19.341   4.815  1.00  0.00     0.191 C 
HETATM   18  C   UNL     1      43.948 -18.378   3.670  1.00  0.00     0.081 C 
HETATM   19  S   UNL     1      42.554 -15.922   3.398  1.00  0.00    -0.055 SA
BRANCH  17  20
HETATM   20  N   UNL     1      45.199 -20.469   4.226  1.00  0.00    -0.071 N 
HETATM   21  H   UNL     1      46.151 -20.446   4.618  1.00  0.00     0.277 HD
HETATM   22  H   UNL     1      45.311 -20.301   3.216  1.00  0.00     0.277 HD
BRANCH  20  23
HETATM   23  C   UNL     1      44.628 -21.847   4.399  1.00  0.00     0.232 C 
BRANCH  23  24
HETATM   24  C   UNL     1      44.674 -22.574   3.062  1.00  0.00     0.023 C 
HETATM   25  C   UNL     1      43.977 -21.768   1.977  1.00  0.00     0.007 C 
ENDBRANCH  23  24
ENDBRANCH  20  23
ENDBRANCH  17  20
ENDBRANCH   8  11
ENDBRANCH   1   7
BRANCH   5  26
HETATM   26  C   UNL     1      37.711 -10.371   2.374  1.00  0.00     0.114 C 
HETATM   27  C   UNL     1      37.762  -8.881   2.029  1.00  0.00     0.037 C 
BRANCH  26  28
HETATM   28  N   UNL     1      38.188 -11.167   1.258  1.00  0.00    -0.349 N 
HETATM   29  C   UNL     1      37.331 -11.888   0.456  1.00  0.00     0.252 C 
HETATM   30  O   UNL     1      36.109 -11.867   0.561  1.00  0.00    -0.268 OA
HETATM   31  H   UNL     1      39.187 -11.246   1.131  1.00  0.00     0.163 HD
BRANCH  29  32
HETATM   32  C   UNL     1      37.973 -12.698  -0.611  1.00  0.00     0.033 A 
HETATM   33  C   UNL     1      37.459 -12.621  -1.909  1.00  0.00     0.020 A 
HETATM   34  C   UNL     1      38.045 -13.355  -2.948  1.00  0.00     0.039 A 
HETATM   35  C   UNL     1      39.143 -14.184  -2.696  1.00  0.00     0.089 A 
HETATM   36  C   UNL     1      39.635 -14.272  -1.381  1.00  0.00     0.068 A 
HETATM   37 CL   UNL     1      40.977 -15.292  -0.989  1.00  0.00    -0.081 Cl
HETATM   38  C   UNL     1      39.055 -13.537  -0.342  1.00  0.00     0.043 A 
BRANCH  35  39
HETATM   39  O   UNL     1      39.781 -14.936  -3.645  1.00  0.00    -0.354 OA
HETATM   40  C   UNL     1      39.074 -16.029  -4.215  1.00  0.00     0.210 C 
ENDBRANCH  35  39
ENDBRANCH  29  32
ENDBRANCH  26  28
ENDBRANCH   5  26
TORSDOF 9
ENDMDL
MODEL 8
REMARK VINA RESULT:      -7.7      4.224      4.980
REMARK  9 active torsions:
REMARK  status: ('A' for Active; 'I' for Inactive)
REMARK    1  A    between atoms: C_2  and  C_3 
REMARK    2  A    between atoms: C_3  and  N_4 
REMARK    3  A    between atoms: N_4  and  C_7 
REMARK    4  A    between atoms: C_12  and  N_13 
REMARK       I    between atoms: N_13  and  C_14 
REMARK    5  A    between atoms: C_14  and  C_16 
REMARK    6  A    between atoms: C_20  and  C_22 
REMARK    7  A    between atoms: C_22  and  N_24 
REMARK       I    between atoms: N_24  and  C_25 
REMARK    8  A    between atoms: C_25  and  C_27 
REMARK    9  A    between atoms: C_30  and  O_31 
ROOT
HETATM    1  C   UNL     1      43.288 -17.785   3.177  1.00  0.00     0.033 A 
HETATM    2  C   UNL     1      44.041 -18.965   3.243  1.00  0.00     0.017 A 
HETATM    3  C   UNL     1      44.327 -19.552   4.474  1.00  0.00     0.002 A 
HETATM    4  C   UNL     1      43.853 -18.974   5.651  1.00  0.00     0.009 A 
HETATM    5  C   UNL     1      43.068 -17.812   5.612  1.00  0.00    -0.035 A 
HETATM    6  C   UNL     1      42.799 -17.219   4.362  1.00  0.00     0.026 A 
ENDROOT
BRANCH   1   7
HETATM    7  C   UNL     1      43.014 -17.208   1.827  1.00  0.00     0.257 C 
HETATM    8  N   UNL     1      41.964 -16.316   1.747  1.00  0.00    -0.301 N 
HETATM    9  H   UNL     1      41.449 -16.027   2.565  1.00  0.00     0.171 HD
HETATM   10  O   UNL     1      43.745 -17.551   0.903  1.00  0.00    -0.267 OA
BRANCH   8  11
HETATM   11  C   UNL     1      41.625 -15.728   0.558  1.00  0.00     0.174 A 
HETATM   12  N   UNL     1      41.277 -16.291  -0.572  1.00  0.00    -0.228 NA
HETATM   13  C   UNL     1      41.031 -15.330  -1.513  1.00  0.00     0.050 A 
HETATM   14  C   UNL     1      40.617 -15.705  -2.891  1.00  0.00     0.062 C 
HETATM   15  C   UNL     1      41.160 -14.030  -1.075  1.00  0.00     0.013 A 
HETATM   16  C   UNL     1      40.736 -14.505  -3.846  1.00  0.00     0.039 C 
HETATM   17  C   UNL     1      40.164 -13.220  -3.207  1.00  0.00     0.191 C 
HETATM   18  C   UNL     1      40.936 -12.822  -1.915  1.00  0.00     0.081 C 
HETATM   19  S   UNL     1      41.656 -14.011   0.557  1.00  0.00    -0.055 SA
BRANCH  17  20
HETATM   20  N   UNL     1      40.239 -12.076  -4.196  1.00  0.00    -0.071 N 
HETATM   21  H   UNL     1      39.290 -11.730  -4.399  1.00  0.00     0.277 HD
HETATM   22  H   UNL     1      40.600 -12.438  -5.091  1.00  0.00     0.277 HD
BRANCH  20  23
HETATM   23  C   UNL     1      41.108 -10.921  -3.789  1.00  0.00     0.232 C 
BRANCH  23  24
HETATM   24  C   UNL     1      42.300 -10.840  -4.732  1.00  0.00     0.023 C 
HETATM   25  C   UNL     1      42.045  -9.841  -5.850  1.00  0.00     0.007 C 
ENDBRANCH  23  24
ENDBRANCH  20  23
ENDBRANCH  17  20
ENDBRANCH   8  11
ENDBRANCH   1   7
BRANCH   5  26
HETATM   26  C   UNL     1      42.543 -17.149   6.876  1.00  0.00     0.114 C 
HETATM   27  C   UNL     1      43.496 -17.266   8.067  1.00  0.00     0.037 C 
BRANCH  26  28
HETATM   28  N   UNL     1      42.238 -15.756   6.605  1.00  0.00    -0.349 N 
HETATM   29  C   UNL     1      41.005 -15.355   6.139  1.00  0.00     0.252 C 
HETATM   30  O   UNL     1      40.050 -16.108   5.984  1.00  0.00    -0.268 OA
HETATM   31  H   UNL     1      42.990 -15.086   6.690  1.00  0.00     0.163 HD
BRANCH  29  32
HETATM   32  C   UNL     1      40.863 -13.904   5.856  1.00  0.00     0.033 A 
HETATM   33  C   UNL     1      41.799 -13.021   6.403  1.00  0.00     0.020 A 
HETATM   34  C   UNL     1      41.712 -11.647   6.145  1.00  0.00     0.039 A 
HETATM   35  C   UNL     1      40.679 -11.141   5.349  1.00  0.00     0.089 A 
HETATM   36  C   UNL     1      39.730 -12.037   4.825  1.00  0.00     0.068 A 
HETATM   37 CL   UNL     1      38.413 -11.482   3.849  1.00  0.00    -0.081 Cl
HETATM   38  C   UNL     1      39.816 -13.409   5.076  1.00  0.00     0.043 A 
BRANCH  35  39
HETATM   39  O   UNL     1      40.514  -9.817   5.043  1.00  0.00    -0.354 OA
HETATM   40  C   UNL     1      41.634  -8.955   5.189  1.00  0.00     0.210 C 
ENDBRANCH  35  39
ENDBRANCH  29  32
ENDBRANCH  26  28
ENDBRANCH   5  26
TORSDOF 9
ENDMDL
MODEL 9
REMARK VINA RESULT:      -7.7      4.511     11.270
REMARK  9 active torsions:
REMARK  status: ('A' for Active; 'I' for Inactive)
REMARK    1  A    between atoms: C_2  and  C_3 
REMARK    2  A    between atoms: C_3  and  N_4 
REMARK    3  A    between atoms: N_4  and  C_7 
REMARK    4  A    between atoms: C_12  and  N_13 
REMARK       I    between atoms: N_13  and  C_14 
REMARK    5  A    between atoms: C_14  and  C_16 
REMARK    6  A    between atoms: C_20  and  C_22 
REMARK    7  A    between atoms: C_22  and  N_24 
REMARK       I    between atoms: N_24  and  C_25 
REMARK    8  A    between atoms: C_25  and  C_27 
REMARK    9  A    between atoms: C_30  and  O_31 
ROOT
HETATM    1  C   UNL     1      40.630 -10.973   2.733  1.00  0.00     0.033 A 
HETATM    2  C   UNL     1      40.847 -10.039   1.712  1.00  0.00     0.017 A 
HETATM    3  C   UNL     1      40.911 -10.447   0.381  1.00  0.00     0.002 A 
HETATM    4  C   UNL     1      40.744 -11.793   0.055  1.00  0.00     0.009 A 
HETATM    5  C   UNL     1      40.491 -12.746   1.054  1.00  0.00    -0.035 A 
HETATM    6  C   UNL     1      40.445 -12.321   2.397  1.00  0.00     0.026 A 
ENDROOT
BRANCH   1   7
HETATM    7  C   UNL     1      40.570 -10.469   4.138  1.00  0.00     0.257 C 
HETATM    8  N   UNL     1      40.338 -11.415   5.115  1.00  0.00    -0.301 N 
HETATM    9  H   UNL     1      40.270 -12.398   4.897  1.00  0.00     0.171 HD
HETATM   10  O   UNL     1      40.748  -9.269   4.319  1.00  0.00    -0.267 OA
BRANCH   8  11
HETATM   11  C   UNL     1      40.263 -11.064   6.436  1.00  0.00     0.174 A 
HETATM   12  N   UNL     1      39.209 -10.753   7.149  1.00  0.00    -0.228 NA
HETATM   13  C   UNL     1      39.586 -10.455   8.429  1.00  0.00     0.050 A 
HETATM   14  C   UNL     1      38.575 -10.067   9.448  1.00  0.00     0.062 C 
HETATM   15  C   UNL     1      40.934 -10.578   8.690  1.00  0.00     0.013 A 
HETATM   16  C   UNL     1      39.251  -9.453  10.686  1.00  0.00     0.039 C 
HETATM   17  C   UNL     1      40.484 -10.275  11.119  1.00  0.00     0.191 C 
HETATM   18  C   UNL     1      41.574 -10.315  10.008  1.00  0.00     0.081 C 
HETATM   19  S   UNL     1      41.763 -11.035   7.270  1.00  0.00    -0.055 SA
BRANCH  17  20
HETATM   20  N   UNL     1      41.085  -9.681  12.375  1.00  0.00    -0.071 N 
HETATM   21  H   UNL     1      40.578  -8.821  12.628  1.00  0.00     0.277 HD
HETATM   22  H   UNL     1      42.050  -9.384  12.169  1.00  0.00     0.277 HD
BRANCH  20  23
HETATM   23  C   UNL     1      41.133 -10.593  13.567  1.00  0.00     0.232 C 
BRANCH  23  24
HETATM   24  C   UNL     1      42.453 -10.387  14.296  1.00  0.00     0.023 C 
HETATM   25  C   UNL     1      43.285  -9.304  13.625  1.00  0.00     0.007 C 
ENDBRANCH  23  24
ENDBRANCH  20  23
ENDBRANCH  17  20
ENDBRANCH   8  11
ENDBRANCH   1   7
BRANCH   5  26
HETATM   26  C   UNL     1      40.315 -14.221   0.736  1.00  0.00     0.114 C 
HETATM   27  C   UNL     1      40.474 -14.549  -0.750  1.00  0.00     0.037 C 
BRANCH  26  28
HETATM   28  N   UNL     1      41.243 -15.006   1.530  1.00  0.00    -0.349 N 
HETATM   29  C   UNL     1      40.888 -16.215   2.086  1.00  0.00     0.252 C 
HETATM   30  O   UNL     1      39.806 -16.765   1.906  1.00  0.00    -0.268 OA
HETATM   31  H   UNL     1      42.143 -14.597   1.738  1.00  0.00     0.163 HD
BRANCH  29  32
HETATM   32  C   UNL     1      41.926 -16.872   2.920  1.00  0.00     0.033 A 
HETATM   33  C   UNL     1      42.364 -16.222   4.078  1.00  0.00     0.020 A 
HETATM   34  C   UNL     1      43.329 -16.815   4.902  1.00  0.00     0.039 A 
HETATM   35  C   UNL     1      43.876 -18.058   4.568  1.00  0.00     0.089 A 
HETATM   36  C   UNL     1      43.446 -18.690   3.388  1.00  0.00     0.068 A 
HETATM   37 CL   UNL     1      44.091 -20.220   2.900  1.00  0.00    -0.081 Cl
HETATM   38  C   UNL     1      42.479 -18.104   2.566  1.00  0.00     0.043 A 
BRANCH  35  39
HETATM   39  O   UNL     1      44.820 -18.714   5.312  1.00  0.00    -0.354 OA
HETATM   40  C   UNL     1      44.389 -19.410   6.473  1.00  0.00     0.210 C 
ENDBRANCH  35  39
ENDBRANCH  29  32
ENDBRANCH  26  28
ENDBRANCH   5  26
TORSDOF 9
ENDMDL
MODEL 10
REMARK VINA RESULT:      -7.6      4.420      7.618
REMARK  9 active torsions:
REMARK  status: ('A' for Active; 'I' for Inactive)
REMARK    1  A    between atoms: C_2  and  C_3 
REMARK    2  A    between atoms: C_3  and  N_4 
REMARK    3  A    between atoms: N_4  and  C_7 
REMARK    4  A    between atoms: C_12  and  N_13 
REMARK       I    between atoms: N_13  and  C_14 
REMARK    5  A    between atoms: C_14  and  C_16 
REMARK    6  A    between atoms: C_20  and  C_22 
REMARK    7  A    between atoms: C_22  and  N_24 
REMARK       I    between atoms: N_24  and  C_25 
REMARK    8  A    between atoms: C_25  and  C_27 
REMARK    9  A    between atoms: C_30  and  O_31 
ROOT
HETATM    1  C   UNL     1      38.018 -12.631   1.560  1.00  0.00     0.033 A 
HETATM    2  C   UNL     1      37.006 -12.630   0.592  1.00  0.00     0.017 A 
HETATM    3  C   UNL     1      36.203 -11.506   0.410  1.00  0.00     0.002 A 
HETATM    4  C   UNL     1      36.411 -10.366   1.186  1.00  0.00     0.009 A 
HETATM    5  C   UNL     1      37.440 -10.327   2.140  1.00  0.00    -0.035 A 
HETATM    6  C   UNL     1      38.234 -11.477   2.324  1.00  0.00     0.026 A 
ENDROOT
BRANCH   1   7
HETATM    7  C   UNL     1      38.845 -13.867   1.703  1.00  0.00     0.257 C 
HETATM    8  N   UNL     1      40.145 -13.685   2.131  1.00  0.00    -0.301 N 
HETATM    9  H   UNL     1      40.496 -12.775   2.388  1.00  0.00     0.171 HD
HETATM   10  O   UNL     1      38.311 -14.941   1.450  1.00  0.00    -0.267 OA
BRANCH   8  11
HETATM   11  C   UNL     1      40.991 -14.748   2.295  1.00  0.00     0.174 A 
HETATM   12  N   UNL     1      41.911 -15.204   1.483  1.00  0.00    -0.228 NA
HETATM   13  C   UNL     1      42.521 -16.295   2.036  1.00  0.00     0.050 A 
HETATM   14  C   UNL     1      43.608 -17.007   1.313  1.00  0.00     0.062 C 
HETATM   15  C   UNL     1      42.079 -16.641   3.295  1.00  0.00     0.013 A 
HETATM   16  C   UNL     1      43.891 -18.375   1.956  1.00  0.00     0.039 C 
HETATM   17  C   UNL     1      43.949 -18.271   3.496  1.00  0.00     0.191 C 
HETATM   18  C   UNL     1      42.597 -17.784   4.095  1.00  0.00     0.081 C 
HETATM   19  S   UNL     1      40.822 -15.594   3.779  1.00  0.00    -0.055 SA
BRANCH  17  20
HETATM   20  N   UNL     1      44.292 -19.619   4.091  1.00  0.00    -0.071 N 
HETATM   21  H   UNL     1      43.429 -20.102   4.379  1.00  0.00     0.277 HD
HETATM   22  H   UNL     1      44.828 -19.470   4.959  1.00  0.00     0.277 HD
BRANCH  20  23
HETATM   23  C   UNL     1      45.097 -20.532   3.211  1.00  0.00     0.232 C 
BRANCH  23  24
HETATM   24  C   UNL     1      44.301 -21.804   2.955  1.00  0.00     0.023 C 
HETATM   25  C   UNL     1      44.066 -22.010   1.466  1.00  0.00     0.007 C 
ENDBRANCH  23  24
ENDBRANCH  20  23
ENDBRANCH  17  20
ENDBRANCH   8  11
ENDBRANCH   1   7
BRANCH   5  26
HETATM   26  C   UNL     1      37.688  -9.105   3.010  1.00  0.00     0.114 C 
HETATM   27  C   UNL     1      36.526  -8.111   3.011  1.00  0.00     0.037 C 
BRANCH  26  28
HETATM   28  N   UNL     1      37.997  -9.526   4.364  1.00  0.00    -0.349 N 
HETATM   29  C   UNL     1      38.902  -8.849   5.151  1.00  0.00     0.252 C 
HETATM   30  O   UNL     1      39.463  -7.811   4.817  1.00  0.00    -0.268 OA
HETATM   31  H   UNL     1      37.587 -10.390   4.692  1.00  0.00     0.163 HD
BRANCH  29  32
HETATM   32  C   UNL     1      39.155  -9.433   6.493  1.00  0.00     0.033 A 
HETATM   33  C   UNL     1      39.720 -10.710   6.571  1.00  0.00     0.020 A 
HETATM   34  C   UNL     1      39.992 -11.290   7.816  1.00  0.00     0.039 A 
HETATM   35  C   UNL     1      39.688 -10.604   8.997  1.00  0.00     0.089 A 
HETATM   36  C   UNL     1      39.097  -9.332   8.906  1.00  0.00     0.068 A 
HETATM   37 CL   UNL     1      38.674  -8.432  10.322  1.00  0.00    -0.081 Cl
HETATM   38  C   UNL     1      38.829  -8.747   7.664  1.00  0.00     0.043 A 
BRANCH  35  39
HETATM   39  O   UNL     1      39.918 -11.090  10.256  1.00  0.00    -0.354 OA
HETATM   40  C   UNL     1      41.217 -10.924  10.807  1.00  0.00     0.210 C 
ENDBRANCH  35  39
ENDBRANCH  29  32
ENDBRANCH  26  28
ENDBRANCH   5  26
TORSDOF 9
ENDMDL
