MODEL 1
REMARK VINA RESULT:      -8.3      0.000      0.000
REMARK  3 active torsions:
REMARK  status: ('A' for Active; 'I' for Inactive)
REMARK    1  A    between atoms: C_2  and  N_3 
REMARK       I    between atoms: N_3  and  C_4 
REMARK    2  A    between atoms: C_4  and  C_5 
REMARK    3  A    between atoms: C_5  and  C_6 
ROOT
HETATM    1  C   UNL     1      41.910 -17.588   5.246  1.00  0.00     0.286 C 
HETATM    2  N   UNL     1      42.791 -16.632   4.453  1.00  0.00    -0.056 N 
HETATM    3  H   UNL     1      43.329 -16.090   5.162  1.00  0.00     0.278 HD
HETATM    4  H   UNL     1      43.486 -17.150   3.903  1.00  0.00     0.278 HD
HETATM    5  C   UNL     1      41.984 -15.702   3.582  1.00  0.00     0.209 C 
HETATM    6  C   UNL     1      41.008 -14.890   4.472  1.00  0.00     0.115 C 
HETATM    7  N   UNL     1      40.248 -15.745   5.385  1.00  0.00    -0.353 N 
HETATM    8  C   UNL     1      40.754 -16.877   5.981  1.00  0.00     0.249 C 
HETATM    9  O   UNL     1      40.221 -17.336   6.984  1.00  0.00    -0.271 OA
HETATM   10  C   UNL     1      42.932 -14.818   2.772  1.00  0.00     0.035 C 
HETATM   11  C   UNL     1      43.615 -13.740   3.608  1.00  0.00     0.002 C 
HETATM   12  C   UNL     1      42.598 -12.911   4.384  1.00  0.00     0.002 C 
HETATM   13  C   UNL     1      41.720 -13.788   5.270  1.00  0.00     0.027 C 
HETATM   14  H   UNL     1      39.478 -15.326   5.903  1.00  0.00     0.163 HD
ENDROOT
BRANCH   1  15
HETATM   15  C   UNL     1      42.737 -18.457   6.204  1.00  0.00     0.146 C 
BRANCH  15  16
HETATM   16  C   UNL     1      44.212 -18.217   6.019  1.00  0.00     0.224 C 
HETATM   17  N   UNL     1      44.965 -18.916   5.132  1.00  0.00    -0.327 N 
HETATM   18  H   UNL     1      45.952 -18.685   5.223  1.00  0.00     0.169 HD
HETATM   19  O   UNL     1      44.748 -17.314   6.680  1.00  0.00    -0.273 OA
BRANCH  17  20
HETATM   20  C   UNL     1      44.676 -19.885   4.150  1.00  0.00     0.034 A 
HETATM   21  C   UNL     1      44.841 -21.264   4.294  1.00  0.00     0.032 A 
HETATM   22  C   UNL     1      44.512 -22.133   3.245  1.00  0.00     0.044 A 
HETATM   23  C   UNL     1      44.006 -21.626   2.057  1.00  0.00     0.116 A 
HETATM   24  C   UNL     1      43.814 -20.264   1.897  1.00  0.00     0.044 A 
HETATM   25  F   UNL     1      43.693 -22.462   1.061  1.00  0.00    -0.206 F 
HETATM   26  C   UNL     1      44.144 -19.397   2.944  1.00  0.00     0.032 A 
ENDBRANCH  17  20
ENDBRANCH  15  16
ENDBRANCH   1  15
TORSDOF 3
ENDMDL
MODEL 2
REMARK VINA RESULT:      -7.9      1.697      2.407
REMARK  3 active torsions:
REMARK  status: ('A' for Active; 'I' for Inactive)
REMARK    1  A    between atoms: C_2  and  N_3 
REMARK       I    between atoms: N_3  and  C_4 
REMARK    2  A    between atoms: C_4  and  C_5 
REMARK    3  A    between atoms: C_5  and  C_6 
ROOT
HETATM    1  C   UNL     1      43.485 -16.481   6.302  1.00  0.00     0.286 C 
HETATM    2  N   UNL     1      42.933 -16.512   4.883  1.00  0.00    -0.056 N 
HETATM    3  H   UNL     1      43.737 -16.280   4.262  1.00  0.00     0.278 HD
HETATM    4  H   UNL     1      42.641 -17.463   4.627  1.00  0.00     0.278 HD
HETATM    5  C   UNL     1      41.812 -15.522   4.684  1.00  0.00     0.209 C 
HETATM    6  C   UNL     1      42.330 -14.096   5.008  1.00  0.00     0.115 C 
HETATM    7  N   UNL     1      43.026 -14.038   6.294  1.00  0.00    -0.353 N 
HETATM    8  C   UNL     1      43.807 -15.053   6.794  1.00  0.00     0.249 C 
HETATM    9  O   UNL     1      44.633 -14.822   7.669  1.00  0.00    -0.271 OA
HETATM   10  C   UNL     1      41.268 -15.654   3.262  1.00  0.00     0.035 C 
HETATM   11  C   UNL     1      42.207 -15.084   2.202  1.00  0.00     0.002 C 
HETATM   12  C   UNL     1      42.602 -13.647   2.523  1.00  0.00     0.002 C 
HETATM   13  C   UNL     1      43.239 -13.538   3.904  1.00  0.00     0.027 C 
HETATM   14  H   UNL     1      43.271 -13.121   6.664  1.00  0.00     0.163 HD
ENDROOT
BRANCH   1  15
HETATM   15  C   UNL     1      44.691 -17.418   6.462  1.00  0.00     0.146 C 
BRANCH  15  16
HETATM   16  C   UNL     1      44.335 -18.624   7.291  1.00  0.00     0.224 C 
HETATM   17  N   UNL     1      44.142 -19.855   6.752  1.00  0.00    -0.327 N 
HETATM   18  H   UNL     1      43.811 -20.515   7.452  1.00  0.00     0.169 HD
HETATM   19  O   UNL     1      44.254 -18.488   8.521  1.00  0.00    -0.273 OA
BRANCH  17  20
HETATM   20  C   UNL     1      44.283 -20.391   5.457  1.00  0.00     0.034 A 
HETATM   21  C   UNL     1      44.190 -19.671   4.263  1.00  0.00     0.032 A 
HETATM   22  C   UNL     1      44.354 -20.314   3.030  1.00  0.00     0.044 A 
HETATM   23  C   UNL     1      44.626 -21.674   2.988  1.00  0.00     0.116 A 
HETATM   24  C   UNL     1      44.744 -22.406   4.157  1.00  0.00     0.044 A 
HETATM   25  F   UNL     1      44.785 -22.281   1.806  1.00  0.00    -0.206 F 
HETATM   26  C   UNL     1      44.578 -21.764   5.388  1.00  0.00     0.032 A 
ENDBRANCH  17  20
ENDBRANCH  15  16
ENDBRANCH   1  15
TORSDOF 3
ENDMDL
MODEL 3
REMARK VINA RESULT:      -7.8      2.846      3.416
REMARK  3 active torsions:
REMARK  status: ('A' for Active; 'I' for Inactive)
REMARK    1  A    between atoms: C_2  and  N_3 
REMARK       I    between atoms: N_3  and  C_4 
REMARK    2  A    between atoms: C_4  and  C_5 
REMARK    3  A    between atoms: C_5  and  C_6 
ROOT
HETATM    1  C   UNL     1      40.363 -17.101   2.094  1.00  0.00     0.286 C 
HETATM    2  N   UNL     1      40.011 -15.884   1.249  1.00  0.00    -0.056 N 
HETATM    3  H   UNL     1      40.919 -15.426   1.022  1.00  0.00     0.278 HD
HETATM    4  H   UNL     1      39.603 -16.170   0.351  1.00  0.00     0.278 HD
HETATM    5  C   UNL     1      39.105 -14.924   1.980  1.00  0.00     0.209 C 
HETATM    6  C   UNL     1      39.802 -14.464   3.288  1.00  0.00     0.115 C 
HETATM    7  N   UNL     1      40.318 -15.590   4.067  1.00  0.00    -0.353 N 
HETATM    8  C   UNL     1      40.846 -16.732   3.514  1.00  0.00     0.249 C 
HETATM    9  O   UNL     1      41.573 -17.461   4.178  1.00  0.00    -0.271 OA
HETATM   10  C   UNL     1      38.745 -13.764   1.053  1.00  0.00     0.035 C 
HETATM   11  C   UNL     1      39.898 -12.792   0.826  1.00  0.00     0.002 C 
HETATM   12  C   UNL     1      40.477 -12.298   2.147  1.00  0.00     0.002 C 
HETATM   13  C   UNL     1      40.932 -13.456   3.027  1.00  0.00     0.027 C 
HETATM   14  H   UNL     1      40.658 -15.403   5.009  1.00  0.00     0.163 HD
ENDROOT
BRANCH   1  15
HETATM   15  C   UNL     1      41.366 -18.017   1.378  1.00  0.00     0.146 C 
BRANCH  15  16
HETATM   16  C   UNL     1      42.753 -17.431   1.407  1.00  0.00     0.224 C 
HETATM   17  N   UNL     1      43.824 -18.102   1.903  1.00  0.00    -0.327 N 
HETATM   18  H   UNL     1      44.650 -17.509   1.932  1.00  0.00     0.169 HD
HETATM   19  O   UNL     1      42.925 -16.303   0.922  1.00  0.00    -0.273 OA
BRANCH  17  20
HETATM   20  C   UNL     1      44.021 -19.409   2.391  1.00  0.00     0.034 A 
HETATM   21  C   UNL     1      43.847 -20.586   1.658  1.00  0.00     0.032 A 
HETATM   22  C   UNL     1      44.080 -21.834   2.252  1.00  0.00     0.044 A 
HETATM   23  C   UNL     1      44.499 -21.907   3.572  1.00  0.00     0.116 A 
HETATM   24  C   UNL     1      44.698 -20.754   4.313  1.00  0.00     0.044 A 
HETATM   25  F   UNL     1      44.721 -23.102   4.131  1.00  0.00    -0.206 F 
HETATM   26  C   UNL     1      44.464 -19.510   3.721  1.00  0.00     0.032 A 
ENDBRANCH  17  20
ENDBRANCH  15  16
ENDBRANCH   1  15
TORSDOF 3
ENDMDL
MODEL 4
REMARK VINA RESULT:      -7.8      1.815      2.781
REMARK  3 active torsions:
REMARK  status: ('A' for Active; 'I' for Inactive)
REMARK    1  A    between atoms: C_2  and  N_3 
REMARK       I    between atoms: N_3  and  C_4 
REMARK    2  A    between atoms: C_4  and  C_5 
REMARK    3  A    between atoms: C_5  and  C_6 
ROOT
HETATM    1  C   UNL     1      41.320 -16.472   5.401  1.00  0.00     0.286 C 
HETATM    2  N   UNL     1      40.415 -15.371   4.864  1.00  0.00    -0.056 N 
HETATM    3  H   UNL     1      40.791 -15.129   3.923  1.00  0.00     0.278 HD
HETATM    4  H   UNL     1      39.463 -15.725   4.708  1.00  0.00     0.278 HD
HETATM    5  C   UNL     1      40.407 -14.154   5.756  1.00  0.00     0.209 C 
HETATM    6  C   UNL     1      41.854 -13.614   5.893  1.00  0.00     0.115 C 
HETATM    7  N   UNL     1      42.808 -14.668   6.243  1.00  0.00    -0.353 N 
HETATM    8  C   UNL     1      42.724 -15.964   5.791  1.00  0.00     0.249 C 
HETATM    9  O   UNL     1      43.711 -16.690   5.813  1.00  0.00    -0.271 OA
HETATM   10  C   UNL     1      39.433 -13.119   5.190  1.00  0.00     0.035 C 
HETATM   11  C   UNL     1      39.953 -12.425   3.935  1.00  0.00     0.002 C 
HETATM   12  C   UNL     1      41.338 -11.829   4.162  1.00  0.00     0.002 C 
HETATM   13  C   UNL     1      42.332 -12.887   4.628  1.00  0.00     0.027 C 
HETATM   14  H   UNL     1      43.753 -14.391   6.501  1.00  0.00     0.163 HD
ENDROOT
BRANCH   1  15
HETATM   15  C   UNL     1      41.399 -17.661   4.433  1.00  0.00     0.146 C 
BRANCH  15  16
HETATM   16  C   UNL     1      42.082 -17.271   3.148  1.00  0.00     0.224 C 
HETATM   17  N   UNL     1      43.038 -18.037   2.563  1.00  0.00    -0.327 N 
HETATM   18  H   UNL     1      43.451 -17.563   1.763  1.00  0.00     0.169 HD
HETATM   19  O   UNL     1      41.724 -16.226   2.587  1.00  0.00    -0.273 OA
BRANCH  17  20
HETATM   20  C   UNL     1      43.576 -19.310   2.835  1.00  0.00     0.034 A 
HETATM   21  C   UNL     1      44.290 -19.664   3.983  1.00  0.00     0.032 A 
HETATM   22  C   UNL     1      44.774 -20.968   4.145  1.00  0.00     0.044 A 
HETATM   23  C   UNL     1      44.534 -21.924   3.168  1.00  0.00     0.116 A 
HETATM   24  C   UNL     1      43.812 -21.604   2.031  1.00  0.00     0.044 A 
HETATM   25  F   UNL     1      44.998 -23.168   3.332  1.00  0.00    -0.206 F 
HETATM   26  C   UNL     1      43.331 -20.302   1.869  1.00  0.00     0.032 A 
ENDBRANCH  17  20
ENDBRANCH  15  16
ENDBRANCH   1  15
TORSDOF 3
ENDMDL
MODEL 5
REMARK VINA RESULT:      -7.6      3.467      6.149
REMARK  3 active torsions:
REMARK  status: ('A' for Active; 'I' for Inactive)
REMARK    1  A    between atoms: C_2  and  N_3 
REMARK       I    between atoms: N_3  and  C_4 
REMARK    2  A    between atoms: C_4  and  C_5 
REMARK    3  A    between atoms: C_5  and  C_6 
ROOT
HETATM    1  C   UNL     1      41.918 -14.035   5.783  1.00  0.00     0.286 C 
HETATM    2  N   UNL     1      43.015 -15.090   5.735  1.00  0.00    -0.056 N 
HETATM    3  H   UNL     1      43.032 -15.433   4.751  1.00  0.00     0.278 HD
HETATM    4  H   UNL     1      43.935 -14.666   5.905  1.00  0.00     0.278 HD
HETATM    5  C   UNL     1      42.752 -16.231   6.686  1.00  0.00     0.209 C 
HETATM    6  C   UNL     1      41.390 -16.883   6.334  1.00  0.00     0.115 C 
HETATM    7  N   UNL     1      40.320 -15.894   6.198  1.00  0.00    -0.353 N 
HETATM    8  C   UNL     1      40.498 -14.633   5.678  1.00  0.00     0.249 C 
HETATM    9  O   UNL     1      39.538 -13.997   5.260  1.00  0.00    -0.271 OA
HETATM   10  C   UNL     1      43.920 -17.216   6.628  1.00  0.00     0.035 C 
HETATM   11  C   UNL     1      43.948 -18.046   5.348  1.00  0.00     0.002 C 
HETATM   12  C   UNL     1      42.612 -18.741   5.108  1.00  0.00     0.002 C 
HETATM   13  C   UNL     1      41.462 -17.743   5.063  1.00  0.00     0.027 C 
HETATM   14  H   UNL     1      39.363 -16.232   6.116  1.00  0.00     0.163 HD
ENDROOT
BRANCH   1  15
HETATM   15  C   UNL     1      42.145 -12.933   4.739  1.00  0.00     0.146 C 
BRANCH  15  16
HETATM   16  C   UNL     1      42.876 -13.468   3.535  1.00  0.00     0.224 C 
HETATM   17  N   UNL     1      42.235 -13.922   2.428  1.00  0.00    -0.327 N 
HETATM   18  H   UNL     1      42.889 -14.336   1.767  1.00  0.00     0.169 HD
HETATM   19  O   UNL     1      44.115 -13.456   3.548  1.00  0.00    -0.273 OA
BRANCH  17  20
HETATM   20  C   UNL     1      40.886 -13.955   2.021  1.00  0.00     0.034 A 
HETATM   21  C   UNL     1      40.168 -12.878   1.495  1.00  0.00     0.032 A 
HETATM   22  C   UNL     1      38.828 -13.034   1.118  1.00  0.00     0.044 A 
HETATM   23  C   UNL     1      38.208 -14.267   1.253  1.00  0.00     0.116 A 
HETATM   24  C   UNL     1      38.904 -15.355   1.752  1.00  0.00     0.044 A 
HETATM   25  F   UNL     1      36.928 -14.408   0.889  1.00  0.00    -0.206 F 
HETATM   26  C   UNL     1      40.241 -15.199   2.130  1.00  0.00     0.032 A 
ENDBRANCH  17  20
ENDBRANCH  15  16
ENDBRANCH   1  15
TORSDOF 3
ENDMDL
MODEL 6
REMARK VINA RESULT:      -7.6      5.323      7.109
REMARK  3 active torsions:
REMARK  status: ('A' for Active; 'I' for Inactive)
REMARK    1  A    between atoms: C_2  and  N_3 
REMARK       I    between atoms: N_3  and  C_4 
REMARK    2  A    between atoms: C_4  and  C_5 
REMARK    3  A    between atoms: C_5  and  C_6 
ROOT
HETATM    1  C   UNL     1      40.147 -13.308  -0.121  1.00  0.00     0.286 C 
HETATM    2  N   UNL     1      39.058 -13.656  -1.126  1.00  0.00    -0.056 N 
HETATM    3  H   UNL     1      38.798 -14.646  -0.930  1.00  0.00     0.278 HD
HETATM    4  H   UNL     1      38.212 -13.100  -0.953  1.00  0.00     0.278 HD
HETATM    5  C   UNL     1      39.528 -13.508  -2.552  1.00  0.00     0.209 C 
HETATM    6  C   UNL     1      40.757 -14.427  -2.780  1.00  0.00     0.115 C 
HETATM    7  N   UNL     1      41.774 -14.260  -1.741  1.00  0.00    -0.353 N 
HETATM    8  C   UNL     1      41.491 -14.006  -0.419  1.00  0.00     0.249 C 
HETATM    9  O   UNL     1      42.330 -14.231   0.445  1.00  0.00    -0.271 OA
HETATM   10  C   UNL     1      38.369 -13.812  -3.501  1.00  0.00     0.035 C 
HETATM   11  C   UNL     1      38.022 -15.296  -3.574  1.00  0.00     0.002 C 
HETATM   12  C   UNL     1      39.251 -16.138  -3.899  1.00  0.00     0.002 C 
HETATM   13  C   UNL     1      40.369 -15.909  -2.889  1.00  0.00     0.027 C 
HETATM   14  H   UNL     1      42.679 -14.706  -1.881  1.00  0.00     0.163 HD
ENDROOT
BRANCH   1  15
HETATM   15  C   UNL     1      39.688 -13.561   1.322  1.00  0.00     0.146 C 
BRANCH  15  16
HETATM   16  C   UNL     1      38.760 -14.745   1.396  1.00  0.00     0.224 C 
HETATM   17  N   UNL     1      39.178 -15.986   1.755  1.00  0.00    -0.327 N 
HETATM   18  H   UNL     1      38.434 -16.671   1.648  1.00  0.00     0.169 HD
HETATM   19  O   UNL     1      37.557 -14.564   1.156  1.00  0.00    -0.273 OA
BRANCH  17  20
HETATM   20  C   UNL     1      40.401 -16.513   2.214  1.00  0.00     0.034 A 
HETATM   21  C   UNL     1      40.980 -16.260   3.461  1.00  0.00     0.032 A 
HETATM   22  C   UNL     1      42.202 -16.848   3.810  1.00  0.00     0.044 A 
HETATM   23  C   UNL     1      42.842 -17.699   2.921  1.00  0.00     0.116 A 
HETATM   24  C   UNL     1      42.279 -17.982   1.687  1.00  0.00     0.044 A 
HETATM   25  F   UNL     1      44.008 -18.259   3.263  1.00  0.00    -0.206 F 
HETATM   26  C   UNL     1      41.060 -17.394   1.339  1.00  0.00     0.032 A 
ENDBRANCH  17  20
ENDBRANCH  15  16
ENDBRANCH   1  15
TORSDOF 3
ENDMDL
MODEL 7
REMARK VINA RESULT:      -7.5      2.889      3.606
REMARK  3 active torsions:
REMARK  status: ('A' for Active; 'I' for Inactive)
REMARK    1  A    between atoms: C_2  and  N_3 
REMARK       I    between atoms: N_3  and  C_4 
REMARK    2  A    between atoms: C_4  and  C_5 
REMARK    3  A    between atoms: C_5  and  C_6 
ROOT
HETATM    1  C   UNL     1      41.508 -15.846   2.566  1.00  0.00     0.286 C 
HETATM    2  N   UNL     1      40.926 -14.481   2.911  1.00  0.00    -0.056 N 
HETATM    3  H   UNL     1      39.984 -14.671   3.315  1.00  0.00     0.278 HD
HETATM    4  H   UNL     1      41.471 -14.032   3.657  1.00  0.00     0.278 HD
HETATM    5  C   UNL     1      40.810 -13.587   1.702  1.00  0.00     0.209 C 
HETATM    6  C   UNL     1      39.914 -14.280   0.641  1.00  0.00     0.115 C 
HETATM    7  N   UNL     1      40.322 -15.663   0.388  1.00  0.00    -0.353 N 
HETATM    8  C   UNL     1      40.819 -16.508   1.353  1.00  0.00     0.249 C 
HETATM    9  O   UNL     1      40.802 -17.720   1.178  1.00  0.00    -0.271 OA
HETATM   10  C   UNL     1      40.279 -12.220   2.133  1.00  0.00     0.035 C 
HETATM   11  C   UNL     1      38.797 -12.235   2.494  1.00  0.00     0.002 C 
HETATM   12  C   UNL     1      37.957 -12.836   1.373  1.00  0.00     0.002 C 
HETATM   13  C   UNL     1      38.425 -14.242   1.016  1.00  0.00     0.027 C 
HETATM   14  H   UNL     1      39.894 -16.152  -0.395  1.00  0.00     0.163 HD
ENDROOT
BRANCH   1  15
HETATM   15  C   UNL     1      41.525 -16.779   3.784  1.00  0.00     0.146 C 
BRANCH  15  16
HETATM   16  C   UNL     1      42.799 -16.620   4.573  1.00  0.00     0.224 C 
HETATM   17  N   UNL     1      43.770 -17.568   4.599  1.00  0.00    -0.327 N 
HETATM   18  H   UNL     1      44.502 -17.327   5.263  1.00  0.00     0.169 HD
HETATM   19  O   UNL     1      42.978 -15.560   5.190  1.00  0.00    -0.273 OA
BRANCH  17  20
HETATM   20  C   UNL     1      43.963 -18.793   3.930  1.00  0.00     0.034 A 
HETATM   21  C   UNL     1      43.634 -19.053   2.597  1.00  0.00     0.032 A 
HETATM   22  C   UNL     1      43.879 -20.313   2.038  1.00  0.00     0.044 A 
HETATM   23  C   UNL     1      44.464 -21.311   2.804  1.00  0.00     0.116 A 
HETATM   24  C   UNL     1      44.818 -21.072   4.121  1.00  0.00     0.044 A 
HETATM   25  F   UNL     1      44.697 -22.512   2.261  1.00  0.00    -0.206 F 
HETATM   26  C   UNL     1      44.572 -19.814   4.679  1.00  0.00     0.032 A 
ENDBRANCH  17  20
ENDBRANCH  15  16
ENDBRANCH   1  15
TORSDOF 3
ENDMDL
MODEL 8
REMARK VINA RESULT:      -7.4      3.706      4.819
REMARK  3 active torsions:
REMARK  status: ('A' for Active; 'I' for Inactive)
REMARK    1  A    between atoms: C_2  and  N_3 
REMARK       I    between atoms: N_3  and  C_4 
REMARK    2  A    between atoms: C_4  and  C_5 
REMARK    3  A    between atoms: C_5  and  C_6 
ROOT
HETATM    1  C   UNL     1      41.775 -14.931   1.387  1.00  0.00     0.286 C 
HETATM    2  N   UNL     1      41.485 -15.440  -0.019  1.00  0.00    -0.056 N 
HETATM    3  H   UNL     1      42.408 -15.478  -0.501  1.00  0.00     0.278 HD
HETATM    4  H   UNL     1      41.138 -16.407   0.009  1.00  0.00     0.278 HD
HETATM    5  C   UNL     1      40.536 -14.539  -0.768  1.00  0.00     0.209 C 
HETATM    6  C   UNL     1      41.144 -13.114  -0.848  1.00  0.00     0.115 C 
HETATM    7  N   UNL     1      41.602 -12.632   0.456  1.00  0.00    -0.353 N 
HETATM    8  C   UNL     1      42.162 -13.437   1.421  1.00  0.00     0.249 C 
HETATM    9  O   UNL     1      42.840 -12.946   2.315  1.00  0.00    -0.271 OA
HETATM   10  C   UNL     1      40.243 -15.143  -2.141  1.00  0.00     0.035 C 
HETATM   11  C   UNL     1      41.412 -15.027  -3.114  1.00  0.00     0.002 C 
HETATM   12  C   UNL     1      41.902 -13.587  -3.225  1.00  0.00     0.002 C 
HETATM   13  C   UNL     1      42.292 -13.022  -1.864  1.00  0.00     0.027 C 
HETATM   14  H   UNL     1      41.878 -11.656   0.535  1.00  0.00     0.163 HD
ENDROOT
BRANCH   1  15
HETATM   15  C   UNL     1      42.821 -15.800   2.100  1.00  0.00     0.146 C 
BRANCH  15  16
HETATM   16  C   UNL     1      42.323 -16.252   3.448  1.00  0.00     0.224 C 
HETATM   17  N   UNL     1      42.438 -17.533   3.882  1.00  0.00    -0.327 N 
HETATM   18  H   UNL     1      41.955 -17.666   4.768  1.00  0.00     0.169 HD
HETATM   19  O   UNL     1      41.824 -15.405   4.203  1.00  0.00    -0.273 OA
BRANCH  17  20
HETATM   20  C   UNL     1      43.053 -18.691   3.368  1.00  0.00     0.034 A 
HETATM   21  C   UNL     1      42.759 -19.292   2.142  1.00  0.00     0.032 A 
HETATM   22  C   UNL     1      43.445 -20.444   1.732  1.00  0.00     0.044 A 
HETATM   23  C   UNL     1      44.433 -20.987   2.540  1.00  0.00     0.116 A 
HETATM   24  C   UNL     1      44.757 -20.397   3.750  1.00  0.00     0.044 A 
HETATM   25  F   UNL     1      45.085 -22.085   2.140  1.00  0.00    -0.206 F 
HETATM   26  C   UNL     1      44.072 -19.250   4.159  1.00  0.00     0.032 A 
ENDBRANCH  17  20
ENDBRANCH  15  16
ENDBRANCH   1  15
TORSDOF 3
ENDMDL
MODEL 9
REMARK VINA RESULT:      -7.4      5.191      7.259
REMARK  3 active torsions:
REMARK  status: ('A' for Active; 'I' for Inactive)
REMARK    1  A    between atoms: C_2  and  N_3 
REMARK       I    between atoms: N_3  and  C_4 
REMARK    2  A    between atoms: C_4  and  C_5 
REMARK    3  A    between atoms: C_5  and  C_6 
ROOT
HETATM    1  C   UNL     1      40.378 -13.912   2.053  1.00  0.00     0.286 C 
HETATM    2  N   UNL     1      41.760 -14.541   2.175  1.00  0.00    -0.056 N 
HETATM    3  H   UNL     1      42.046 -14.783   1.202  1.00  0.00     0.278 HD
HETATM    4  H   UNL     1      42.445 -13.853   2.510  1.00  0.00     0.278 HD
HETATM    5  C   UNL     1      41.751 -15.774   3.043  1.00  0.00     0.209 C 
HETATM    6  C   UNL     1      40.761 -16.809   2.448  1.00  0.00     0.115 C 
HETATM    7  N   UNL     1      39.456 -16.218   2.147  1.00  0.00    -0.353 N 
HETATM    8  C   UNL     1      39.278 -14.933   1.691  1.00  0.00     0.249 C 
HETATM    9  O   UNL     1      38.238 -14.618   1.126  1.00  0.00    -0.271 OA
HETATM   10  C   UNL     1      43.176 -16.313   3.170  1.00  0.00     0.035 C 
HETATM   11  C   UNL     1      43.682 -16.987   1.898  1.00  0.00     0.002 C 
HETATM   12  C   UNL     1      42.715 -18.062   1.416  1.00  0.00     0.002 C 
HETATM   13  C   UNL     1      41.317 -17.497   1.192  1.00  0.00     0.027 C 
HETATM   14  H   UNL     1      38.695 -16.845   1.894  1.00  0.00     0.163 HD
ENDROOT
BRANCH   1  15
HETATM   15  C   UNL     1      40.381 -12.720   1.085  1.00  0.00     0.146 C 
BRANCH  15  16
HETATM   16  C   UNL     1      41.665 -12.664   0.298  1.00  0.00     0.224 C 
HETATM   17  N   UNL     1      41.790 -13.203  -0.941  1.00  0.00    -0.327 N 
HETATM   18  H   UNL     1      42.753 -13.156  -1.268  1.00  0.00     0.169 HD
HETATM   19  O   UNL     1      42.631 -12.065   0.793  1.00  0.00    -0.273 OA
BRANCH  17  20
HETATM   20  C   UNL     1      40.893 -13.814  -1.840  1.00  0.00     0.034 A 
HETATM   21  C   UNL     1      39.782 -13.201  -2.424  1.00  0.00     0.032 A 
HETATM   22  C   UNL     1      38.963 -13.911  -3.311  1.00  0.00     0.044 A 
HETATM   23  C   UNL     1      39.260 -15.229  -3.626  1.00  0.00     0.116 A 
HETATM   24  C   UNL     1      40.367 -15.853  -3.076  1.00  0.00     0.044 A 
HETATM   25  F   UNL     1      38.474 -15.900  -4.476  1.00  0.00    -0.206 F 
HETATM   26  C   UNL     1      41.183 -15.144  -2.190  1.00  0.00     0.032 A 
ENDBRANCH  17  20
ENDBRANCH  15  16
ENDBRANCH   1  15
TORSDOF 3
ENDMDL
MODEL 10
REMARK VINA RESULT:      -7.2      3.299      5.430
REMARK  3 active torsions:
REMARK  status: ('A' for Active; 'I' for Inactive)
REMARK    1  A    between atoms: C_2  and  N_3 
REMARK       I    between atoms: N_3  and  C_4 
REMARK    2  A    between atoms: C_4  and  C_5 
REMARK    3  A    between atoms: C_5  and  C_6 
ROOT
HETATM    1  C   UNL     1      40.428 -15.418   3.355  1.00  0.00     0.286 C 
HETATM    2  N   UNL     1      41.654 -16.306   3.523  1.00  0.00    -0.056 N 
HETATM    3  H   UNL     1      42.454 -15.755   3.148  1.00  0.00     0.278 HD
HETATM    4  H   UNL     1      41.856 -16.462   4.518  1.00  0.00     0.278 HD
HETATM    5  C   UNL     1      41.519 -17.612   2.780  1.00  0.00     0.209 C 
HETATM    6  C   UNL     1      41.294 -17.319   1.274  1.00  0.00     0.115 C 
HETATM    7  N   UNL     1      40.233 -16.335   1.052  1.00  0.00    -0.353 N 
HETATM    8  C   UNL     1      39.988 -15.266   1.883  1.00  0.00     0.249 C 
HETATM    9  O   UNL     1      39.353 -14.302   1.475  1.00  0.00    -0.271 OA
HETATM   10  C   UNL     1      42.754 -18.473   3.045  1.00  0.00     0.035 C 
HETATM   11  C   UNL     1      44.002 -17.977   2.321  1.00  0.00     0.002 C 
HETATM   12  C   UNL     1      43.747 -17.803   0.828  1.00  0.00     0.002 C 
HETATM   13  C   UNL     1      42.578 -16.860   0.567  1.00  0.00     0.027 C 
HETATM   14  H   UNL     1      39.909 -16.188   0.099  1.00  0.00     0.163 HD
ENDROOT
BRANCH   1  15
HETATM   15  C   UNL     1      40.620 -14.053   4.030  1.00  0.00     0.146 C 
BRANCH  15  16
HETATM   16  C   UNL     1      40.122 -14.075   5.451  1.00  0.00     0.224 C 
HETATM   17  N   UNL     1      40.747 -14.766   6.438  1.00  0.00    -0.327 N 
HETATM   18  H   UNL     1      40.208 -14.744   7.301  1.00  0.00     0.169 HD
HETATM   19  O   UNL     1      39.120 -13.400   5.733  1.00  0.00    -0.273 OA
BRANCH  17  20
HETATM   20  C   UNL     1      41.945 -15.504   6.511  1.00  0.00     0.034 A 
HETATM   21  C   UNL     1      43.233 -14.979   6.381  1.00  0.00     0.032 A 
HETATM   22  C   UNL     1      44.354 -15.814   6.478  1.00  0.00     0.044 A 
HETATM   23  C   UNL     1      44.190 -17.170   6.717  1.00  0.00     0.116 A 
HETATM   24  C   UNL     1      42.925 -17.711   6.869  1.00  0.00     0.044 A 
HETATM   25  F   UNL     1      45.266 -17.960   6.810  1.00  0.00    -0.206 F 
HETATM   26  C   UNL     1      41.807 -16.878   6.771  1.00  0.00     0.032 A 
ENDBRANCH  17  20
ENDBRANCH  15  16
ENDBRANCH   1  15
TORSDOF 3
ENDMDL
