MODEL 1
REMARK VINA RESULT:      -9.2      0.000      0.000
REMARK  7 active torsions:
REMARK  status: ('A' for Active; 'I' for Inactive)
REMARK    1  A    between atoms: C_3  and  N_4 
REMARK    2  A    between atoms: N_7  and  C_9 
REMARK    3  A    between atoms: N_12  and  C_13 
REMARK    4  A    between atoms: C_16  and  C_17 
REMARK       I    between atoms: C_17  and  N_18 
REMARK    5  A    between atoms: C_20  and  C_21 
REMARK    6  A    between atoms: C_21  and  O_22 
REMARK    7  A    between atoms: C_33  and  O_34 
ROOT
HETATM    1  C   UNL     1      42.501 -16.327   6.848  1.00  0.00     0.191 C 
HETATM    2  C   UNL     1      42.987 -15.174   5.952  1.00  0.00     0.053 C 
HETATM    3  C   UNL     1      42.878 -15.508   4.466  1.00  0.00     0.125 C 
HETATM    4  N   UNL     1      41.528 -15.970   4.169  1.00  0.00    -0.381 N 
HETATM    5  C   UNL     1      40.906 -16.998   4.988  1.00  0.00     0.125 C 
HETATM    6  C   UNL     1      41.051 -16.659   6.465  1.00  0.00     0.053 C 
ENDROOT
BRANCH   4   7
HETATM    7  C   UNL     1      40.773 -15.223   3.275  1.00  0.00     0.030 A 
HETATM    8  C   UNL     1      40.187 -15.840   2.159  1.00  0.00     0.030 A 
HETATM    9  C   UNL     1      39.448 -15.108   1.224  1.00  0.00     0.019 A 
HETATM   10  C   UNL     1      39.283 -13.732   1.386  1.00  0.00     0.032 A 
HETATM   11  C   UNL     1      39.880 -13.093   2.475  1.00  0.00     0.019 A 
HETATM   12  C   UNL     1      40.594 -13.839   3.422  1.00  0.00     0.030 A 
BRANCH  10  13
HETATM   13  C   UNL     1      38.584 -12.975   0.317  1.00  0.00     0.253 C 
HETATM   14  N   UNL     1      39.195 -12.790  -0.929  1.00  0.00    -0.348 N 
HETATM   15  C   UNL     1      40.647 -12.659  -1.090  1.00  0.00     0.132 C 
HETATM   16  C   UNL     1      38.399 -12.084  -1.936  1.00  0.00     0.126 C 
HETATM   17  C   UNL     1      41.114 -13.069  -2.493  1.00  0.00     0.027 C 
HETATM   18  C   UNL     1      40.314 -12.308  -3.563  1.00  0.00     0.010 C 
HETATM   19  C   UNL     1      38.808 -12.452  -3.357  1.00  0.00     0.020 C 
HETATM   20  O   UNL     1      37.455 -12.563   0.579  1.00  0.00    -0.267 OA
BRANCH  17  21
HETATM   21  C   UNL     1      41.034 -14.593  -2.662  1.00  0.00     0.170 C 
BRANCH  21  22
HETATM   22  O   UNL     1      42.030 -15.069  -3.558  1.00  0.00    -0.400 OA
HETATM   23  H   UNL     1      41.606 -15.666  -4.198  1.00  0.00     0.209 HD
ENDBRANCH  21  22
ENDBRANCH  17  21
ENDBRANCH  10  13
ENDBRANCH   4   7
BRANCH   1  24
HETATM   24  N   UNL     1      43.445 -17.543   6.751  1.00  0.00    -0.064 N 
HETATM   25  C   UNL     1      42.674 -18.858   6.492  1.00  0.00     0.255 C 
HETATM   26  C   UNL     1      43.623 -20.070   6.565  1.00  0.00     0.150 C 
HETATM   27  N   UNL     1      44.765 -19.935   5.632  1.00  0.00    -0.375 N 
HETATM   28  C   UNL     1      45.485 -18.653   5.710  1.00  0.00     0.150 C 
HETATM   29  C   UNL     1      44.546 -17.425   5.683  1.00  0.00     0.255 C 
HETATM   30  H   UNL     1      43.930 -17.652   7.650  1.00  0.00     0.280 HD
BRANCH  27  31
HETATM   31  C   UNL     1      44.580 -20.551   4.383  1.00  0.00     0.063 A 
HETATM   32  C   UNL     1      44.155 -19.878   3.231  1.00  0.00     0.032 A 
HETATM   33  C   UNL     1      43.955 -20.562   2.023  1.00  0.00     0.002 A 
HETATM   34  C   UNL     1      44.184 -21.934   1.938  1.00  0.00     0.003 A 
HETATM   35  C   UNL     1      44.639 -22.625   3.055  1.00  0.00     0.039 A 
HETATM   36  C   UNL     1      44.847 -21.931   4.241  1.00  0.00     0.092 A 
BRANCH  36  37
HETATM   37  O   UNL     1      45.407 -22.624   5.284  1.00  0.00    -0.358 OA
HETATM   38  H   UNL     1      45.037 -23.523   5.200  1.00  0.00     0.218 HD
ENDBRANCH  36  37
ENDBRANCH  27  31
ENDBRANCH   1  24
TORSDOF 7
ENDMDL
MODEL 2
REMARK VINA RESULT:      -9.1      5.466     10.313
REMARK  7 active torsions:
REMARK  status: ('A' for Active; 'I' for Inactive)
REMARK    1  A    between atoms: C_3  and  N_4 
REMARK    2  A    between atoms: N_7  and  C_9 
REMARK    3  A    between atoms: N_12  and  C_13 
REMARK    4  A    between atoms: C_16  and  C_17 
REMARK       I    between atoms: C_17  and  N_18 
REMARK    5  A    between atoms: C_20  and  C_21 
REMARK    6  A    between atoms: C_21  and  O_22 
REMARK    7  A    between atoms: C_33  and  O_34 
ROOT
HETATM    1  C   UNL     1      39.376 -13.534   3.348  1.00  0.00     0.191 C 
HETATM    2  C   UNL     1      40.232 -14.012   4.534  1.00  0.00     0.053 C 
HETATM    3  C   UNL     1      41.371 -13.047   4.852  1.00  0.00     0.125 C 
HETATM    4  N   UNL     1      40.840 -11.698   5.001  1.00  0.00    -0.381 N 
HETATM    5  C   UNL     1      39.946 -11.145   3.996  1.00  0.00     0.125 C 
HETATM    6  C   UNL     1      38.834 -12.134   3.675  1.00  0.00     0.053 C 
ENDROOT
BRANCH   4   7
HETATM    7  C   UNL     1      40.990 -11.079   6.235  1.00  0.00     0.030 A 
HETATM    8  C   UNL     1      40.039 -10.145   6.676  1.00  0.00     0.030 A 
HETATM    9  C   UNL     1      40.179  -9.482   7.898  1.00  0.00     0.019 A 
HETATM   10  C   UNL     1      41.284  -9.738   8.711  1.00  0.00     0.032 A 
HETATM   11  C   UNL     1      42.256 -10.644   8.280  1.00  0.00     0.019 A 
HETATM   12  C   UNL     1      42.093 -11.325   7.066  1.00  0.00     0.030 A 
BRANCH  10  13
HETATM   13  C   UNL     1      41.451  -8.936   9.948  1.00  0.00     0.253 C 
HETATM   14  N   UNL     1      41.860  -9.552  11.137  1.00  0.00    -0.348 N 
HETATM   15  C   UNL     1      41.503 -10.933  11.480  1.00  0.00     0.132 C 
HETATM   16  C   UNL     1      42.055  -8.665  12.286  1.00  0.00     0.126 C 
HETATM   17  C   UNL     1      42.506 -11.567  12.453  1.00  0.00     0.027 C 
HETATM   18  C   UNL     1      42.693 -10.666  13.685  1.00  0.00     0.010 C 
HETATM   19  C   UNL     1      43.049  -9.234  13.292  1.00  0.00     0.020 C 
HETATM   20  O   UNL     1      41.245  -7.727   9.855  1.00  0.00    -0.267 OA
BRANCH  17  21
HETATM   21  C   UNL     1      43.827 -11.878  11.736  1.00  0.00     0.170 C 
BRANCH  21  22
HETATM   22  O   UNL     1      44.124 -13.267  11.773  1.00  0.00    -0.400 OA
HETATM   23  H   UNL     1      44.203 -13.588  10.858  1.00  0.00     0.209 HD
ENDBRANCH  21  22
ENDBRANCH  17  21
ENDBRANCH  10  13
ENDBRANCH   4   7
BRANCH   1  24
HETATM   24  N   UNL     1      40.175 -13.579   2.030  1.00  0.00    -0.064 N 
HETATM   25  C   UNL     1      40.171 -14.989   1.394  1.00  0.00     0.255 C 
HETATM   26  C   UNL     1      41.110 -15.040   0.174  1.00  0.00     0.150 C 
HETATM   27  N   UNL     1      40.767 -14.008  -0.831  1.00  0.00    -0.375 N 
HETATM   28  C   UNL     1      40.617 -12.644  -0.296  1.00  0.00     0.150 C 
HETATM   29  C   UNL     1      39.713 -12.578   0.957  1.00  0.00     0.255 C 
HETATM   30  H   UNL     1      41.155 -13.346   2.234  1.00  0.00     0.280 HD
BRANCH  27  31
HETATM   31  C   UNL     1      39.917 -14.446  -1.859  1.00  0.00     0.063 A 
HETATM   32  C   UNL     1      38.568 -14.089  -1.968  1.00  0.00     0.032 A 
HETATM   33  C   UNL     1      37.765 -14.593  -3.002  1.00  0.00     0.002 A 
HETATM   34  C   UNL     1      38.296 -15.459  -3.955  1.00  0.00     0.003 A 
HETATM   35  C   UNL     1      39.640 -15.806  -3.894  1.00  0.00     0.039 A 
HETATM   36  C   UNL     1      40.428 -15.287  -2.873  1.00  0.00     0.092 A 
BRANCH  36  37
HETATM   37  O   UNL     1      41.772 -15.558  -2.917  1.00  0.00    -0.358 OA
HETATM   38  H   UNL     1      42.195 -14.679  -2.894  1.00  0.00     0.218 HD
ENDBRANCH  36  37
ENDBRANCH  27  31
ENDBRANCH   1  24
TORSDOF 7
ENDMDL
MODEL 3
REMARK VINA RESULT:      -9.0      5.874     10.612
REMARK  7 active torsions:
REMARK  status: ('A' for Active; 'I' for Inactive)
REMARK    1  A    between atoms: C_3  and  N_4 
REMARK    2  A    between atoms: N_7  and  C_9 
REMARK    3  A    between atoms: N_12  and  C_13 
REMARK    4  A    between atoms: C_16  and  C_17 
REMARK       I    between atoms: C_17  and  N_18 
REMARK    5  A    between atoms: C_20  and  C_21 
REMARK    6  A    between atoms: C_21  and  O_22 
REMARK    7  A    between atoms: C_33  and  O_34 
ROOT
HETATM    1  C   UNL     1      40.714 -13.616   3.847  1.00  0.00     0.191 C 
HETATM    2  C   UNL     1      41.778 -12.535   4.107  1.00  0.00     0.053 C 
HETATM    3  C   UNL     1      41.162 -11.198   4.509  1.00  0.00     0.125 C 
HETATM    4  N   UNL     1      40.233 -11.403   5.613  1.00  0.00    -0.381 N 
HETATM    5  C   UNL     1      39.225 -12.448   5.542  1.00  0.00     0.125 C 
HETATM    6  C   UNL     1      39.857 -13.765   5.114  1.00  0.00     0.053 C 
ENDROOT
BRANCH   4   7
HETATM    7  C   UNL     1      40.512 -10.767   6.816  1.00  0.00     0.030 A 
HETATM    8  C   UNL     1      39.486 -10.131   7.533  1.00  0.00     0.030 A 
HETATM    9  C   UNL     1      39.742  -9.456   8.730  1.00  0.00     0.019 A 
HETATM   10  C   UNL     1      41.041  -9.399   9.238  1.00  0.00     0.032 A 
HETATM   11  C   UNL     1      42.081 -10.002   8.527  1.00  0.00     0.019 A 
HETATM   12  C   UNL     1      41.810 -10.700   7.342  1.00  0.00     0.030 A 
BRANCH  10  13
HETATM   13  C   UNL     1      41.288  -8.583  10.452  1.00  0.00     0.253 C 
HETATM   14  N   UNL     1      41.672  -9.199  11.649  1.00  0.00    -0.348 N 
HETATM   15  C   UNL     1      41.221 -10.541  12.031  1.00  0.00     0.132 C 
HETATM   16  C   UNL     1      41.952  -8.302  12.772  1.00  0.00     0.126 C 
HETATM   17  C   UNL     1      42.193 -11.225  13.003  1.00  0.00     0.027 C 
HETATM   18  C   UNL     1      42.467 -10.311  14.209  1.00  0.00     0.010 C 
HETATM   19  C   UNL     1      42.919  -8.919  13.776  1.00  0.00     0.020 C 
HETATM   20  O   UNL     1      41.169  -7.363  10.332  1.00  0.00    -0.267 OA
BRANCH  17  21
HETATM   21  C   UNL     1      43.475 -11.648  12.272  1.00  0.00     0.170 C 
BRANCH  21  22
HETATM   22  O   UNL     1      43.186 -12.207  10.998  1.00  0.00    -0.400 OA
HETATM   23  H   UNL     1      44.024 -12.335  10.522  1.00  0.00     0.209 HD
ENDBRANCH  21  22
ENDBRANCH  17  21
ENDBRANCH  10  13
ENDBRANCH   4   7
BRANCH   1  24
HETATM   24  N   UNL     1      39.882 -13.287   2.591  1.00  0.00    -0.064 N 
HETATM   25  C   UNL     1      40.762 -12.776   1.427  1.00  0.00     0.255 C 
HETATM   26  C   UNL     1      39.888 -12.303   0.250  1.00  0.00     0.150 C 
HETATM   27  N   UNL     1      38.964 -13.363  -0.214  1.00  0.00    -0.375 N 
HETATM   28  C   UNL     1      38.173 -14.007   0.848  1.00  0.00     0.150 C 
HETATM   29  C   UNL     1      39.026 -14.450   2.059  1.00  0.00     0.255 C 
HETATM   30  H   UNL     1      39.224 -12.533   2.823  1.00  0.00     0.280 HD
BRANCH  27  31
HETATM   31  C   UNL     1      39.442 -14.133  -1.286  1.00  0.00     0.063 A 
HETATM   32  C   UNL     1      40.595 -14.925  -1.230  1.00  0.00     0.032 A 
HETATM   33  C   UNL     1      41.039 -15.642  -2.351  1.00  0.00     0.002 A 
HETATM   34  C   UNL     1      40.333 -15.589  -3.552  1.00  0.00     0.003 A 
HETATM   35  C   UNL     1      39.167 -14.839  -3.630  1.00  0.00     0.039 A 
HETATM   36  C   UNL     1      38.731 -14.146  -2.507  1.00  0.00     0.092 A 
BRANCH  36  37
HETATM   37  O   UNL     1      37.516 -13.515  -2.590  1.00  0.00    -0.358 OA
HETATM   38  H   UNL     1      37.743 -12.572  -2.704  1.00  0.00     0.218 HD
ENDBRANCH  36  37
ENDBRANCH  27  31
ENDBRANCH   1  24
TORSDOF 7
ENDMDL
MODEL 4
REMARK VINA RESULT:      -8.9      4.186      6.196
REMARK  7 active torsions:
REMARK  status: ('A' for Active; 'I' for Inactive)
REMARK    1  A    between atoms: C_3  and  N_4 
REMARK    2  A    between atoms: N_7  and  C_9 
REMARK    3  A    between atoms: N_12  and  C_13 
REMARK    4  A    between atoms: C_16  and  C_17 
REMARK       I    between atoms: C_17  and  N_18 
REMARK    5  A    between atoms: C_20  and  C_21 
REMARK    6  A    between atoms: C_21  and  O_22 
REMARK    7  A    between atoms: C_33  and  O_34 
ROOT
HETATM    1  C   UNL     1      41.357 -14.528   1.183  1.00  0.00     0.191 C 
HETATM    2  C   UNL     1      39.938 -14.874   0.700  1.00  0.00     0.053 C 
HETATM    3  C   UNL     1      38.866 -14.458   1.704  1.00  0.00     0.125 C 
HETATM    4  N   UNL     1      39.053 -13.058   2.064  1.00  0.00    -0.381 N 
HETATM    5  C   UNL     1      40.364 -12.570   2.459  1.00  0.00     0.125 C 
HETATM    6  C   UNL     1      41.421 -13.019   1.459  1.00  0.00     0.053 C 
ENDROOT
BRANCH   4   7
HETATM    7  C   UNL     1      38.028 -12.172   1.759  1.00  0.00     0.030 A 
HETATM    8  C   UNL     1      37.109 -12.480   0.743  1.00  0.00     0.030 A 
HETATM    9  C   UNL     1      36.086 -11.594   0.392  1.00  0.00     0.019 A 
HETATM   10  C   UNL     1      35.962 -10.370   1.052  1.00  0.00     0.032 A 
HETATM   11  C   UNL     1      36.882 -10.033   2.047  1.00  0.00     0.019 A 
HETATM   12  C   UNL     1      37.887 -10.939   2.412  1.00  0.00     0.030 A 
BRANCH  10  13
HETATM   13  C   UNL     1      34.931  -9.415   0.577  1.00  0.00     0.253 C 
HETATM   14  N   UNL     1      33.801  -9.151   1.360  1.00  0.00    -0.348 N 
HETATM   15  C   UNL     1      33.186 -10.158   2.232  1.00  0.00     0.132 C 
HETATM   16  C   UNL     1      32.874  -8.147   0.832  1.00  0.00     0.126 C 
HETATM   17  C   UNL     1      32.405  -9.523   3.390  1.00  0.00     0.027 C 
HETATM   18  C   UNL     1      31.399  -8.493   2.850  1.00  0.00     0.010 C 
HETATM   19  C   UNL     1      32.068  -7.470   1.935  1.00  0.00     0.020 C 
HETATM   20  O   UNL     1      35.145  -8.861  -0.501  1.00  0.00    -0.267 OA
BRANCH  17  21
HETATM   21  C   UNL     1      33.368  -8.928   4.426  1.00  0.00     0.170 C 
BRANCH  21  22
HETATM   22  O   UNL     1      33.653  -9.856   5.464  1.00  0.00    -0.400 OA
HETATM   23  H   UNL     1      34.277 -10.518   5.121  1.00  0.00     0.209 HD
ENDBRANCH  21  22
ENDBRANCH  17  21
ENDBRANCH  10  13
ENDBRANCH   4   7
BRANCH   1  24
HETATM   24  N   UNL     1      41.753 -15.383   2.405  1.00  0.00    -0.064 N 
HETATM   25  C   UNL     1      41.059 -16.764   2.399  1.00  0.00     0.255 C 
HETATM   26  C   UNL     1      41.344 -17.523   3.709  1.00  0.00     0.150 C 
HETATM   27  N   UNL     1      42.796 -17.664   3.961  1.00  0.00    -0.375 N 
HETATM   28  C   UNL     1      43.570 -16.416   3.857  1.00  0.00     0.150 C 
HETATM   29  C   UNL     1      43.265 -15.616   2.570  1.00  0.00     0.255 C 
HETATM   30  H   UNL     1      41.446 -14.896   3.256  1.00  0.00     0.280 HD
BRANCH  27  31
HETATM   31  C   UNL     1      43.358 -18.869   3.507  1.00  0.00     0.063 A 
HETATM   32  C   UNL     1      43.114 -19.421   2.244  1.00  0.00     0.032 A 
HETATM   33  C   UNL     1      43.680 -20.648   1.867  1.00  0.00     0.002 A 
HETATM   34  C   UNL     1      44.509 -21.346   2.742  1.00  0.00     0.003 A 
HETATM   35  C   UNL     1      44.797 -20.808   3.991  1.00  0.00     0.039 A 
HETATM   36  C   UNL     1      44.242 -19.584   4.345  1.00  0.00     0.092 A 
BRANCH  36  37
HETATM   37  O   UNL     1      44.644 -19.033   5.535  1.00  0.00    -0.358 OA
HETATM   38  H   UNL     1      43.831 -18.642   5.905  1.00  0.00     0.218 HD
ENDBRANCH  36  37
ENDBRANCH  27  31
ENDBRANCH   1  24
TORSDOF 7
ENDMDL
MODEL 5
REMARK VINA RESULT:      -8.4      3.263      5.269
REMARK  7 active torsions:
REMARK  status: ('A' for Active; 'I' for Inactive)
REMARK    1  A    between atoms: C_3  and  N_4 
REMARK    2  A    between atoms: N_7  and  C_9 
REMARK    3  A    between atoms: N_12  and  C_13 
REMARK    4  A    between atoms: C_16  and  C_17 
REMARK       I    between atoms: C_17  and  N_18 
REMARK    5  A    between atoms: C_20  and  C_21 
REMARK    6  A    between atoms: C_21  and  O_22 
REMARK    7  A    between atoms: C_33  and  O_34 
ROOT
HETATM    1  C   UNL     1      40.674 -16.214   0.951  1.00  0.00     0.191 C 
HETATM    2  C   UNL     1      39.677 -15.427   1.818  1.00  0.00     0.053 C 
HETATM    3  C   UNL     1      40.192 -14.035   2.177  1.00  0.00     0.125 C 
HETATM    4  N   UNL     1      40.610 -13.343   0.963  1.00  0.00    -0.381 N 
HETATM    5  C   UNL     1      41.485 -14.000   0.007  1.00  0.00     0.125 C 
HETATM    6  C   UNL     1      40.968 -15.395  -0.315  1.00  0.00     0.053 C 
ENDROOT
BRANCH   4   7
HETATM    7  C   UNL     1      39.941 -12.174   0.626  1.00  0.00     0.030 A 
HETATM    8  C   UNL     1      39.277 -11.431   1.615  1.00  0.00     0.030 A 
HETATM    9  C   UNL     1      38.568 -10.268   1.301  1.00  0.00     0.019 A 
HETATM   10  C   UNL     1      38.504  -9.821  -0.019  1.00  0.00     0.032 A 
HETATM   11  C   UNL     1      39.135 -10.560  -1.023  1.00  0.00     0.019 A 
HETATM   12  C   UNL     1      39.867 -11.709  -0.695  1.00  0.00     0.030 A 
BRANCH  10  13
HETATM   13  C   UNL     1      37.654  -8.644  -0.326  1.00  0.00     0.253 C 
HETATM   14  N   UNL     1      36.259  -8.754  -0.290  1.00  0.00    -0.348 N 
HETATM   15  C   UNL     1      35.551  -9.989  -0.644  1.00  0.00     0.132 C 
HETATM   16  C   UNL     1      35.511  -7.522  -0.547  1.00  0.00     0.126 C 
HETATM   17  C   UNL     1      34.172 -10.078   0.023  1.00  0.00     0.027 C 
HETATM   18  C   UNL     1      33.357  -8.807  -0.268  1.00  0.00     0.010 C 
HETATM   19  C   UNL     1      34.129  -7.541   0.096  1.00  0.00     0.020 C 
HETATM   20  O   UNL     1      38.239  -7.590  -0.573  1.00  0.00    -0.267 OA
BRANCH  17  21
HETATM   21  C   UNL     1      34.319 -10.359   1.526  1.00  0.00     0.170 C 
BRANCH  21  22
HETATM   22  O   UNL     1      33.188 -11.050   2.038  1.00  0.00    -0.400 OA
HETATM   23  H   UNL     1      32.413 -10.467   1.964  1.00  0.00     0.209 HD
ENDBRANCH  21  22
ENDBRANCH  17  21
ENDBRANCH  10  13
ENDBRANCH   4   7
BRANCH   1  24
HETATM   24  N   UNL     1      41.946 -16.570   1.748  1.00  0.00    -0.064 N 
HETATM   25  C   UNL     1      41.642 -17.497   2.947  1.00  0.00     0.255 C 
HETATM   26  C   UNL     1      42.899 -17.697   3.815  1.00  0.00     0.150 C 
HETATM   27  N   UNL     1      44.039 -18.214   3.024  1.00  0.00    -0.375 N 
HETATM   28  C   UNL     1      44.326 -17.472   1.785  1.00  0.00     0.150 C 
HETATM   29  C   UNL     1      43.068 -17.222   0.922  1.00  0.00     0.255 C 
HETATM   30  H   UNL     1      42.343 -15.703   2.132  1.00  0.00     0.280 HD
BRANCH  27  31
HETATM   31  C   UNL     1      44.184 -19.611   3.045  1.00  0.00     0.063 A 
HETATM   32  C   UNL     1      43.837 -20.452   1.980  1.00  0.00     0.032 A 
HETATM   33  C   UNL     1      43.973 -21.844   2.080  1.00  0.00     0.002 A 
HETATM   34  C   UNL     1      44.468 -22.427   3.245  1.00  0.00     0.003 A 
HETATM   35  C   UNL     1      44.853 -21.618   4.307  1.00  0.00     0.039 A 
HETATM   36  C   UNL     1      44.727 -20.239   4.188  1.00  0.00     0.092 A 
BRANCH  36  37
HETATM   37  O   UNL     1      45.227 -19.472   5.210  1.00  0.00    -0.358 OA
HETATM   38  H   UNL     1      45.520 -20.122   5.876  1.00  0.00     0.218 HD
ENDBRANCH  36  37
ENDBRANCH  27  31
ENDBRANCH   1  24
TORSDOF 7
ENDMDL
MODEL 6
REMARK VINA RESULT:      -8.3      3.079      4.712
REMARK  7 active torsions:
REMARK  status: ('A' for Active; 'I' for Inactive)
REMARK    1  A    between atoms: C_3  and  N_4 
REMARK    2  A    between atoms: N_7  and  C_9 
REMARK    3  A    between atoms: N_12  and  C_13 
REMARK    4  A    between atoms: C_16  and  C_17 
REMARK       I    between atoms: C_17  and  N_18 
REMARK    5  A    between atoms: C_20  and  C_21 
REMARK    6  A    between atoms: C_21  and  O_22 
REMARK    7  A    between atoms: C_33  and  O_34 
ROOT
HETATM    1  C   UNL     1      40.657 -16.097   0.975  1.00  0.00     0.191 C 
HETATM    2  C   UNL     1      39.943 -14.876   1.580  1.00  0.00     0.053 C 
HETATM    3  C   UNL     1      40.762 -13.596   1.438  1.00  0.00     0.125 C 
HETATM    4  N   UNL     1      41.164 -13.427   0.047  1.00  0.00    -0.381 N 
HETATM    5  C   UNL     1      41.775 -14.528  -0.680  1.00  0.00     0.125 C 
HETATM    6  C   UNL     1      40.957 -15.800  -0.502  1.00  0.00     0.053 C 
ENDROOT
BRANCH   4   7
HETATM    7  C   UNL     1      40.705 -12.302  -0.625  1.00  0.00     0.030 A 
HETATM    8  C   UNL     1      40.209 -12.414  -1.933  1.00  0.00     0.030 A 
HETATM    9  C   UNL     1      39.770 -11.295  -2.646  1.00  0.00     0.019 A 
HETATM   10  C   UNL     1      39.821 -10.028  -2.062  1.00  0.00     0.032 A 
HETATM   11  C   UNL     1      40.335  -9.890  -0.771  1.00  0.00     0.019 A 
HETATM   12  C   UNL     1      40.747 -11.022  -0.054  1.00  0.00     0.030 A 
BRANCH  10  13
HETATM   13  C   UNL     1      39.447  -8.855  -2.889  1.00  0.00     0.253 C 
HETATM   14  N   UNL     1      40.291  -8.419  -3.918  1.00  0.00    -0.348 N 
HETATM   15  C   UNL     1      41.751  -8.539  -3.851  1.00  0.00     0.132 C 
HETATM   16  C   UNL     1      39.803  -7.292  -4.715  1.00  0.00     0.126 C 
HETATM   17  C   UNL     1      42.395  -8.580  -5.243  1.00  0.00     0.027 C 
HETATM   18  C   UNL     1      41.923  -7.381  -6.082  1.00  0.00     0.010 C 
HETATM   19  C   UNL     1      40.400  -7.277  -6.118  1.00  0.00     0.020 C 
HETATM   20  O   UNL     1      38.363  -8.326  -2.641  1.00  0.00    -0.267 OA
BRANCH  17  21
HETATM   21  C   UNL     1      42.118  -9.928  -5.924  1.00  0.00     0.170 C 
BRANCH  21  22
HETATM   22  O   UNL     1      42.656 -11.008  -5.174  1.00  0.00    -0.400 OA
HETATM   23  H   UNL     1      42.120 -11.801  -5.349  1.00  0.00     0.209 HD
ENDBRANCH  21  22
ENDBRANCH  17  21
ENDBRANCH  10  13
ENDBRANCH   4   7
BRANCH   1  24
HETATM   24  N   UNL     1      41.917 -16.464   1.785  1.00  0.00    -0.064 N 
HETATM   25  C   UNL     1      41.596 -17.408   2.966  1.00  0.00     0.255 C 
HETATM   26  C   UNL     1      42.840 -17.621   3.849  1.00  0.00     0.150 C 
HETATM   27  N   UNL     1      43.992 -18.127   3.068  1.00  0.00    -0.375 N 
HETATM   28  C   UNL     1      44.296 -17.367   1.843  1.00  0.00     0.150 C 
HETATM   29  C   UNL     1      43.051 -17.104   0.966  1.00  0.00     0.255 C 
HETATM   30  H   UNL     1      42.308 -15.603   2.187  1.00  0.00     0.280 HD
BRANCH  27  31
HETATM   31  C   UNL     1      44.137 -19.524   3.070  1.00  0.00     0.063 A 
HETATM   32  C   UNL     1      43.773 -20.352   2.002  1.00  0.00     0.032 A 
HETATM   33  C   UNL     1      43.910 -21.746   2.084  1.00  0.00     0.002 A 
HETATM   34  C   UNL     1      44.424 -22.341   3.235  1.00  0.00     0.003 A 
HETATM   35  C   UNL     1      44.825 -21.544   4.300  1.00  0.00     0.039 A 
HETATM   36  C   UNL     1      44.697 -20.164   4.198  1.00  0.00     0.092 A 
BRANCH  36  37
HETATM   37  O   UNL     1      45.213 -19.408   5.220  1.00  0.00    -0.358 OA
HETATM   38  H   UNL     1      44.874 -19.836   6.029  1.00  0.00     0.218 HD
ENDBRANCH  36  37
ENDBRANCH  27  31
ENDBRANCH   1  24
TORSDOF 7
ENDMDL
MODEL 7
REMARK VINA RESULT:      -8.1      5.493     10.497
REMARK  7 active torsions:
REMARK  status: ('A' for Active; 'I' for Inactive)
REMARK    1  A    between atoms: C_3  and  N_4 
REMARK    2  A    between atoms: N_7  and  C_9 
REMARK    3  A    between atoms: N_12  and  C_13 
REMARK    4  A    between atoms: C_16  and  C_17 
REMARK       I    between atoms: C_17  and  N_18 
REMARK    5  A    between atoms: C_20  and  C_21 
REMARK    6  A    between atoms: C_21  and  O_22 
REMARK    7  A    between atoms: C_33  and  O_34 
ROOT
HETATM    1  C   UNL     1      40.760 -14.476   3.823  1.00  0.00     0.191 C 
HETATM    2  C   UNL     1      42.160 -13.855   3.971  1.00  0.00     0.053 C 
HETATM    3  C   UNL     1      42.103 -12.383   4.374  1.00  0.00     0.125 C 
HETATM    4  N   UNL     1      41.252 -12.233   5.548  1.00  0.00    -0.381 N 
HETATM    5  C   UNL     1      39.932 -12.841   5.582  1.00  0.00     0.125 C 
HETATM    6  C   UNL     1      40.009 -14.299   5.151  1.00  0.00     0.053 C 
ENDROOT
BRANCH   4   7
HETATM    7  C   UNL     1      41.835 -11.738   6.707  1.00  0.00     0.030 A 
HETATM    8  C   UNL     1      42.990 -12.341   7.228  1.00  0.00     0.030 A 
HETATM    9  C   UNL     1      43.582 -11.886   8.410  1.00  0.00     0.019 A 
HETATM   10  C   UNL     1      43.024 -10.811   9.103  1.00  0.00     0.032 A 
HETATM   11  C   UNL     1      41.860 -10.212   8.616  1.00  0.00     0.019 A 
HETATM   12  C   UNL     1      41.290 -10.658   7.416  1.00  0.00     0.030 A 
BRANCH  10  13
HETATM   13  C   UNL     1      43.619 -10.427  10.408  1.00  0.00     0.253 C 
HETATM   14  N   UNL     1      42.799 -10.233  11.526  1.00  0.00    -0.348 N 
HETATM   15  C   UNL     1      41.432  -9.711  11.426  1.00  0.00     0.132 C 
HETATM   16  C   UNL     1      43.487  -9.917  12.779  1.00  0.00     0.126 C 
HETATM   17  C   UNL     1      40.559 -10.143  12.613  1.00  0.00     0.027 C 
HETATM   18  C   UNL     1      41.250  -9.784  13.938  1.00  0.00     0.010 C 
HETATM   19  C   UNL     1      42.675 -10.328  14.002  1.00  0.00     0.020 C 
HETATM   20  O   UNL     1      44.845 -10.328  10.448  1.00  0.00    -0.267 OA
BRANCH  17  21
HETATM   21  C   UNL     1      40.209 -11.634  12.508  1.00  0.00     0.170 C 
BRANCH  21  22
HETATM   22  O   UNL     1      39.910 -12.004  11.169  1.00  0.00    -0.400 OA
HETATM   23  H   UNL     1      40.103 -12.952  11.063  1.00  0.00     0.209 HD
ENDBRANCH  21  22
ENDBRANCH  17  21
ENDBRANCH  10  13
ENDBRANCH   4   7
BRANCH   1  24
HETATM   24  N   UNL     1      40.008 -13.872   2.619  1.00  0.00    -0.064 N 
HETATM   25  C   UNL     1      40.972 -13.397   1.508  1.00  0.00     0.255 C 
HETATM   26  C   UNL     1      40.204 -12.653   0.400  1.00  0.00     0.150 C 
HETATM   27  N   UNL     1      39.113 -13.479  -0.166  1.00  0.00    -0.375 N 
HETATM   28  C   UNL     1      38.213 -14.089   0.827  1.00  0.00     0.150 C 
HETATM   29  C   UNL     1      38.967 -14.803   1.973  1.00  0.00     0.255 C 
HETATM   30  H   UNL     1      39.490 -13.045   2.941  1.00  0.00     0.280 HD
BRANCH  27  31
HETATM   31  C   UNL     1      39.459 -14.198  -1.322  1.00  0.00     0.063 A 
HETATM   32  C   UNL     1      40.598 -15.005  -1.432  1.00  0.00     0.032 A 
HETATM   33  C   UNL     1      40.904 -15.669  -2.629  1.00  0.00     0.002 A 
HETATM   34  C   UNL     1      40.073 -15.546  -3.741  1.00  0.00     0.003 A 
HETATM   35  C   UNL     1      38.918 -14.779  -3.654  1.00  0.00     0.039 A 
HETATM   36  C   UNL     1      38.619 -14.140  -2.456  1.00  0.00     0.092 A 
BRANCH  36  37
HETATM   37  O   UNL     1      37.413 -13.492  -2.374  1.00  0.00    -0.358 OA
HETATM   38  H   UNL     1      36.790 -14.087  -2.833  1.00  0.00     0.218 HD
ENDBRANCH  36  37
ENDBRANCH  27  31
ENDBRANCH   1  24
TORSDOF 7
ENDMDL
MODEL 8
REMARK VINA RESULT:      -8.1      2.425      3.785
REMARK  7 active torsions:
REMARK  status: ('A' for Active; 'I' for Inactive)
REMARK    1  A    between atoms: C_3  and  N_4 
REMARK    2  A    between atoms: N_7  and  C_9 
REMARK    3  A    between atoms: N_12  and  C_13 
REMARK    4  A    between atoms: C_16  and  C_17 
REMARK       I    between atoms: C_17  and  N_18 
REMARK    5  A    between atoms: C_20  and  C_21 
REMARK    6  A    between atoms: C_21  and  O_22 
REMARK    7  A    between atoms: C_33  and  O_34 
ROOT
HETATM    1  C   UNL     1      41.995 -15.306   2.206  1.00  0.00     0.191 C 
HETATM    2  C   UNL     1      40.731 -15.804   1.483  1.00  0.00     0.053 C 
HETATM    3  C   UNL     1      39.449 -15.373   2.192  1.00  0.00     0.125 C 
HETATM    4  N   UNL     1      39.481 -13.934   2.423  1.00  0.00    -0.381 N 
HETATM    5  C   UNL     1      40.651 -13.312   3.022  1.00  0.00     0.125 C 
HETATM    6  C   UNL     1      41.917 -13.777   2.317  1.00  0.00     0.053 C 
ENDROOT
BRANCH   4   7
HETATM    7  C   UNL     1      38.499 -13.163   1.817  1.00  0.00     0.030 A 
HETATM    8  C   UNL     1      37.675 -13.721   0.826  1.00  0.00     0.030 A 
HETATM    9  C   UNL     1      36.699 -12.961   0.175  1.00  0.00     0.019 A 
HETATM   10  C   UNL     1      36.527 -11.615   0.501  1.00  0.00     0.032 A 
HETATM   11  C   UNL     1      37.354 -11.033   1.464  1.00  0.00     0.019 A 
HETATM   12  C   UNL     1      38.311 -11.809   2.131  1.00  0.00     0.030 A 
BRANCH  10  13
HETATM   13  C   UNL     1      35.555 -10.817  -0.287  1.00  0.00     0.253 C 
HETATM   14  N   UNL     1      35.750 -10.625  -1.660  1.00  0.00    -0.348 N 
HETATM   15  C   UNL     1      37.082 -10.534  -2.268  1.00  0.00     0.132 C 
HETATM   16  C   UNL     1      34.704  -9.876  -2.359  1.00  0.00     0.126 C 
HETATM   17  C   UNL     1      37.072 -10.930  -3.751  1.00  0.00     0.027 C 
HETATM   18  C   UNL     1      36.004 -10.124  -4.508  1.00  0.00     0.010 C 
HETATM   19  C   UNL     1      34.634 -10.228  -3.841  1.00  0.00     0.020 C 
HETATM   20  O   UNL     1      34.580 -10.377   0.320  1.00  0.00    -0.267 OA
BRANCH  17  21
HETATM   21  C   UNL     1      36.891 -12.447  -3.901  1.00  0.00     0.170 C 
BRANCH  21  22
HETATM   22  O   UNL     1      38.142 -13.120  -3.923  1.00  0.00    -0.400 OA
HETATM   23  H   UNL     1      38.030 -13.961  -4.397  1.00  0.00     0.209 HD
ENDBRANCH  21  22
ENDBRANCH  17  21
ENDBRANCH  10  13
ENDBRANCH   4   7
BRANCH   1  24
HETATM   24  N   UNL     1      42.167 -16.004   3.571  1.00  0.00    -0.064 N 
HETATM   25  C   UNL     1      41.534 -17.414   3.588  1.00  0.00     0.255 C 
HETATM   26  C   UNL     1      41.577 -18.013   5.007  1.00  0.00     0.150 C 
HETATM   27  N   UNL     1      42.953 -18.047   5.551  1.00  0.00    -0.375 N 
HETATM   28  C   UNL     1      43.691 -16.776   5.457  1.00  0.00     0.150 C 
HETATM   29  C   UNL     1      43.622 -16.135   4.052  1.00  0.00     0.255 C 
HETATM   30  H   UNL     1      41.680 -15.447   4.284  1.00  0.00     0.280 HD
BRANCH  27  31
HETATM   31  C   UNL     1      43.634 -19.260   5.356  1.00  0.00     0.063 A 
HETATM   32  C   UNL     1      44.193 -19.658   4.136  1.00  0.00     0.032 A 
HETATM   33  C   UNL     1      44.829 -20.901   4.000  1.00  0.00     0.002 A 
HETATM   34  C   UNL     1      44.927 -21.770   5.085  1.00  0.00     0.003 A 
HETATM   35  C   UNL     1      44.412 -21.389   6.318  1.00  0.00     0.039 A 
HETATM   36  C   UNL     1      43.798 -20.148   6.442  1.00  0.00     0.092 A 
BRANCH  36  37
HETATM   37  O   UNL     1      43.410 -19.762   7.699  1.00  0.00    -0.358 OA
HETATM   38  H   UNL     1      43.089 -18.848   7.581  1.00  0.00     0.218 HD
ENDBRANCH  36  37
ENDBRANCH  27  31
ENDBRANCH   1  24
TORSDOF 7
ENDMDL
MODEL 9
REMARK VINA RESULT:      -8.0      2.999     10.478
REMARK  7 active torsions:
REMARK  status: ('A' for Active; 'I' for Inactive)
REMARK    1  A    between atoms: C_3  and  N_4 
REMARK    2  A    between atoms: N_7  and  C_9 
REMARK    3  A    between atoms: N_12  and  C_13 
REMARK    4  A    between atoms: C_16  and  C_17 
REMARK       I    between atoms: C_17  and  N_18 
REMARK    5  A    between atoms: C_20  and  C_21 
REMARK    6  A    between atoms: C_21  and  O_22 
REMARK    7  A    between atoms: C_33  and  O_34 
ROOT
HETATM    1  C   UNL     1      38.314 -13.901  -2.007  1.00  0.00     0.191 C 
HETATM    2  C   UNL     1      39.378 -14.917  -2.458  1.00  0.00     0.053 C 
HETATM    3  C   UNL     1      40.710 -14.720  -1.738  1.00  0.00     0.125 C 
HETATM    4  N   UNL     1      40.485 -14.687  -0.298  1.00  0.00    -0.381 N 
HETATM    5  C   UNL     1      39.450 -13.835   0.264  1.00  0.00     0.125 C 
HETATM    6  C   UNL     1      38.139 -14.027  -0.486  1.00  0.00     0.053 C 
ENDROOT
BRANCH   4   7
HETATM    7  C   UNL     1      41.086 -15.674   0.471  1.00  0.00     0.030 A 
HETATM    8  C   UNL     1      42.326 -16.209   0.087  1.00  0.00     0.030 A 
HETATM    9  C   UNL     1      42.942 -17.226   0.823  1.00  0.00     0.019 A 
HETATM   10  C   UNL     1      42.324 -17.736   1.966  1.00  0.00     0.032 A 
HETATM   11  C   UNL     1      41.077 -17.236   2.351  1.00  0.00     0.019 A 
HETATM   12  C   UNL     1      40.481 -16.197   1.623  1.00  0.00     0.030 A 
BRANCH  10  13
HETATM   13  C   UNL     1      42.957 -18.886   2.656  1.00  0.00     0.253 C 
HETATM   14  N   UNL     1      43.504 -18.726   3.935  1.00  0.00    -0.348 N 
HETATM   15  C   UNL     1      44.119 -17.472   4.384  1.00  0.00     0.132 C 
HETATM   16  C   UNL     1      44.050 -19.935   4.556  1.00  0.00     0.126 C 
HETATM   17  C   UNL     1      44.085 -17.324   5.911  1.00  0.00     0.027 C 
HETATM   18  C   UNL     1      44.691 -18.569   6.579  1.00  0.00     0.010 C 
HETATM   19  C   UNL     1      44.040 -19.856   6.078  1.00  0.00     0.020 C 
HETATM   20  O   UNL     1      42.940 -19.964   2.063  1.00  0.00    -0.267 OA
BRANCH  17  21
HETATM   21  C   UNL     1      42.658 -17.025   6.390  1.00  0.00     0.170 C 
BRANCH  21  22
HETATM   22  O   UNL     1      42.458 -17.460   7.728  1.00  0.00    -0.400 OA
HETATM   23  H   UNL     1      42.409 -16.677   8.302  1.00  0.00     0.209 HD
ENDBRANCH  21  22
ENDBRANCH  17  21
ENDBRANCH  10  13
ENDBRANCH   4   7
BRANCH   1  24
HETATM   24  N   UNL     1      38.682 -12.472  -2.456  1.00  0.00    -0.064 N 
HETATM   25  C   UNL     1      39.001 -11.549  -1.257  1.00  0.00     0.255 C 
HETATM   26  C   UNL     1      39.201 -10.095  -1.727  1.00  0.00     0.150 C 
HETATM   27  N   UNL     1      40.249  -9.990  -2.767  1.00  0.00    -0.375 N 
HETATM   28  C   UNL     1      40.106 -10.928  -3.893  1.00  0.00     0.150 C 
HETATM   29  C   UNL     1      39.859 -12.386  -3.443  1.00  0.00     0.255 C 
HETATM   30  H   UNL     1      37.873 -12.065  -2.941  1.00  0.00     0.280 HD
BRANCH  27  31
HETATM   31  C   UNL     1      41.531  -9.680  -2.283  1.00  0.00     0.063 A 
HETATM   32  C   UNL     1      42.431 -10.629  -1.783  1.00  0.00     0.032 A 
HETATM   33  C   UNL     1      43.683 -10.246  -1.280  1.00  0.00     0.002 A 
HETATM   34  C   UNL     1      44.066  -8.907  -1.273  1.00  0.00     0.003 A 
HETATM   35  C   UNL     1      43.209  -7.945  -1.793  1.00  0.00     0.039 A 
HETATM   36  C   UNL     1      41.977  -8.340  -2.302  1.00  0.00     0.092 A 
BRANCH  36  37
HETATM   37  O   UNL     1      41.212  -7.379  -2.912  1.00  0.00    -0.358 OA
HETATM   38  H   UNL     1      41.049  -7.734  -3.806  1.00  0.00     0.218 HD
ENDBRANCH  36  37
ENDBRANCH  27  31
ENDBRANCH   1  24
TORSDOF 7
ENDMDL
MODEL 10
REMARK VINA RESULT:      -8.0      3.563      6.154
REMARK  7 active torsions:
REMARK  status: ('A' for Active; 'I' for Inactive)
REMARK    1  A    between atoms: C_3  and  N_4 
REMARK    2  A    between atoms: N_7  and  C_9 
REMARK    3  A    between atoms: N_12  and  C_13 
REMARK    4  A    between atoms: C_16  and  C_17 
REMARK       I    between atoms: C_17  and  N_18 
REMARK    5  A    between atoms: C_20  and  C_21 
REMARK    6  A    between atoms: C_21  and  O_22 
REMARK    7  A    between atoms: C_33  and  O_34 
ROOT
HETATM    1  C   UNL     1      40.886 -13.885   1.654  1.00  0.00     0.191 C 
HETATM    2  C   UNL     1      41.275 -13.594   0.194  1.00  0.00     0.053 C 
HETATM    3  C   UNL     1      40.401 -14.351  -0.802  1.00  0.00     0.125 C 
HETATM    4  N   UNL     1      38.996 -14.112  -0.496  1.00  0.00    -0.381 N 
HETATM    5  C   UNL     1      38.503 -14.265   0.863  1.00  0.00     0.125 C 
HETATM    6  C   UNL     1      39.405 -13.525   1.840  1.00  0.00     0.053 C 
ENDROOT
BRANCH   4   7
HETATM    7  C   UNL     1      38.224 -13.482  -1.464  1.00  0.00     0.030 A 
HETATM    8  C   UNL     1      38.110 -14.039  -2.748  1.00  0.00     0.030 A 
HETATM    9  C   UNL     1      37.367 -13.412  -3.752  1.00  0.00     0.019 A 
HETATM   10  C   UNL     1      36.720 -12.203  -3.493  1.00  0.00     0.032 A 
HETATM   11  C   UNL     1      36.842 -11.618  -2.231  1.00  0.00     0.019 A 
HETATM   12  C   UNL     1      37.566 -12.268  -1.222  1.00  0.00     0.030 A 
BRANCH  10  13
HETATM   13  C   UNL     1      36.032 -11.517  -4.615  1.00  0.00     0.253 C 
HETATM   14  N   UNL     1      34.636 -11.543  -4.706  1.00  0.00    -0.348 N 
HETATM   15  C   UNL     1      33.831 -12.680  -4.246  1.00  0.00     0.132 C 
HETATM   16  C   UNL     1      34.050 -10.785  -5.814  1.00  0.00     0.126 C 
HETATM   17  C   UNL     1      32.398 -12.267  -3.883  1.00  0.00     0.027 C 
HETATM   18  C   UNL     1      31.754 -11.502  -5.051  1.00  0.00     0.010 C 
HETATM   19  C   UNL     1      32.624 -10.336  -5.516  1.00  0.00     0.020 C 
HETATM   20  O   UNL     1      36.747 -10.914  -5.415  1.00  0.00    -0.267 OA
BRANCH  17  21
HETATM   21  C   UNL     1      32.383 -11.471  -2.570  1.00  0.00     0.170 C 
BRANCH  21  22
HETATM   22  O   UNL     1      31.097 -11.487  -1.968  1.00  0.00    -0.400 OA
HETATM   23  H   UNL     1      30.625 -12.280  -2.274  1.00  0.00     0.209 HD
ENDBRANCH  21  22
ENDBRANCH  17  21
ENDBRANCH  10  13
ENDBRANCH   4   7
BRANCH   1  24
HETATM   24  N   UNL     1      41.206 -15.345   2.035  1.00  0.00    -0.064 N 
HETATM   25  C   UNL     1      42.719 -15.651   1.951  1.00  0.00     0.255 C 
HETATM   26  C   UNL     1      42.985 -17.151   2.175  1.00  0.00     0.150 C 
HETATM   27  N   UNL     1      42.422 -17.626   3.459  1.00  0.00    -0.375 N 
HETATM   28  C   UNL     1      41.014 -17.266   3.693  1.00  0.00     0.150 C 
HETATM   29  C   UNL     1      40.716 -15.772   3.429  1.00  0.00     0.255 C 
HETATM   30  H   UNL     1      40.736 -15.967   1.365  1.00  0.00     0.280 HD
BRANCH  27  31
HETATM   31  C   UNL     1      43.326 -17.625   4.534  1.00  0.00     0.063 A 
HETATM   32  C   UNL     1      43.424 -16.592   5.475  1.00  0.00     0.032 A 
HETATM   33  C   UNL     1      44.375 -16.637   6.505  1.00  0.00     0.002 A 
HETATM   34  C   UNL     1      45.243 -17.721   6.623  1.00  0.00     0.003 A 
HETATM   35  C   UNL     1      45.148 -18.777   5.725  1.00  0.00     0.039 A 
HETATM   36  C   UNL     1      44.191 -18.726   4.719  1.00  0.00     0.092 A 
BRANCH  36  37
HETATM   37  O   UNL     1      44.051 -19.839   3.928  1.00  0.00    -0.358 OA
HETATM   38  H   UNL     1      44.804 -20.407   4.179  1.00  0.00     0.218 HD
ENDBRANCH  36  37
ENDBRANCH  27  31
ENDBRANCH   1  24
TORSDOF 7
ENDMDL
