MODEL 1
REMARK VINA RESULT:      -9.9      0.000      0.000
REMARK  7 active torsions:
REMARK  status: ('A' for Active; 'I' for Inactive)
REMARK    1  A    between atoms: C_5  and  N_6 
REMARK    2  A    between atoms: C_7  and  S_8 
REMARK    3  A    between atoms: S_8  and  C_9 
REMARK    4  A    between atoms: C_9  and  C_10 
REMARK       I    between atoms: C_10  and  N_11 
REMARK    5  A    between atoms: C_13  and  C_14 
REMARK    6  A    between atoms: C_14  and  N_15 
REMARK       I    between atoms: N_15  and  C_16 
REMARK       I    between atoms: C_16  and  N_17 
REMARK    7  A    between atoms: N_17  and  C_18 
ROOT
HETATM    1  C   UNL     1      40.853 -15.728   4.183  1.00  0.00     0.229 C 
HETATM    2  N   UNL     1      40.214 -14.492   4.295  1.00  0.00    -0.351 N 
HETATM    3  C   UNL     1      39.642 -13.963   5.533  1.00  0.00     0.132 C 
HETATM    4  C   UNL     1      39.849 -12.446   5.645  1.00  0.00     0.021 C 
HETATM    5  C   UNL     1      39.285 -11.754   4.393  1.00  0.00     0.009 C 
HETATM    6  C   UNL     1      39.859 -12.342   3.103  1.00  0.00     0.020 C 
HETATM    7  C   UNL     1      39.735 -13.862   3.065  1.00  0.00     0.126 C 
HETATM    8  O   UNL     1      41.381 -16.081   3.122  1.00  0.00    -0.273 OA
ENDROOT
BRANCH   1   9
HETATM    9  C   UNL     1      40.976 -16.623   5.410  1.00  0.00     0.185 C 
BRANCH   9  10
HETATM   10  S   UNL     1      41.770 -18.216   5.041  1.00  0.00    -0.082 SA
BRANCH  10  11
HETATM   11  C   UNL     1      43.392 -17.884   5.567  1.00  0.00     0.173 A 
HETATM   12  N   UNL     1      44.428 -18.804   5.545  1.00  0.00    -0.299 N 
HETATM   13  C   UNL     1      45.457 -18.208   6.250  1.00  0.00     0.118 A 
HETATM   14  C   UNL     1      45.005 -16.960   6.604  1.00  0.00     0.137 A 
HETATM   15  N   UNL     1      43.726 -16.762   6.164  1.00  0.00    -0.235 NA
BRANCH  12  16
HETATM   16  C   UNL     1      44.519 -20.051   4.863  1.00  0.00     0.047 A 
HETATM   17  C   UNL     1      44.387 -20.148   3.456  1.00  0.00    -0.029 A 
HETATM   18  C   UNL     1      44.330 -21.438   2.870  1.00  0.00    -0.054 A 
HETATM   19  C   UNL     1      44.349 -18.930   2.564  1.00  0.00     0.051 C 
HETATM   20  C   UNL     1      44.164 -21.636   1.385  1.00  0.00     0.049 C 
HETATM   21  C   UNL     1      44.481 -22.579   3.675  1.00  0.00     0.007 A 
HETATM   22  C   UNL     1      44.655 -22.465   5.050  1.00  0.00     0.003 A 
HETATM   23  C   UNL     1      44.665 -21.208   5.646  1.00  0.00     0.030 A 
ENDBRANCH  12  16
ENDBRANCH  10  11
ENDBRANCH   9  10
ENDBRANCH   1   9
BRANCH   4  24
HETATM   24  C   UNL     1      41.329 -12.071   5.861  1.00  0.00     0.130 C 
BRANCH  24  25
HETATM   25  N   UNL     1      41.490 -10.703   6.327  1.00  0.00    -0.342 N 
HETATM   26  C   UNL     1      41.824 -10.191   7.546  1.00  0.00     0.320 C 
HETATM   27  N   UNL     1      42.151 -11.093   8.518  1.00  0.00    -0.309 N 
HETATM   28  O   UNL     1      41.793  -8.972   7.667  1.00  0.00    -0.247 OA
HETATM   29  H   UNL     1      42.260 -12.051   8.231  1.00  0.00     0.170 HD
HETATM   30  H   UNL     1      41.303  -9.961   5.662  1.00  0.00     0.164 HD
BRANCH  27  31
HETATM   31  C   UNL     1      42.499 -10.827   9.861  1.00  0.00     0.039 A 
HETATM   32  C   UNL     1      41.573 -10.627  10.884  1.00  0.00     0.071 A 
HETATM   33  C   UNL     1      42.016 -10.364  12.179  1.00  0.00     0.118 A 
HETATM   34  F   UNL     1      41.119 -10.175  13.156  1.00  0.00    -0.206 F 
HETATM   35  C   UNL     1      43.371 -10.292  12.478  1.00  0.00     0.042 A 
HETATM   36  C   UNL     1      44.304 -10.496  11.467  1.00  0.00     0.005 A 
HETATM   37  C   UNL     1      43.868 -10.768  10.165  1.00  0.00     0.030 A 
ENDBRANCH  27  31
ENDBRANCH  24  25
ENDBRANCH   4  24
TORSDOF 7
ENDMDL
MODEL 2
REMARK VINA RESULT:      -9.8      4.436      9.213
REMARK  7 active torsions:
REMARK  status: ('A' for Active; 'I' for Inactive)
REMARK    1  A    between atoms: C_5  and  N_6 
REMARK    2  A    between atoms: C_7  and  S_8 
REMARK    3  A    between atoms: S_8  and  C_9 
REMARK    4  A    between atoms: C_9  and  C_10 
REMARK       I    between atoms: C_10  and  N_11 
REMARK    5  A    between atoms: C_13  and  C_14 
REMARK    6  A    between atoms: C_14  and  N_15 
REMARK       I    between atoms: N_15  and  C_16 
REMARK       I    between atoms: C_16  and  N_17 
REMARK    7  A    between atoms: N_17  and  C_18 
ROOT
HETATM    1  C   UNL     1      42.793 -15.768   3.667  1.00  0.00     0.229 C 
HETATM    2  N   UNL     1      43.177 -15.263   4.911  1.00  0.00    -0.351 N 
HETATM    3  C   UNL     1      42.656 -15.733   6.194  1.00  0.00     0.132 C 
HETATM    4  C   UNL     1      43.747 -15.745   7.274  1.00  0.00     0.021 C 
HETATM    5  C   UNL     1      44.390 -14.353   7.375  1.00  0.00     0.009 C 
HETATM    6  C   UNL     1      44.895 -13.853   6.020  1.00  0.00     0.020 C 
HETATM    7  C   UNL     1      43.822 -13.950   4.940  1.00  0.00     0.126 C 
HETATM    8  O   UNL     1      43.330 -15.376   2.625  1.00  0.00    -0.273 OA
ENDROOT
BRANCH   1   9
HETATM    9  C   UNL     1      41.754 -16.880   3.598  1.00  0.00     0.185 C 
BRANCH   9  10
HETATM   10  S   UNL     1      40.369 -16.480   2.490  1.00  0.00    -0.082 SA
BRANCH  10  11
HETATM   11  C   UNL     1      40.032 -14.851   2.990  1.00  0.00     0.173 A 
HETATM   12  N   UNL     1      40.108 -13.744   2.159  1.00  0.00    -0.299 N 
HETATM   13  C   UNL     1      39.991 -12.652   3.000  1.00  0.00     0.118 A 
HETATM   14  C   UNL     1      39.801 -13.160   4.262  1.00  0.00     0.137 A 
HETATM   15  N   UNL     1      39.814 -14.527   4.245  1.00  0.00    -0.235 NA
BRANCH  12  16
HETATM   16  C   UNL     1      40.171 -13.679   0.739  1.00  0.00     0.047 A 
HETATM   17  C   UNL     1      39.027 -13.883  -0.073  1.00  0.00    -0.029 A 
HETATM   18  C   UNL     1      39.201 -13.960  -1.478  1.00  0.00    -0.054 A 
HETATM   19  C   UNL     1      37.635 -13.977   0.505  1.00  0.00     0.051 C 
HETATM   20  C   UNL     1      38.046 -14.202  -2.415  1.00  0.00     0.049 C 
HETATM   21  C   UNL     1      40.474 -13.758  -2.037  1.00  0.00     0.007 A 
HETATM   22  C   UNL     1      41.579 -13.514  -1.229  1.00  0.00     0.003 A 
HETATM   23  C   UNL     1      41.433 -13.483   0.153  1.00  0.00     0.030 A 
ENDBRANCH  12  16
ENDBRANCH  10  11
ENDBRANCH   9  10
ENDBRANCH   1   9
BRANCH   4  24
HETATM   24  C   UNL     1      44.815 -16.827   7.015  1.00  0.00     0.130 C 
BRANCH  24  25
HETATM   25  N   UNL     1      44.316 -18.168   7.274  1.00  0.00    -0.342 N 
HETATM   26  C   UNL     1      44.106 -19.235   6.451  1.00  0.00     0.320 C 
HETATM   27  N   UNL     1      44.493 -19.088   5.150  1.00  0.00    -0.309 N 
HETATM   28  O   UNL     1      43.582 -20.227   6.946  1.00  0.00    -0.247 OA
HETATM   29  H   UNL     1      45.028 -18.266   4.925  1.00  0.00     0.170 HD
HETATM   30  H   UNL     1      44.037 -18.384   8.224  1.00  0.00     0.164 HD
BRANCH  27  31
HETATM   31  C   UNL     1      44.357 -20.021   4.098  1.00  0.00     0.039 A 
HETATM   32  C   UNL     1      44.756 -21.355   4.180  1.00  0.00     0.071 A 
HETATM   33  C   UNL     1      44.586 -22.197   3.083  1.00  0.00     0.118 A 
HETATM   34  F   UNL     1      44.971 -23.478   3.171  1.00  0.00    -0.206 F 
HETATM   35  C   UNL     1      44.025 -21.737   1.898  1.00  0.00     0.042 A 
HETATM   36  C   UNL     1      43.618 -20.410   1.807  1.00  0.00     0.005 A 
HETATM   37  C   UNL     1      43.778 -19.558   2.906  1.00  0.00     0.030 A 
ENDBRANCH  27  31
ENDBRANCH  24  25
ENDBRANCH   4  24
TORSDOF 7
ENDMDL
MODEL 3
REMARK VINA RESULT:      -9.8      4.612      9.478
REMARK  7 active torsions:
REMARK  status: ('A' for Active; 'I' for Inactive)
REMARK    1  A    between atoms: C_5  and  N_6 
REMARK    2  A    between atoms: C_7  and  S_8 
REMARK    3  A    between atoms: S_8  and  C_9 
REMARK    4  A    between atoms: C_9  and  C_10 
REMARK       I    between atoms: C_10  and  N_11 
REMARK    5  A    between atoms: C_13  and  C_14 
REMARK    6  A    between atoms: C_14  and  N_15 
REMARK       I    between atoms: N_15  and  C_16 
REMARK       I    between atoms: C_16  and  N_17 
REMARK    7  A    between atoms: N_17  and  C_18 
ROOT
HETATM    1  C   UNL     1      43.259 -15.122   3.656  1.00  0.00     0.229 C 
HETATM    2  N   UNL     1      43.424 -14.900   5.024  1.00  0.00    -0.351 N 
HETATM    3  C   UNL     1      42.728 -15.643   6.075  1.00  0.00     0.132 C 
HETATM    4  C   UNL     1      43.637 -15.885   7.288  1.00  0.00     0.021 C 
HETATM    5  C   UNL     1      44.199 -14.545   7.789  1.00  0.00     0.009 C 
HETATM    6  C   UNL     1      44.888 -13.758   6.673  1.00  0.00     0.020 C 
HETATM    7  C   UNL     1      44.002 -13.622   5.438  1.00  0.00     0.126 C 
HETATM    8  O   UNL     1      43.936 -14.508   2.822  1.00  0.00    -0.273 OA
ENDROOT
BRANCH   1   9
HETATM    9  C   UNL     1      42.290 -16.198   3.182  1.00  0.00     0.185 C 
BRANCH   9  10
HETATM   10  S   UNL     1      42.127 -16.249   1.372  1.00  0.00    -0.082 SA
BRANCH  10  11
HETATM   11  C   UNL     1      40.574 -15.495   1.179  1.00  0.00     0.173 A 
HETATM   12  N   UNL     1      40.329 -14.402   0.363  1.00  0.00    -0.299 N 
HETATM   13  C   UNL     1      39.046 -13.994   0.680  1.00  0.00     0.118 A 
HETATM   14  C   UNL     1      38.582 -14.885   1.616  1.00  0.00     0.137 A 
HETATM   15  N   UNL     1      39.533 -15.822   1.911  1.00  0.00    -0.235 NA
BRANCH  12  16
HETATM   16  C   UNL     1      41.130 -13.848  -0.676  1.00  0.00     0.047 A 
HETATM   17  C   UNL     1      41.901 -12.675  -0.485  1.00  0.00    -0.029 A 
HETATM   18  C   UNL     1      42.543 -12.098  -1.609  1.00  0.00    -0.054 A 
HETATM   19  C   UNL     1      42.093 -12.049   0.876  1.00  0.00     0.051 C 
HETATM   20  C   UNL     1      43.361 -10.836  -1.504  1.00  0.00     0.049 C 
HETATM   21  C   UNL     1      42.469 -12.734  -2.860  1.00  0.00     0.007 A 
HETATM   22  C   UNL     1      41.745 -13.910  -3.021  1.00  0.00     0.003 A 
HETATM   23  C   UNL     1      41.070 -14.462  -1.938  1.00  0.00     0.030 A 
ENDBRANCH  12  16
ENDBRANCH  10  11
ENDBRANCH   9  10
ENDBRANCH   1   9
BRANCH   4  24
HETATM   24  C   UNL     1      44.776 -16.877   6.977  1.00  0.00     0.130 C 
BRANCH  24  25
HETATM   25  N   UNL     1      44.392 -18.256   7.235  1.00  0.00    -0.342 N 
HETATM   26  C   UNL     1      44.187 -19.314   6.399  1.00  0.00     0.320 C 
HETATM   27  N   UNL     1      44.453 -19.107   5.075  1.00  0.00    -0.309 N 
HETATM   28  O   UNL     1      43.774 -20.352   6.904  1.00  0.00    -0.247 OA
HETATM   29  H   UNL     1      44.912 -18.245   4.834  1.00  0.00     0.170 HD
HETATM   30  H   UNL     1      44.207 -18.515   8.197  1.00  0.00     0.164 HD
BRANCH  27  31
HETATM   31  C   UNL     1      44.295 -20.021   4.010  1.00  0.00     0.039 A 
HETATM   32  C   UNL     1      44.746 -21.340   4.037  1.00  0.00     0.071 A 
HETATM   33  C   UNL     1      44.546 -22.163   2.930  1.00  0.00     0.118 A 
HETATM   34  F   UNL     1      44.983 -23.430   2.965  1.00  0.00    -0.206 F 
HETATM   35  C   UNL     1      43.905 -21.698   1.789  1.00  0.00     0.042 A 
HETATM   36  C   UNL     1      43.444 -20.386   1.754  1.00  0.00     0.005 A 
HETATM   37  C   UNL     1      43.634 -19.554   2.863  1.00  0.00     0.030 A 
ENDBRANCH  27  31
ENDBRANCH  24  25
ENDBRANCH   4  24
TORSDOF 7
ENDMDL
MODEL 4
REMARK VINA RESULT:      -9.5      4.366      6.694
REMARK  7 active torsions:
REMARK  status: ('A' for Active; 'I' for Inactive)
REMARK    1  A    between atoms: C_5  and  N_6 
REMARK    2  A    between atoms: C_7  and  S_8 
REMARK    3  A    between atoms: S_8  and  C_9 
REMARK    4  A    between atoms: C_9  and  C_10 
REMARK       I    between atoms: C_10  and  N_11 
REMARK    5  A    between atoms: C_13  and  C_14 
REMARK    6  A    between atoms: C_14  and  N_15 
REMARK       I    between atoms: N_15  and  C_16 
REMARK       I    between atoms: C_16  and  N_17 
REMARK    7  A    between atoms: N_17  and  C_18 
ROOT
HETATM    1  C   UNL     1      42.046 -13.260   0.536  1.00  0.00     0.229 C 
HETATM    2  N   UNL     1      41.804 -13.575  -0.802  1.00  0.00    -0.351 N 
HETATM    3  C   UNL     1      41.159 -14.805  -1.262  1.00  0.00     0.132 C 
HETATM    4  C   UNL     1      40.249 -14.545  -2.471  1.00  0.00     0.021 C 
HETATM    5  C   UNL     1      41.052 -13.851  -3.582  1.00  0.00     0.009 C 
HETATM    6  C   UNL     1      41.757 -12.589  -3.081  1.00  0.00     0.020 C 
HETATM    7  C   UNL     1      42.570 -12.853  -1.818  1.00  0.00     0.126 C 
HETATM    8  O   UNL     1      42.529 -12.168   0.859  1.00  0.00    -0.273 OA
ENDROOT
BRANCH   1   9
HETATM    9  C   UNL     1      41.632 -14.243   1.624  1.00  0.00     0.185 C 
BRANCH   9  10
HETATM   10  S   UNL     1      42.960 -14.562   2.825  1.00  0.00    -0.082 SA
BRANCH  10  11
HETATM   11  C   UNL     1      42.025 -15.097   4.187  1.00  0.00     0.173 A 
HETATM   12  N   UNL     1      42.010 -16.398   4.666  1.00  0.00    -0.299 N 
HETATM   13  C   UNL     1      40.981 -16.432   5.589  1.00  0.00     0.118 A 
HETATM   14  C   UNL     1      40.479 -15.155   5.650  1.00  0.00     0.137 A 
HETATM   15  N   UNL     1      41.142 -14.329   4.785  1.00  0.00    -0.235 NA
BRANCH  12  16
HETATM   16  C   UNL     1      42.904 -17.473   4.398  1.00  0.00     0.047 A 
HETATM   17  C   UNL     1      42.774 -18.288   3.245  1.00  0.00    -0.029 A 
HETATM   18  C   UNL     1      43.602 -19.433   3.131  1.00  0.00    -0.054 A 
HETATM   19  C   UNL     1      41.819 -17.952   2.124  1.00  0.00     0.051 C 
HETATM   20  C   UNL     1      43.513 -20.370   1.954  1.00  0.00     0.049 C 
HETATM   21  C   UNL     1      44.575 -19.692   4.109  1.00  0.00     0.007 A 
HETATM   22  C   UNL     1      44.720 -18.858   5.212  1.00  0.00     0.003 A 
HETATM   23  C   UNL     1      43.883 -17.757   5.363  1.00  0.00     0.030 A 
ENDBRANCH  12  16
ENDBRANCH  10  11
ENDBRANCH   9  10
ENDBRANCH   1   9
BRANCH   4  24
HETATM   24  C   UNL     1      39.001 -13.719  -2.097  1.00  0.00     0.130 C 
BRANCH  24  25
HETATM   25  N   UNL     1      38.296 -14.272  -0.952  1.00  0.00    -0.342 N 
HETATM   26  C   UNL     1      38.042 -13.767   0.289  1.00  0.00     0.320 C 
HETATM   27  N   UNL     1      38.436 -12.480   0.518  1.00  0.00    -0.309 N 
HETATM   28  O   UNL     1      37.492 -14.512   1.093  1.00  0.00    -0.247 OA
HETATM   29  H   UNL     1      38.753 -11.954  -0.279  1.00  0.00     0.170 HD
HETATM   30  H   UNL     1      37.934 -15.214  -1.040  1.00  0.00     0.164 HD
BRANCH  27  31
HETATM   31  C   UNL     1      38.319 -11.741   1.716  1.00  0.00     0.039 A 
HETATM   32  C   UNL     1      38.941 -12.091   2.914  1.00  0.00     0.071 A 
HETATM   33  C   UNL     1      38.760 -11.299   4.046  1.00  0.00     0.118 A 
HETATM   34  F   UNL     1      39.362 -11.642   5.193  1.00  0.00    -0.206 F 
HETATM   35  C   UNL     1      37.966 -10.159   4.012  1.00  0.00     0.042 A 
HETATM   36  C   UNL     1      37.346  -9.797   2.820  1.00  0.00     0.005 A 
HETATM   37  C   UNL     1      37.528 -10.582   1.676  1.00  0.00     0.030 A 
ENDBRANCH  27  31
ENDBRANCH  24  25
ENDBRANCH   4  24
TORSDOF 7
ENDMDL
MODEL 5
REMARK VINA RESULT:      -9.4      5.145      9.808
REMARK  7 active torsions:
REMARK  status: ('A' for Active; 'I' for Inactive)
REMARK    1  A    between atoms: C_5  and  N_6 
REMARK    2  A    between atoms: C_7  and  S_8 
REMARK    3  A    between atoms: S_8  and  C_9 
REMARK    4  A    between atoms: C_9  and  C_10 
REMARK       I    between atoms: C_10  and  N_11 
REMARK    5  A    between atoms: C_13  and  C_14 
REMARK    6  A    between atoms: C_14  and  N_15 
REMARK       I    between atoms: N_15  and  C_16 
REMARK       I    between atoms: C_16  and  N_17 
REMARK    7  A    between atoms: N_17  and  C_18 
ROOT
HETATM    1  C   UNL     1      40.015 -12.718   2.654  1.00  0.00     0.229 C 
HETATM    2  N   UNL     1      40.166 -13.743   3.589  1.00  0.00    -0.351 N 
HETATM    3  C   UNL     1      40.317 -15.158   3.252  1.00  0.00     0.132 C 
HETATM    4  C   UNL     1      41.299 -15.861   4.200  1.00  0.00     0.021 C 
HETATM    5  C   UNL     1      40.855 -15.646   5.656  1.00  0.00     0.009 C 
HETATM    6  C   UNL     1      40.661 -14.166   5.986  1.00  0.00     0.020 C 
HETATM    7  C   UNL     1      39.765 -13.466   4.968  1.00  0.00     0.126 C 
HETATM    8  O   UNL     1      39.968 -11.533   3.005  1.00  0.00    -0.273 OA
ENDROOT
BRANCH   1   9
HETATM    9  C   UNL     1      39.989 -13.056   1.168  1.00  0.00     0.185 C 
BRANCH   9  10
HETATM   10  S   UNL     1      41.605 -13.613   0.547  1.00  0.00    -0.082 SA
BRANCH  10  11
HETATM   11  C   UNL     1      41.900 -12.412  -0.671  1.00  0.00     0.173 A 
HETATM   12  N   UNL     1      41.269 -12.374  -1.905  1.00  0.00    -0.299 N 
HETATM   13  C   UNL     1      41.953 -11.417  -2.633  1.00  0.00     0.118 A 
HETATM   14  C   UNL     1      42.908 -10.906  -1.789  1.00  0.00     0.137 A 
HETATM   15  N   UNL     1      42.860 -11.520  -0.568  1.00  0.00    -0.235 NA
BRANCH  12  16
HETATM   16  C   UNL     1      40.098 -13.053  -2.345  1.00  0.00     0.047 A 
HETATM   17  C   UNL     1      40.160 -14.306  -3.004  1.00  0.00    -0.029 A 
HETATM   18  C   UNL     1      38.967 -14.841  -3.552  1.00  0.00    -0.054 A 
HETATM   19  C   UNL     1      41.439 -15.103  -3.103  1.00  0.00     0.051 C 
HETATM   20  C   UNL     1      38.944 -16.154  -4.293  1.00  0.00     0.049 C 
HETATM   21  C   UNL     1      37.749 -14.168  -3.367  1.00  0.00     0.007 A 
HETATM   22  C   UNL     1      37.697 -12.960  -2.678  1.00  0.00     0.003 A 
HETATM   23  C   UNL     1      38.867 -12.399  -2.176  1.00  0.00     0.030 A 
ENDBRANCH  12  16
ENDBRANCH  10  11
ENDBRANCH   9  10
ENDBRANCH   1   9
BRANCH   4  24
HETATM   24  C   UNL     1      42.752 -15.388   3.993  1.00  0.00     0.130 C 
BRANCH  24  25
HETATM   25  N   UNL     1      43.332 -15.908   2.765  1.00  0.00    -0.342 N 
HETATM   26  C   UNL     1      43.745 -17.159   2.414  1.00  0.00     0.320 C 
HETATM   27  N   UNL     1      43.521 -18.154   3.323  1.00  0.00    -0.309 N 
HETATM   28  O   UNL     1      44.288 -17.283   1.322  1.00  0.00    -0.247 OA
HETATM   29  H   UNL     1      42.947 -17.924   4.117  1.00  0.00     0.170 HD
HETATM   30  H   UNL     1      43.502 -15.248   2.015  1.00  0.00     0.164 HD
BRANCH  27  31
HETATM   31  C   UNL     1      43.879 -19.517   3.218  1.00  0.00     0.039 A 
HETATM   32  C   UNL     1      43.672 -20.293   2.078  1.00  0.00     0.071 A 
HETATM   33  C   UNL     1      44.055 -21.634   2.074  1.00  0.00     0.118 A 
HETATM   34  F   UNL     1      43.853 -22.372   0.975  1.00  0.00    -0.206 F 
HETATM   35  C   UNL     1      44.640 -22.221   3.189  1.00  0.00     0.042 A 
HETATM   36  C   UNL     1      44.858 -21.454   4.328  1.00  0.00     0.005 A 
HETATM   37  C   UNL     1      44.483 -20.106   4.339  1.00  0.00     0.030 A 
ENDBRANCH  27  31
ENDBRANCH  24  25
ENDBRANCH   4  24
TORSDOF 7
ENDMDL
MODEL 6
REMARK VINA RESULT:      -9.4      5.200     10.330
REMARK  7 active torsions:
REMARK  status: ('A' for Active; 'I' for Inactive)
REMARK    1  A    between atoms: C_5  and  N_6 
REMARK    2  A    between atoms: C_7  and  S_8 
REMARK    3  A    between atoms: S_8  and  C_9 
REMARK    4  A    between atoms: C_9  and  C_10 
REMARK       I    between atoms: C_10  and  N_11 
REMARK    5  A    between atoms: C_13  and  C_14 
REMARK    6  A    between atoms: C_14  and  N_15 
REMARK       I    between atoms: N_15  and  C_16 
REMARK       I    between atoms: C_16  and  N_17 
REMARK    7  A    between atoms: N_17  and  C_18 
ROOT
HETATM    1  C   UNL     1      41.003 -13.467   0.661  1.00  0.00     0.229 C 
HETATM    2  N   UNL     1      40.678 -13.945   1.932  1.00  0.00    -0.351 N 
HETATM    3  C   UNL     1      40.587 -15.361   2.288  1.00  0.00     0.132 C 
HETATM    4  C   UNL     1      41.112 -15.619   3.707  1.00  0.00     0.021 C 
HETATM    5  C   UNL     1      40.374 -14.712   4.705  1.00  0.00     0.009 C 
HETATM    6  C   UNL     1      40.441 -13.239   4.301  1.00  0.00     0.020 C 
HETATM    7  C   UNL     1      40.013 -13.023   2.853  1.00  0.00     0.126 C 
HETATM    8  O   UNL     1      41.137 -12.256   0.448  1.00  0.00    -0.273 OA
ENDROOT
BRANCH   1   9
HETATM    9  C   UNL     1      41.280 -14.457  -0.464  1.00  0.00     0.185 C 
BRANCH   9  10
HETATM   10  S   UNL     1      41.383 -13.657  -2.093  1.00  0.00    -0.082 SA
BRANCH  10  11
HETATM   11  C   UNL     1      40.084 -14.463  -2.918  1.00  0.00     0.173 A 
HETATM   12  N   UNL     1      38.749 -14.371  -2.557  1.00  0.00    -0.299 N 
HETATM   13  C   UNL     1      38.102 -15.330  -3.315  1.00  0.00     0.118 A 
HETATM   14  C   UNL     1      39.064 -15.898  -4.114  1.00  0.00     0.137 A 
HETATM   15  N   UNL     1      40.290 -15.345  -3.871  1.00  0.00    -0.235 NA
BRANCH  12  16
HETATM   16  C   UNL     1      38.105 -13.438  -1.696  1.00  0.00     0.047 A 
HETATM   17  C   UNL     1      37.886 -12.091  -2.078  1.00  0.00    -0.029 A 
HETATM   18  C   UNL     1      37.384 -11.187  -1.108  1.00  0.00    -0.054 A 
HETATM   19  C   UNL     1      38.127 -11.604  -3.487  1.00  0.00     0.051 C 
HETATM   20  C   UNL     1      37.146  -9.732  -1.418  1.00  0.00     0.049 C 
HETATM   21  C   UNL     1      37.045 -11.653   0.173  1.00  0.00     0.007 A 
HETATM   22  C   UNL     1      37.225 -12.988   0.518  1.00  0.00     0.003 A 
HETATM   23  C   UNL     1      37.760 -13.877  -0.407  1.00  0.00     0.030 A 
ENDBRANCH  12  16
ENDBRANCH  10  11
ENDBRANCH   9  10
ENDBRANCH   1   9
BRANCH   4  24
HETATM   24  C   UNL     1      42.638 -15.422   3.810  1.00  0.00     0.130 C 
BRANCH  24  25
HETATM   25  N   UNL     1      43.342 -15.939   2.647  1.00  0.00    -0.342 N 
HETATM   26  C   UNL     1      43.789 -17.189   2.337  1.00  0.00     0.320 C 
HETATM   27  N   UNL     1      43.474 -18.187   3.215  1.00  0.00    -0.309 N 
HETATM   28  O   UNL     1      44.441 -17.308   1.305  1.00  0.00    -0.247 OA
HETATM   29  H   UNL     1      42.821 -17.958   3.946  1.00  0.00     0.170 HD
HETATM   30  H   UNL     1      43.588 -15.276   1.921  1.00  0.00     0.164 HD
BRANCH  27  31
HETATM   31  C   UNL     1      43.841 -19.548   3.143  1.00  0.00     0.039 A 
HETATM   32  C   UNL     1      44.514 -20.232   4.155  1.00  0.00     0.071 A 
HETATM   33  C   UNL     1      44.837 -21.577   3.987  1.00  0.00     0.118 A 
HETATM   34  F   UNL     1      45.483 -22.226   4.965  1.00  0.00    -0.206 F 
HETATM   35  C   UNL     1      44.506 -22.260   2.824  1.00  0.00     0.042 A 
HETATM   36  C   UNL     1      43.829 -21.590   1.810  1.00  0.00     0.005 A 
HETATM   37  C   UNL     1      43.493 -20.242   1.973  1.00  0.00     0.030 A 
ENDBRANCH  27  31
ENDBRANCH  24  25
ENDBRANCH   4  24
TORSDOF 7
ENDMDL
MODEL 7
REMARK VINA RESULT:      -9.4      3.614     10.514
REMARK  7 active torsions:
REMARK  status: ('A' for Active; 'I' for Inactive)
REMARK    1  A    between atoms: C_5  and  N_6 
REMARK    2  A    between atoms: C_7  and  S_8 
REMARK    3  A    between atoms: S_8  and  C_9 
REMARK    4  A    between atoms: C_9  and  C_10 
REMARK       I    between atoms: C_10  and  N_11 
REMARK    5  A    between atoms: C_13  and  C_14 
REMARK    6  A    between atoms: C_14  and  N_15 
REMARK       I    between atoms: N_15  and  C_16 
REMARK       I    between atoms: C_16  and  N_17 
REMARK    7  A    between atoms: N_17  and  C_18 
ROOT
HETATM    1  C   UNL     1      39.938 -12.540   6.222  1.00  0.00     0.229 C 
HETATM    2  N   UNL     1      40.740 -13.266   5.340  1.00  0.00    -0.351 N 
HETATM    3  C   UNL     1      42.201 -13.196   5.299  1.00  0.00     0.132 C 
HETATM    4  C   UNL     1      42.821 -14.570   5.002  1.00  0.00     0.021 C 
HETATM    5  C   UNL     1      42.221 -15.138   3.706  1.00  0.00     0.009 C 
HETATM    6  C   UNL     1      40.692 -15.168   3.744  1.00  0.00     0.020 C 
HETATM    7  C   UNL     1      40.105 -13.818   4.144  1.00  0.00     0.126 C 
HETATM    8  O   UNL     1      38.712 -12.703   6.254  1.00  0.00    -0.273 OA
ENDROOT
BRANCH   1   9
HETATM    9  C   UNL     1      40.589 -11.591   7.220  1.00  0.00     0.185 C 
BRANCH   9  10
HETATM   10  S   UNL     1      39.502 -11.190   8.621  1.00  0.00    -0.082 SA
BRANCH  10  11
HETATM   11  C   UNL     1      39.803  -9.486   8.771  1.00  0.00     0.173 A 
HETATM   12  N   UNL     1      40.631  -8.916   9.725  1.00  0.00    -0.299 N 
HETATM   13  C   UNL     1      40.405  -7.555   9.634  1.00  0.00     0.118 A 
HETATM   14  C   UNL     1      39.506  -7.385   8.610  1.00  0.00     0.137 A 
HETATM   15  N   UNL     1      39.148  -8.588   8.070  1.00  0.00    -0.235 NA
BRANCH  12  16
HETATM   16  C   UNL     1      41.608  -9.529  10.559  1.00  0.00     0.047 A 
HETATM   17  C   UNL     1      41.419  -9.674  11.956  1.00  0.00    -0.029 A 
HETATM   18  C   UNL     1      42.501 -10.148  12.739  1.00  0.00    -0.054 A 
HETATM   19  C   UNL     1      40.097  -9.382  12.625  1.00  0.00     0.051 C 
HETATM   20  C   UNL     1      42.398 -10.307  14.234  1.00  0.00     0.049 C 
HETATM   21  C   UNL     1      43.699 -10.534  12.116  1.00  0.00     0.007 A 
HETATM   22  C   UNL     1      43.854 -10.427  10.738  1.00  0.00     0.003 A 
HETATM   23  C   UNL     1      42.818  -9.920   9.961  1.00  0.00     0.030 A 
ENDBRANCH  12  16
ENDBRANCH  10  11
ENDBRANCH   9  10
ENDBRANCH   1   9
BRANCH   4  24
HETATM   24  C   UNL     1      42.640 -15.558   6.171  1.00  0.00     0.130 C 
BRANCH  24  25
HETATM   25  N   UNL     1      43.878 -16.240   6.514  1.00  0.00    -0.342 N 
HETATM   26  C   UNL     1      44.411 -17.422   6.094  1.00  0.00     0.320 C 
HETATM   27  N   UNL     1      43.730 -18.085   5.112  1.00  0.00    -0.309 N 
HETATM   28  O   UNL     1      45.447 -17.791   6.635  1.00  0.00    -0.247 OA
HETATM   29  H   UNL     1      42.970 -17.592   4.675  1.00  0.00     0.170 HD
HETATM   30  H   UNL     1      44.471 -15.803   7.211  1.00  0.00     0.164 HD
BRANCH  27  31
HETATM   31  C   UNL     1      44.050 -19.331   4.531  1.00  0.00     0.039 A 
HETATM   32  C   UNL     1      44.540 -20.425   5.244  1.00  0.00     0.071 A 
HETATM   33  C   UNL     1      44.832 -21.613   4.577  1.00  0.00     0.118 A 
HETATM   34  F   UNL     1      45.301 -22.659   5.271  1.00  0.00    -0.206 F 
HETATM   35  C   UNL     1      44.648 -21.736   3.206  1.00  0.00     0.042 A 
HETATM   36  C   UNL     1      44.153 -20.655   2.485  1.00  0.00     0.005 A 
HETATM   37  C   UNL     1      43.850 -19.460   3.147  1.00  0.00     0.030 A 
ENDBRANCH  27  31
ENDBRANCH  24  25
ENDBRANCH   4  24
TORSDOF 7
ENDMDL
MODEL 8
REMARK VINA RESULT:      -9.3      4.529      7.673
REMARK  7 active torsions:
REMARK  status: ('A' for Active; 'I' for Inactive)
REMARK    1  A    between atoms: C_5  and  N_6 
REMARK    2  A    between atoms: C_7  and  S_8 
REMARK    3  A    between atoms: S_8  and  C_9 
REMARK    4  A    between atoms: C_9  and  C_10 
REMARK       I    between atoms: C_10  and  N_11 
REMARK    5  A    between atoms: C_13  and  C_14 
REMARK    6  A    between atoms: C_14  and  N_15 
REMARK       I    between atoms: N_15  and  C_16 
REMARK       I    between atoms: C_16  and  N_17 
REMARK    7  A    between atoms: N_17  and  C_18 
ROOT
HETATM    1  C   UNL     1      41.537 -14.068   5.576  1.00  0.00     0.229 C 
HETATM    2  N   UNL     1      41.020 -12.773   5.497  1.00  0.00    -0.351 N 
HETATM    3  C   UNL     1      41.775 -11.604   5.048  1.00  0.00     0.132 C 
HETATM    4  C   UNL     1      40.896 -10.648   4.228  1.00  0.00     0.021 C 
HETATM    5  C   UNL     1      39.649 -10.266   5.042  1.00  0.00     0.009 C 
HETATM    6  C   UNL     1      38.890 -11.496   5.542  1.00  0.00     0.020 C 
HETATM    7  C   UNL     1      39.808 -12.480   6.262  1.00  0.00     0.126 C 
HETATM    8  O   UNL     1      40.821 -15.024   5.893  1.00  0.00    -0.273 OA
ENDROOT
BRANCH   1   9
HETATM    9  C   UNL     1      42.988 -14.320   5.184  1.00  0.00     0.185 C 
BRANCH   9  10
HETATM   10  S   UNL     1      43.229 -14.375   3.382  1.00  0.00    -0.082 SA
BRANCH  10  11
HETATM   11  C   UNL     1      41.799 -15.236   2.903  1.00  0.00     0.173 A 
HETATM   12  N   UNL     1      41.682 -16.618   2.891  1.00  0.00    -0.299 N 
HETATM   13  C   UNL     1      40.490 -16.874   2.238  1.00  0.00     0.118 A 
HETATM   14  C   UNL     1      39.943 -15.649   1.947  1.00  0.00     0.137 A 
HETATM   15  N   UNL     1      40.755 -14.637   2.376  1.00  0.00    -0.235 NA
BRANCH  12  16
HETATM   16  C   UNL     1      42.508 -17.603   3.502  1.00  0.00     0.047 A 
HETATM   17  C   UNL     1      43.390 -18.417   2.748  1.00  0.00    -0.029 A 
HETATM   18  C   UNL     1      44.058 -19.479   3.407  1.00  0.00    -0.054 A 
HETATM   19  C   UNL     1      43.669 -18.163   1.286  1.00  0.00     0.051 C 
HETATM   20  C   UNL     1      44.992 -20.411   2.678  1.00  0.00     0.049 C 
HETATM   21  C   UNL     1      43.897 -19.655   4.791  1.00  0.00     0.007 A 
HETATM   22  C   UNL     1      43.063 -18.820   5.525  1.00  0.00     0.003 A 
HETATM   23  C   UNL     1      42.363 -17.803   4.885  1.00  0.00     0.030 A 
ENDBRANCH  12  16
ENDBRANCH  10  11
ENDBRANCH   9  10
ENDBRANCH   1   9
BRANCH   4  24
HETATM   24  C   UNL     1      40.500 -11.243   2.863  1.00  0.00     0.130 C 
BRANCH  24  25
HETATM   25  N   UNL     1      41.606 -11.242   1.918  1.00  0.00    -0.342 N 
HETATM   26  C   UNL     1      41.741 -11.788   0.676  1.00  0.00     0.320 C 
HETATM   27  N   UNL     1      40.634 -12.390   0.149  1.00  0.00    -0.309 N 
HETATM   28  O   UNL     1      42.843 -11.700   0.144  1.00  0.00    -0.247 OA
HETATM   29  H   UNL     1      39.769 -12.265   0.648  1.00  0.00     0.170 HD
HETATM   30  H   UNL     1      42.463 -10.785   2.207  1.00  0.00     0.164 HD
BRANCH  27  31
HETATM   31  C   UNL     1      40.520 -13.052  -1.093  1.00  0.00     0.039 A 
HETATM   32  C   UNL     1      41.070 -14.305  -1.364  1.00  0.00     0.071 A 
HETATM   33  C   UNL     1      40.907 -14.874  -2.626  1.00  0.00     0.118 A 
HETATM   34  F   UNL     1      41.437 -16.078  -2.878  1.00  0.00    -0.206 F 
HETATM   35  C   UNL     1      40.206 -14.218  -3.630  1.00  0.00     0.042 A 
HETATM   36  C   UNL     1      39.648 -12.971  -3.369  1.00  0.00     0.005 A 
HETATM   37  C   UNL     1      39.800 -12.395  -2.102  1.00  0.00     0.030 A 
ENDBRANCH  27  31
ENDBRANCH  24  25
ENDBRANCH   4  24
TORSDOF 7
ENDMDL
MODEL 9
REMARK VINA RESULT:      -9.3      5.164      9.966
REMARK  7 active torsions:
REMARK  status: ('A' for Active; 'I' for Inactive)
REMARK    1  A    between atoms: C_5  and  N_6 
REMARK    2  A    between atoms: C_7  and  S_8 
REMARK    3  A    between atoms: S_8  and  C_9 
REMARK    4  A    between atoms: C_9  and  C_10 
REMARK       I    between atoms: C_10  and  N_11 
REMARK    5  A    between atoms: C_13  and  C_14 
REMARK    6  A    between atoms: C_14  and  N_15 
REMARK       I    between atoms: N_15  and  C_16 
REMARK       I    between atoms: C_16  and  N_17 
REMARK    7  A    between atoms: N_17  and  C_18 
ROOT
HETATM    1  C   UNL     1      40.132 -12.211   2.905  1.00  0.00     0.229 C 
HETATM    2  N   UNL     1      40.165 -13.365   3.689  1.00  0.00    -0.351 N 
HETATM    3  C   UNL     1      40.199 -14.728   3.159  1.00  0.00     0.132 C 
HETATM    4  C   UNL     1      41.087 -15.642   4.014  1.00  0.00     0.021 C 
HETATM    5  C   UNL     1      40.622 -15.593   5.478  1.00  0.00     0.009 C 
HETATM    6  C   UNL     1      40.550 -14.161   6.011  1.00  0.00     0.020 C 
HETATM    7  C   UNL     1      39.749 -13.247   5.087  1.00  0.00     0.126 C 
HETATM    8  O   UNL     1      40.180 -11.087   3.420  1.00  0.00    -0.273 OA
ENDROOT
BRANCH   1   9
HETATM    9  C   UNL     1      40.120 -12.335   1.387  1.00  0.00     0.185 C 
BRANCH   9  10
HETATM   10  S   UNL     1      41.790 -12.469   0.680  1.00  0.00    -0.082 SA
BRANCH  10  11
HETATM   11  C   UNL     1      41.602 -13.894  -0.294  1.00  0.00     0.173 A 
HETATM   12  N   UNL     1      41.209 -13.889  -1.624  1.00  0.00    -0.299 N 
HETATM   13  C   UNL     1      40.969 -15.215  -1.935  1.00  0.00     0.118 A 
HETATM   14  C   UNL     1      41.277 -15.935  -0.806  1.00  0.00     0.137 A 
HETATM   15  N   UNL     1      41.682 -15.108   0.204  1.00  0.00    -0.235 NA
BRANCH  12  16
HETATM   16  C   UNL     1      41.162 -12.810  -2.551  1.00  0.00     0.047 A 
HETATM   17  C   UNL     1      39.944 -12.179  -2.907  1.00  0.00    -0.029 A 
HETATM   18  C   UNL     1      39.959 -11.222  -3.953  1.00  0.00    -0.054 A 
HETATM   19  C   UNL     1      38.648 -12.462  -2.184  1.00  0.00     0.051 C 
HETATM   20  C   UNL     1      38.707 -10.522  -4.415  1.00  0.00     0.049 C 
HETATM   21  C   UNL     1      41.177 -10.864  -4.555  1.00  0.00     0.007 A 
HETATM   22  C   UNL     1      42.370 -11.461  -4.163  1.00  0.00     0.003 A 
HETATM   23  C   UNL     1      42.365 -12.436  -3.172  1.00  0.00     0.030 A 
ENDBRANCH  12  16
ENDBRANCH  10  11
ENDBRANCH   9  10
ENDBRANCH   1   9
BRANCH   4  24
HETATM   24  C   UNL     1      42.582 -15.280   3.900  1.00  0.00     0.130 C 
BRANCH  24  25
HETATM   25  N   UNL     1      43.187 -15.812   2.689  1.00  0.00    -0.342 N 
HETATM   26  C   UNL     1      43.637 -17.059   2.370  1.00  0.00     0.320 C 
HETATM   27  N   UNL     1      43.431 -18.039   3.298  1.00  0.00    -0.309 N 
HETATM   28  O   UNL     1      44.193 -17.191   1.285  1.00  0.00    -0.247 OA
HETATM   29  H   UNL     1      42.843 -17.807   4.081  1.00  0.00     0.170 HD
HETATM   30  H   UNL     1      43.348 -15.164   1.927  1.00  0.00     0.164 HD
BRANCH  27  31
HETATM   31  C   UNL     1      43.825 -19.394   3.226  1.00  0.00     0.039 A 
HETATM   32  C   UNL     1      43.638 -20.204   2.106  1.00  0.00     0.071 A 
HETATM   33  C   UNL     1      44.057 -21.533   2.135  1.00  0.00     0.118 A 
HETATM   34  F   UNL     1      43.875 -22.304   1.054  1.00  0.00    -0.206 F 
HETATM   35  C   UNL     1      44.659 -22.077   3.263  1.00  0.00     0.042 A 
HETATM   36  C   UNL     1      44.856 -21.276   4.383  1.00  0.00     0.005 A 
HETATM   37  C   UNL     1      44.445 -19.938   4.361  1.00  0.00     0.030 A 
ENDBRANCH  27  31
ENDBRANCH  24  25
ENDBRANCH   4  24
TORSDOF 7
ENDMDL
MODEL 10
REMARK VINA RESULT:      -9.1      4.867      7.653
REMARK  7 active torsions:
REMARK  status: ('A' for Active; 'I' for Inactive)
REMARK    1  A    between atoms: C_5  and  N_6 
REMARK    2  A    between atoms: C_7  and  S_8 
REMARK    3  A    between atoms: S_8  and  C_9 
REMARK    4  A    between atoms: C_9  and  C_10 
REMARK       I    between atoms: C_10  and  N_11 
REMARK    5  A    between atoms: C_13  and  C_14 
REMARK    6  A    between atoms: C_14  and  N_15 
REMARK       I    between atoms: N_15  and  C_16 
REMARK       I    between atoms: C_16  and  N_17 
REMARK    7  A    between atoms: N_17  and  C_18 
ROOT
HETATM    1  C   UNL     1      42.035 -13.212   0.612  1.00  0.00     0.229 C 
HETATM    2  N   UNL     1      41.848 -13.587  -0.720  1.00  0.00    -0.351 N 
HETATM    3  C   UNL     1      41.263 -14.856  -1.150  1.00  0.00     0.132 C 
HETATM    4  C   UNL     1      40.383 -14.677  -2.396  1.00  0.00     0.021 C 
HETATM    5  C   UNL     1      41.196 -13.996  -3.509  1.00  0.00     0.009 C 
HETATM    6  C   UNL     1      41.837 -12.690  -3.036  1.00  0.00     0.020 C 
HETATM    7  C   UNL     1      42.619 -12.875  -1.739  1.00  0.00     0.126 C 
HETATM    8  O   UNL     1      42.466 -12.091   0.906  1.00  0.00    -0.273 OA
ENDROOT
BRANCH   1   9
HETATM    9  C   UNL     1      41.622 -14.168   1.725  1.00  0.00     0.185 C 
BRANCH   9  10
HETATM   10  S   UNL     1      42.951 -14.454   2.932  1.00  0.00    -0.082 SA
BRANCH  10  11
HETATM   11  C   UNL     1      42.023 -15.025   4.285  1.00  0.00     0.173 A 
HETATM   12  N   UNL     1      42.011 -16.337   4.731  1.00  0.00    -0.299 N 
HETATM   13  C   UNL     1      40.987 -16.396   5.658  1.00  0.00     0.118 A 
HETATM   14  C   UNL     1      40.485 -15.121   5.753  1.00  0.00     0.137 A 
HETATM   15  N   UNL     1      41.143 -14.273   4.907  1.00  0.00    -0.235 NA
BRANCH  12  16
HETATM   16  C   UNL     1      42.904 -17.405   4.431  1.00  0.00     0.047 A 
HETATM   17  C   UNL     1      42.759 -18.200   3.267  1.00  0.00    -0.029 A 
HETATM   18  C   UNL     1      43.589 -19.340   3.121  1.00  0.00    -0.054 A 
HETATM   19  C   UNL     1      41.786 -17.850   2.167  1.00  0.00     0.051 C 
HETATM   20  C   UNL     1      43.486 -20.258   1.930  1.00  0.00     0.049 C 
HETATM   21  C   UNL     1      44.579 -19.613   4.080  1.00  0.00     0.007 A 
HETATM   22  C   UNL     1      44.738 -18.796   5.194  1.00  0.00     0.003 A 
HETATM   23  C   UNL     1      43.900 -17.701   5.376  1.00  0.00     0.030 A 
ENDBRANCH  12  16
ENDBRANCH  10  11
ENDBRANCH   9  10
ENDBRANCH   1   9
BRANCH   4  24
HETATM   24  C   UNL     1      39.095 -13.886  -2.093  1.00  0.00     0.130 C 
BRANCH  24  25
HETATM   25  N   UNL     1      38.462 -14.313  -0.855  1.00  0.00    -0.342 N 
HETATM   26  C   UNL     1      37.686 -13.647   0.046  1.00  0.00     0.320 C 
HETATM   27  N   UNL     1      37.351 -12.361  -0.269  1.00  0.00    -0.309 N 
HETATM   28  O   UNL     1      37.364 -14.254   1.062  1.00  0.00    -0.247 OA
HETATM   29  H   UNL     1      37.579 -12.046  -1.197  1.00  0.00     0.170 HD
HETATM   30  H   UNL     1      38.624 -15.268  -0.557  1.00  0.00     0.164 HD
BRANCH  27  31
HETATM   31  C   UNL     1      36.592 -11.453   0.502  1.00  0.00     0.039 A 
HETATM   32  C   UNL     1      35.215 -11.275   0.368  1.00  0.00     0.071 A 
HETATM   33  C   UNL     1      34.555 -10.348   1.173  1.00  0.00     0.118 A 
HETATM   34  F   UNL     1      33.232 -10.184   1.039  1.00  0.00    -0.206 F 
HETATM   35  C   UNL     1      35.241  -9.588   2.112  1.00  0.00     0.042 A 
HETATM   36  C   UNL     1      36.613  -9.762   2.258  1.00  0.00     0.005 A 
HETATM   37  C   UNL     1      37.283 -10.695   1.460  1.00  0.00     0.030 A 
ENDBRANCH  27  31
ENDBRANCH  24  25
ENDBRANCH   4  24
TORSDOF 7
ENDMDL
