MODEL 1
REMARK VINA RESULT:      -8.6      0.000      0.000
REMARK  6 active torsions:
REMARK  status: ('A' for Active; 'I' for Inactive)
REMARK    1  A    between atoms: O_2  and  C_3 
REMARK    2  A    between atoms: C_6  and  C_7 
REMARK    3  A    between atoms: C_7  and  N_8 
REMARK       I    between atoms: N_8  and  C_9 
REMARK    4  A    between atoms: C_9  and  C_10 
REMARK    5  A    between atoms: C_10  and  O_11 
REMARK    6  A    between atoms: N_12  and  C_13 
ROOT
HETATM    1  C   UNL     1      42.096 -14.396   4.152  1.00  0.00     0.256 C 
HETATM    2  N   UNL     1      41.656 -15.158   2.968  1.00  0.00    -0.254 N 
HETATM    3  C   UNL     1      40.616 -14.690   2.176  1.00  0.00     0.330 C 
HETATM    4  O   UNL     1      40.319 -15.110   1.056  1.00  0.00    -0.246 OA
HETATM    5  N   UNL     1      39.857 -13.668   2.650  1.00  0.00    -0.308 N 
HETATM    6  C   UNL     1      40.027 -13.014   3.855  1.00  0.00     0.048 A 
HETATM    7  C   UNL     1      41.125 -13.333   4.637  1.00  0.00     0.035 A 
HETATM    8  C   UNL     1      39.107 -12.038   4.247  1.00  0.00     0.031 A 
HETATM    9  C   UNL     1      39.280 -11.365   5.454  1.00  0.00     0.021 A 
HETATM   10  C   UNL     1      40.385 -11.660   6.246  1.00  0.00     0.011 A 
HETATM   11 BR   UNL     1      40.635 -10.752   7.885  1.00  0.00    -0.051 Br
HETATM   12  C   UNL     1      41.310 -12.623   5.841  1.00  0.00     0.034 A 
HETATM   13  H   UNL     1      39.091 -13.412   2.040  1.00  0.00     0.170 HD
ENDROOT
BRANCH   1  14
HETATM   14  C   UNL     1      42.360 -15.375   5.385  1.00  0.00     0.279 C 
HETATM   15  N   UNL     1      43.702 -15.469   5.728  1.00  0.00    -0.352 N 
HETATM   16  H   UNL     1      44.373 -15.041   5.097  1.00  0.00     0.162 HD
HETATM   17  O   UNL     1      41.468 -15.940   6.017  1.00  0.00    -0.268 OA
BRANCH  15  18
HETATM   18  C   UNL     1      44.169 -16.229   6.858  1.00  0.00     0.161 C 
BRANCH  18  19
HETATM   19  C   UNL     1      44.168 -17.711   6.590  1.00  0.00    -0.040 A 
HETATM   20  C   UNL     1      44.751 -18.233   5.429  1.00  0.00     0.011 A 
HETATM   21  C   UNL     1      44.795 -19.616   5.225  1.00  0.00     0.037 A 
HETATM   22  C   UNL     1      44.267 -20.493   6.174  1.00  0.00     0.068 A 
HETATM   23  C   UNL     1      43.643 -19.977   7.309  1.00  0.00     0.037 A 
HETATM   24  C   UNL     1      43.596 -18.595   7.515  1.00  0.00     0.011 A 
BRANCH  22  25
HETATM   25  O   UNL     1      44.406 -21.821   5.877  1.00  0.00    -0.356 OA
HETATM   26  C   UNL     1      44.812 -22.122   4.545  1.00  0.00     0.210 C 
ENDBRANCH  22  25
ENDBRANCH  18  19
ENDBRANCH  15  18
ENDBRANCH   1  14
BRANCH   1  27
HETATM   27  O   UNL     1      43.269 -13.672   3.770  1.00  0.00    -0.359 OA
HETATM   28  H   UNL     1      43.596 -13.314   4.614  1.00  0.00     0.213 HD
ENDBRANCH   1  27
BRANCH   2  29
HETATM   29  C   UNL     1      42.350 -16.380   2.595  1.00  0.00     0.042 A 
HETATM   30  C   UNL     1      41.825 -17.657   2.855  1.00  0.00     0.030 A 
HETATM   31  C   UNL     1      42.502 -18.822   2.468  1.00  0.00     0.002 A 
HETATM   32  C   UNL     1      43.721 -18.737   1.809  1.00  0.00     0.000 A 
HETATM   33  C   UNL     1      44.261 -17.490   1.531  1.00  0.00     0.002 A 
HETATM   34  C   UNL     1      43.581 -16.329   1.917  1.00  0.00     0.030 A 
ENDBRANCH   2  29
TORSDOF 6
ENDMDL
MODEL 2
REMARK VINA RESULT:      -8.5      3.498      5.991
REMARK  6 active torsions:
REMARK  status: ('A' for Active; 'I' for Inactive)
REMARK    1  A    between atoms: O_2  and  C_3 
REMARK    2  A    between atoms: C_6  and  C_7 
REMARK    3  A    between atoms: C_7  and  N_8 
REMARK       I    between atoms: N_8  and  C_9 
REMARK    4  A    between atoms: C_9  and  C_10 
REMARK    5  A    between atoms: C_10  and  O_11 
REMARK    6  A    between atoms: N_12  and  C_13 
ROOT
HETATM    1  C   UNL     1      42.384 -14.361   5.103  1.00  0.00     0.256 C 
HETATM    2  N   UNL     1      42.029 -15.685   5.648  1.00  0.00    -0.254 N 
HETATM    3  C   UNL     1      40.732 -15.949   6.070  1.00  0.00     0.330 C 
HETATM    4  O   UNL     1      40.270 -17.063   6.322  1.00  0.00    -0.246 OA
HETATM    5  N   UNL     1      39.876 -14.904   6.206  1.00  0.00    -0.308 N 
HETATM    6  C   UNL     1      40.157 -13.577   5.942  1.00  0.00     0.048 A 
HETATM    7  C   UNL     1      41.384 -13.253   5.388  1.00  0.00     0.035 A 
HETATM    8  C   UNL     1      39.196 -12.601   6.217  1.00  0.00     0.031 A 
HETATM    9  C   UNL     1      39.467 -11.262   5.940  1.00  0.00     0.021 A 
HETATM   10  C   UNL     1      40.688 -10.918   5.370  1.00  0.00     0.011 A 
HETATM   11 BR   UNL     1      41.069  -9.107   4.986  1.00  0.00    -0.051 Br
HETATM   12  C   UNL     1      41.637 -11.901   5.082  1.00  0.00     0.034 A 
HETATM   13  H   UNL     1      38.965 -15.167   6.560  1.00  0.00     0.170 HD
ENDROOT
BRANCH   1  14
HETATM   14  C   UNL     1      43.790 -13.874   5.679  1.00  0.00     0.279 C 
HETATM   15  N   UNL     1      43.765 -13.638   7.048  1.00  0.00    -0.352 N 
HETATM   16  H   UNL     1      42.857 -13.653   7.505  1.00  0.00     0.162 HD
HETATM   17  O   UNL     1      44.814 -13.781   5.005  1.00  0.00    -0.268 OA
BRANCH  15  18
HETATM   18  C   UNL     1      44.936 -13.269   7.799  1.00  0.00     0.161 C 
BRANCH  18  19
HETATM   19  C   UNL     1      44.641 -12.221   8.839  1.00  0.00    -0.040 A 
HETATM   20  C   UNL     1      43.475 -11.450   8.775  1.00  0.00     0.011 A 
HETATM   21  C   UNL     1      43.187 -10.523   9.782  1.00  0.00     0.037 A 
HETATM   22  C   UNL     1      44.052 -10.358  10.865  1.00  0.00     0.068 A 
HETATM   23  C   UNL     1      45.238 -11.089  10.910  1.00  0.00     0.037 A 
HETATM   24  C   UNL     1      45.529 -12.015   9.904  1.00  0.00     0.011 A 
BRANCH  22  25
HETATM   25  O   UNL     1      43.641  -9.449  11.802  1.00  0.00    -0.356 OA
HETATM   26  C   UNL     1      43.242  -9.990  13.058  1.00  0.00     0.210 C 
ENDBRANCH  22  25
ENDBRANCH  18  19
ENDBRANCH  15  18
ENDBRANCH   1  14
BRANCH   1  27
HETATM   27  O   UNL     1      42.392 -14.486   3.677  1.00  0.00    -0.359 OA
HETATM   28  H   UNL     1      42.215 -15.433   3.534  1.00  0.00     0.213 HD
ENDBRANCH   1  27
BRANCH   2  29
HETATM   29  C   UNL     1      43.030 -16.740   5.696  1.00  0.00     0.042 A 
HETATM   30  C   UNL     1      43.362 -17.518   4.574  1.00  0.00     0.030 A 
HETATM   31  C   UNL     1      44.345 -18.516   4.639  1.00  0.00     0.002 A 
HETATM   32  C   UNL     1      45.021 -18.758   5.828  1.00  0.00     0.000 A 
HETATM   33  C   UNL     1      44.720 -17.999   6.950  1.00  0.00     0.002 A 
HETATM   34  C   UNL     1      43.740 -17.002   6.880  1.00  0.00     0.030 A 
ENDBRANCH   2  29
TORSDOF 6
ENDMDL
MODEL 3
REMARK VINA RESULT:      -8.5      2.828      4.612
REMARK  6 active torsions:
REMARK  status: ('A' for Active; 'I' for Inactive)
REMARK    1  A    between atoms: O_2  and  C_3 
REMARK    2  A    between atoms: C_6  and  C_7 
REMARK    3  A    between atoms: C_7  and  N_8 
REMARK       I    between atoms: N_8  and  C_9 
REMARK    4  A    between atoms: C_9  and  C_10 
REMARK    5  A    between atoms: C_10  and  O_11 
REMARK    6  A    between atoms: N_12  and  C_13 
ROOT
HETATM    1  C   UNL     1      40.239 -15.001   2.428  1.00  0.00     0.256 C 
HETATM    2  N   UNL     1      40.375 -14.419   3.777  1.00  0.00    -0.254 N 
HETATM    3  C   UNL     1      39.733 -13.231   4.099  1.00  0.00     0.330 C 
HETATM    4  O   UNL     1      39.586 -12.777   5.236  1.00  0.00    -0.246 OA
HETATM    5  N   UNL     1      39.196 -12.497   3.091  1.00  0.00    -0.308 N 
HETATM    6  C   UNL     1      39.201 -12.825   1.749  1.00  0.00     0.048 A 
HETATM    7  C   UNL     1      39.701 -14.058   1.366  1.00  0.00     0.035 A 
HETATM    8  C   UNL     1      38.685 -11.921   0.816  1.00  0.00     0.031 A 
HETATM    9  C   UNL     1      38.674 -12.251  -0.538  1.00  0.00     0.021 A 
HETATM   10  C   UNL     1      39.159 -13.491  -0.941  1.00  0.00     0.011 A 
HETATM   11 BR   UNL     1      39.147 -13.954  -2.773  1.00  0.00    -0.051 Br
HETATM   12  C   UNL     1      39.656 -14.396  -0.002  1.00  0.00     0.034 A 
HETATM   13  H   UNL     1      38.785 -11.623   3.396  1.00  0.00     0.170 HD
ENDROOT
BRANCH   1  14
HETATM   14  C   UNL     1      41.648 -15.535   1.901  1.00  0.00     0.279 C 
HETATM   15  N   UNL     1      41.686 -16.915   1.752  1.00  0.00    -0.352 N 
HETATM   16  H   UNL     1      40.899 -17.443   2.118  1.00  0.00     0.162 HD
HETATM   17  O   UNL     1      42.586 -14.804   1.589  1.00  0.00    -0.268 OA
BRANCH  15  18
HETATM   18  C   UNL     1      42.825 -17.612   1.214  1.00  0.00     0.161 C 
BRANCH  18  19
HETATM   19  C   UNL     1      43.428 -18.572   2.204  1.00  0.00    -0.040 A 
HETATM   20  C   UNL     1      43.802 -19.865   1.819  1.00  0.00     0.011 A 
HETATM   21  C   UNL     1      44.416 -20.723   2.736  1.00  0.00     0.037 A 
HETATM   22  C   UNL     1      44.672 -20.303   4.043  1.00  0.00     0.068 A 
HETATM   23  C   UNL     1      44.260 -19.033   4.445  1.00  0.00     0.037 A 
HETATM   24  C   UNL     1      43.644 -18.174   3.531  1.00  0.00     0.011 A 
BRANCH  22  25
HETATM   25  O   UNL     1      45.312 -21.219   4.833  1.00  0.00    -0.356 OA
HETATM   26  C   UNL     1      44.786 -22.542   4.801  1.00  0.00     0.210 C 
ENDBRANCH  22  25
ENDBRANCH  18  19
ENDBRANCH  15  18
ENDBRANCH   1  14
BRANCH   1  27
HETATM   27  O   UNL     1      39.261 -16.042   2.520  1.00  0.00    -0.359 OA
HETATM   28  H   UNL     1      39.680 -16.785   2.051  1.00  0.00     0.213 HD
ENDBRANCH   1  27
BRANCH   2  29
HETATM   29  C   UNL     1      41.143 -15.120   4.794  1.00  0.00     0.042 A 
HETATM   30  C   UNL     1      42.448 -14.740   5.150  1.00  0.00     0.030 A 
HETATM   31  C   UNL     1      43.163 -15.418   6.148  1.00  0.00     0.002 A 
HETATM   32  C   UNL     1      42.588 -16.492   6.815  1.00  0.00     0.000 A 
HETATM   33  C   UNL     1      41.298 -16.885   6.490  1.00  0.00     0.002 A 
HETATM   34  C   UNL     1      40.586 -16.204   5.495  1.00  0.00     0.030 A 
ENDBRANCH   2  29
TORSDOF 6
ENDMDL
MODEL 4
REMARK VINA RESULT:      -8.3      3.123      8.019
REMARK  6 active torsions:
REMARK  status: ('A' for Active; 'I' for Inactive)
REMARK    1  A    between atoms: O_2  and  C_3 
REMARK    2  A    between atoms: C_6  and  C_7 
REMARK    3  A    between atoms: C_7  and  N_8 
REMARK       I    between atoms: N_8  and  C_9 
REMARK    4  A    between atoms: C_9  and  C_10 
REMARK    5  A    between atoms: C_10  and  O_11 
REMARK    6  A    between atoms: N_12  and  C_13 
ROOT
HETATM    1  C   UNL     1      42.889 -16.362   4.025  1.00  0.00     0.256 C 
HETATM    2  N   UNL     1      42.927 -15.559   5.262  1.00  0.00    -0.254 N 
HETATM    3  C   UNL     1      43.791 -15.898   6.295  1.00  0.00     0.330 C 
HETATM    4  O   UNL     1      44.073 -15.186   7.261  1.00  0.00    -0.246 OA
HETATM    5  N   UNL     1      44.404 -17.109   6.249  1.00  0.00    -0.308 N 
HETATM    6  C   UNL     1      44.275 -18.053   5.249  1.00  0.00     0.048 A 
HETATM    7  C   UNL     1      43.538 -17.732   4.121  1.00  0.00     0.035 A 
HETATM    8  C   UNL     1      44.901 -19.294   5.387  1.00  0.00     0.031 A 
HETATM    9  C   UNL     1      44.786 -20.246   4.376  1.00  0.00     0.021 A 
HETATM   10  C   UNL     1      44.064 -19.937   3.228  1.00  0.00     0.011 A 
HETATM   11 BR   UNL     1      43.902 -21.217   1.847  1.00  0.00    -0.051 Br
HETATM   12  C   UNL     1      43.455 -18.689   3.089  1.00  0.00     0.034 A 
HETATM   13  H   UNL     1      44.982 -17.304   7.057  1.00  0.00     0.170 HD
ENDROOT
BRANCH   1  14
HETATM   14  C   UNL     1      41.382 -16.598   3.554  1.00  0.00     0.279 C 
HETATM   15  N   UNL     1      41.028 -15.826   2.455  1.00  0.00    -0.352 N 
HETATM   16  H   UNL     1      41.684 -15.108   2.162  1.00  0.00     0.162 HD
HETATM   17  O   UNL     1      40.626 -17.426   4.060  1.00  0.00    -0.268 OA
BRANCH  15  18
HETATM   18  C   UNL     1      39.747 -15.931   1.807  1.00  0.00     0.161 C 
BRANCH  18  19
HETATM   19  C   UNL     1      39.035 -14.606   1.731  1.00  0.00    -0.040 A 
HETATM   20  C   UNL     1      39.486 -13.502   2.465  1.00  0.00     0.011 A 
HETATM   21  C   UNL     1      38.850 -12.264   2.336  1.00  0.00     0.037 A 
HETATM   22  C   UNL     1      37.764 -12.108   1.472  1.00  0.00     0.068 A 
HETATM   23  C   UNL     1      37.282 -13.214   0.774  1.00  0.00     0.037 A 
HETATM   24  C   UNL     1      37.915 -14.454   0.903  1.00  0.00     0.011 A 
BRANCH  22  25
HETATM   25  O   UNL     1      37.253 -10.840   1.405  1.00  0.00    -0.356 OA
HETATM   26  C   UNL     1      35.890 -10.740   1.006  1.00  0.00     0.210 C 
ENDBRANCH  22  25
ENDBRANCH  18  19
ENDBRANCH  15  18
ENDBRANCH   1  14
BRANCH   1  27
HETATM   27  O   UNL     1      43.662 -15.659   3.048  1.00  0.00    -0.359 OA
HETATM   28  H   UNL     1      42.986 -15.271   2.464  1.00  0.00     0.213 HD
ENDBRANCH   1  27
BRANCH   2  29
HETATM   29  C   UNL     1      42.092 -14.374   5.382  1.00  0.00     0.042 A 
HETATM   30  C   UNL     1      40.827 -14.399   5.992  1.00  0.00     0.030 A 
HETATM   31  C   UNL     1      40.048 -13.239   6.114  1.00  0.00     0.002 A 
HETATM   32  C   UNL     1      40.519 -12.025   5.631  1.00  0.00     0.000 A 
HETATM   33  C   UNL     1      41.768 -11.968   5.031  1.00  0.00     0.002 A 
HETATM   34  C   UNL     1      42.544 -13.128   4.913  1.00  0.00     0.030 A 
ENDBRANCH   2  29
TORSDOF 6
ENDMDL
MODEL 5
REMARK VINA RESULT:      -8.3      2.664      4.074
REMARK  6 active torsions:
REMARK  status: ('A' for Active; 'I' for Inactive)
REMARK    1  A    between atoms: O_2  and  C_3 
REMARK    2  A    between atoms: C_6  and  C_7 
REMARK    3  A    between atoms: C_7  and  N_8 
REMARK       I    between atoms: N_8  and  C_9 
REMARK    4  A    between atoms: C_9  and  C_10 
REMARK    5  A    between atoms: C_10  and  O_11 
REMARK    6  A    between atoms: N_12  and  C_13 
ROOT
HETATM    1  C   UNL     1      41.685 -14.565   1.841  1.00  0.00     0.256 C 
HETATM    2  N   UNL     1      40.823 -13.782   0.936  1.00  0.00    -0.254 N 
HETATM    3  C   UNL     1      39.850 -12.934   1.450  1.00  0.00     0.330 C 
HETATM    4  O   UNL     1      39.238 -12.073   0.816  1.00  0.00    -0.246 OA
HETATM    5  N   UNL     1      39.543 -13.033   2.770  1.00  0.00    -0.308 N 
HETATM    6  C   UNL     1      40.125 -13.892   3.681  1.00  0.00     0.048 A 
HETATM    7  C   UNL     1      41.196 -14.671   3.275  1.00  0.00     0.035 A 
HETATM    8  C   UNL     1      39.638 -13.941   4.991  1.00  0.00     0.031 A 
HETATM    9  C   UNL     1      40.229 -14.795   5.920  1.00  0.00     0.021 A 
HETATM   10  C   UNL     1      41.315 -15.574   5.535  1.00  0.00     0.011 A 
HETATM   11 BR   UNL     1      42.130 -16.735   6.784  1.00  0.00    -0.051 Br
HETATM   12  C   UNL     1      41.808 -15.508   4.230  1.00  0.00     0.034 A 
HETATM   13  H   UNL     1      38.795 -12.417   3.062  1.00  0.00     0.170 HD
ENDROOT
BRANCH   1  14
HETATM   14  C   UNL     1      41.856 -16.058   1.301  1.00  0.00     0.279 C 
HETATM   15  N   UNL     1      43.185 -16.451   1.199  1.00  0.00    -0.352 N 
HETATM   16  H   UNL     1      43.892 -15.733   1.330  1.00  0.00     0.162 HD
HETATM   17  O   UNL     1      40.916 -16.815   1.064  1.00  0.00    -0.268 OA
BRANCH  15  18
HETATM   18  C   UNL     1      43.579 -17.780   0.812  1.00  0.00     0.161 C 
BRANCH  18  19
HETATM   19  C   UNL     1      43.868 -18.659   2.000  1.00  0.00    -0.040 A 
HETATM   20  C   UNL     1      44.033 -20.041   1.851  1.00  0.00     0.011 A 
HETATM   21  C   UNL     1      44.360 -20.835   2.955  1.00  0.00     0.037 A 
HETATM   22  C   UNL     1      44.533 -20.262   4.216  1.00  0.00     0.068 A 
HETATM   23  C   UNL     1      44.324 -18.894   4.380  1.00  0.00     0.037 A 
HETATM   24  C   UNL     1      43.995 -18.098   3.278  1.00  0.00     0.011 A 
BRANCH  22  25
HETATM   25  O   UNL     1      44.890 -21.137   5.206  1.00  0.00    -0.356 OA
HETATM   26  C   UNL     1      44.814 -22.519   4.872  1.00  0.00     0.210 C 
ENDBRANCH  22  25
ENDBRANCH  18  19
ENDBRANCH  15  18
ENDBRANCH   1  14
BRANCH   1  27
HETATM   27  O   UNL     1      42.933 -13.872   1.931  1.00  0.00    -0.359 OA
HETATM   28  H   UNL     1      43.160 -13.940   2.876  1.00  0.00     0.213 HD
ENDBRANCH   1  27
BRANCH   2  29
HETATM   29  C   UNL     1      41.026 -13.855  -0.502  1.00  0.00     0.042 A 
HETATM   30  C   UNL     1      40.170 -14.580  -1.350  1.00  0.00     0.030 A 
HETATM   31  C   UNL     1      40.374 -14.620  -2.736  1.00  0.00     0.002 A 
HETATM   32  C   UNL     1      41.437 -13.934  -3.309  1.00  0.00     0.000 A 
HETATM   33  C   UNL     1      42.293 -13.203  -2.498  1.00  0.00     0.002 A 
HETATM   34  C   UNL     1      42.085 -13.163  -1.114  1.00  0.00     0.030 A 
ENDBRANCH   2  29
TORSDOF 6
ENDMDL
MODEL 6
REMARK VINA RESULT:      -8.2      2.659      4.314
REMARK  6 active torsions:
REMARK  status: ('A' for Active; 'I' for Inactive)
REMARK    1  A    between atoms: O_2  and  C_3 
REMARK    2  A    between atoms: C_6  and  C_7 
REMARK    3  A    between atoms: C_7  and  N_8 
REMARK       I    between atoms: N_8  and  C_9 
REMARK    4  A    between atoms: C_9  and  C_10 
REMARK    5  A    between atoms: C_10  and  O_11 
REMARK    6  A    between atoms: N_12  and  C_13 
ROOT
HETATM    1  C   UNL     1      42.459 -15.218   2.824  1.00  0.00     0.256 C 
HETATM    2  N   UNL     1      41.266 -14.778   2.076  1.00  0.00    -0.254 N 
HETATM    3  C   UNL     1      40.060 -14.570   2.733  1.00  0.00     0.330 C 
HETATM    4  O   UNL     1      39.077 -13.992   2.267  1.00  0.00    -0.246 OA
HETATM    5  N   UNL     1      39.938 -15.018   4.010  1.00  0.00    -0.308 N 
HETATM    6  C   UNL     1      40.916 -15.655   4.749  1.00  0.00     0.048 A 
HETATM    7  C   UNL     1      42.186 -15.776   4.211  1.00  0.00     0.035 A 
HETATM    8  C   UNL     1      40.611 -16.141   6.023  1.00  0.00     0.031 A 
HETATM    9  C   UNL     1      41.596 -16.771   6.781  1.00  0.00     0.021 A 
HETATM   10  C   UNL     1      42.881 -16.889   6.264  1.00  0.00     0.011 A 
HETATM   11 BR   UNL     1      44.229 -17.739   7.280  1.00  0.00    -0.051 Br
HETATM   12  C   UNL     1      43.185 -16.386   4.997  1.00  0.00     0.034 A 
HETATM   13  H   UNL     1      39.018 -14.873   4.407  1.00  0.00     0.170 HD
ENDROOT
BRANCH   1  14
HETATM   14  C   UNL     1      43.241 -16.352   2.017  1.00  0.00     0.279 C 
HETATM   15  N   UNL     1      42.546 -17.553   1.953  1.00  0.00    -0.352 N 
HETATM   16  H   UNL     1      41.711 -17.637   2.527  1.00  0.00     0.162 HD
HETATM   17  O   UNL     1      44.316 -16.172   1.447  1.00  0.00    -0.268 OA
BRANCH  15  18
HETATM   18  C   UNL     1      43.019 -18.691   1.209  1.00  0.00     0.161 C 
BRANCH  18  19
HETATM   19  C   UNL     1      43.642 -19.735   2.097  1.00  0.00    -0.040 A 
HETATM   20  C   UNL     1      44.156 -19.398   3.355  1.00  0.00     0.011 A 
HETATM   21  C   UNL     1      44.677 -20.390   4.191  1.00  0.00     0.037 A 
HETATM   22  C   UNL     1      44.686 -21.727   3.790  1.00  0.00     0.068 A 
HETATM   23  C   UNL     1      44.219 -22.062   2.520  1.00  0.00     0.037 A 
HETATM   24  C   UNL     1      43.699 -21.072   1.680  1.00  0.00     0.011 A 
BRANCH  22  25
HETATM   25  O   UNL     1      45.186 -22.606   4.712  1.00  0.00    -0.356 OA
HETATM   26  C   UNL     1      44.759 -22.407   6.055  1.00  0.00     0.210 C 
ENDBRANCH  22  25
ENDBRANCH  18  19
ENDBRANCH  15  18
ENDBRANCH   1  14
BRANCH   1  27
HETATM   27  O   UNL     1      43.262 -14.056   3.049  1.00  0.00    -0.359 OA
HETATM   28  H   UNL     1      43.570 -14.171   3.966  1.00  0.00     0.213 HD
ENDBRANCH   1  27
BRANCH   2  29
HETATM   29  C   UNL     1      41.364 -14.507   0.651  1.00  0.00     0.042 A 
HETATM   30  C   UNL     1      41.893 -13.308   0.144  1.00  0.00     0.030 A 
HETATM   31  C   UNL     1      41.996 -13.078  -1.236  1.00  0.00     0.002 A 
HETATM   32  C   UNL     1      41.576 -14.043  -2.141  1.00  0.00     0.000 A 
HETATM   33  C   UNL     1      41.058 -15.241  -1.669  1.00  0.00     0.002 A 
HETATM   34  C   UNL     1      40.958 -15.468  -0.292  1.00  0.00     0.030 A 
ENDBRANCH   2  29
TORSDOF 6
ENDMDL
MODEL 7
REMARK VINA RESULT:      -8.1      1.607      2.246
REMARK  6 active torsions:
REMARK  status: ('A' for Active; 'I' for Inactive)
REMARK    1  A    between atoms: O_2  and  C_3 
REMARK    2  A    between atoms: C_6  and  C_7 
REMARK    3  A    between atoms: C_7  and  N_8 
REMARK       I    between atoms: N_8  and  C_9 
REMARK    4  A    between atoms: C_9  and  C_10 
REMARK    5  A    between atoms: C_10  and  O_11 
REMARK    6  A    between atoms: N_12  and  C_13 
ROOT
HETATM    1  C   UNL     1      41.807 -13.346   4.332  1.00  0.00     0.256 C 
HETATM    2  N   UNL     1      40.924 -13.579   3.174  1.00  0.00    -0.254 N 
HETATM    3  C   UNL     1      39.996 -12.619   2.793  1.00  0.00     0.330 C 
HETATM    4  O   UNL     1      39.377 -12.600   1.727  1.00  0.00    -0.246 OA
HETATM    5  N   UNL     1      39.746 -11.591   3.645  1.00  0.00    -0.308 N 
HETATM    6  C   UNL     1      40.348 -11.383   4.871  1.00  0.00     0.048 A 
HETATM    7  C   UNL     1      41.380 -12.221   5.259  1.00  0.00     0.035 A 
HETATM    8  C   UNL     1      39.919 -10.326   5.679  1.00  0.00     0.031 A 
HETATM    9  C   UNL     1      40.531 -10.101   6.911  1.00  0.00     0.021 A 
HETATM   10  C   UNL     1      41.579 -10.922   7.311  1.00  0.00     0.011 A 
HETATM   11 BR   UNL     1      42.421 -10.627   8.977  1.00  0.00    -0.051 Br
HETATM   12  C   UNL     1      42.014 -11.966   6.492  1.00  0.00     0.034 A 
HETATM   13  H   UNL     1      39.027 -10.958   3.321  1.00  0.00     0.170 HD
ENDROOT
BRANCH   1  14
HETATM   14  C   UNL     1      41.918 -14.663   5.228  1.00  0.00     0.279 C 
HETATM   15  N   UNL     1      43.168 -15.266   5.158  1.00  0.00    -0.352 N 
HETATM   16  H   UNL     1      43.815 -14.911   4.459  1.00  0.00     0.162 HD
HETATM   17  O   UNL     1      41.021 -15.072   5.962  1.00  0.00    -0.268 OA
BRANCH  15  18
HETATM   18  C   UNL     1      43.525 -16.419   5.942  1.00  0.00     0.161 C 
BRANCH  18  19
HETATM   19  C   UNL     1      43.899 -17.599   5.086  1.00  0.00    -0.040 A 
HETATM   20  C   UNL     1      44.539 -18.715   5.638  1.00  0.00     0.011 A 
HETATM   21  C   UNL     1      44.825 -19.828   4.841  1.00  0.00     0.037 A 
HETATM   22  C   UNL     1      44.473 -19.845   3.490  1.00  0.00     0.068 A 
HETATM   23  C   UNL     1      43.878 -18.719   2.924  1.00  0.00     0.037 A 
HETATM   24  C   UNL     1      43.593 -17.604   3.718  1.00  0.00     0.011 A 
BRANCH  22  25
HETATM   25  O   UNL     1      44.771 -21.005   2.827  1.00  0.00    -0.356 OA
HETATM   26  C   UNL     1      43.796 -21.456   1.893  1.00  0.00     0.210 C 
ENDBRANCH  22  25
ENDBRANCH  18  19
ENDBRANCH  15  18
ENDBRANCH   1  14
BRANCH   1  27
HETATM   27  O   UNL     1      43.075 -12.931   3.814  1.00  0.00    -0.359 OA
HETATM   28  H   UNL     1      43.636 -13.717   3.937  1.00  0.00     0.213 HD
ENDBRANCH   1  27
BRANCH   2  29
HETATM   29  C   UNL     1      41.061 -14.798   2.393  1.00  0.00     0.042 A 
HETATM   30  C   UNL     1      40.228 -15.914   2.582  1.00  0.00     0.030 A 
HETATM   31  C   UNL     1      40.365 -17.072   1.803  1.00  0.00     0.002 A 
HETATM   32  C   UNL     1      41.337 -17.139   0.813  1.00  0.00     0.000 A 
HETATM   33  C   UNL     1      42.168 -16.050   0.598  1.00  0.00     0.002 A 
HETATM   34  C   UNL     1      42.027 -14.895   1.376  1.00  0.00     0.030 A 
ENDBRANCH   2  29
TORSDOF 6
ENDMDL
MODEL 8
REMARK VINA RESULT:      -7.9      3.285      5.265
REMARK  6 active torsions:
REMARK  status: ('A' for Active; 'I' for Inactive)
REMARK    1  A    between atoms: O_2  and  C_3 
REMARK    2  A    between atoms: C_6  and  C_7 
REMARK    3  A    between atoms: C_7  and  N_8 
REMARK       I    between atoms: N_8  and  C_9 
REMARK    4  A    between atoms: C_9  and  C_10 
REMARK    5  A    between atoms: C_10  and  O_11 
REMARK    6  A    between atoms: N_12  and  C_13 
ROOT
HETATM    1  C   UNL     1      39.455 -14.400   1.611  1.00  0.00     0.256 C 
HETATM    2  N   UNL     1      39.774 -13.567   2.785  1.00  0.00    -0.254 N 
HETATM    3  C   UNL     1      39.231 -12.296   2.916  1.00  0.00     0.330 C 
HETATM    4  O   UNL     1      39.239 -11.611   3.941  1.00  0.00    -0.246 OA
HETATM    5  N   UNL     1      38.615 -11.746   1.837  1.00  0.00    -0.308 N 
HETATM    6  C   UNL     1      38.448 -12.339   0.601  1.00  0.00     0.048 A 
HETATM    7  C   UNL     1      38.842 -13.657   0.435  1.00  0.00     0.035 A 
HETATM    8  C   UNL     1      37.871 -11.610  -0.442  1.00  0.00     0.031 A 
HETATM    9  C   UNL     1      37.687 -12.206  -1.688  1.00  0.00     0.021 A 
HETATM   10  C   UNL     1      38.063 -13.533  -1.870  1.00  0.00     0.011 A 
HETATM   11 BR   UNL     1      37.816 -14.357  -3.553  1.00  0.00    -0.051 Br
HETATM   12  C   UNL     1      38.622 -14.262  -0.819  1.00  0.00     0.034 A 
HETATM   13  H   UNL     1      38.285 -10.802   1.994  1.00  0.00     0.170 HD
ENDROOT
BRANCH   1  14
HETATM   14  C   UNL     1      40.766 -15.127   1.063  1.00  0.00     0.279 C 
HETATM   15  N   UNL     1      40.758 -16.499   1.279  1.00  0.00    -0.352 N 
HETATM   16  H   UNL     1      40.020 -16.871   1.870  1.00  0.00     0.162 HD
HETATM   17  O   UNL     1      41.665 -14.553   0.450  1.00  0.00    -0.268 OA
BRANCH  15  18
HETATM   18  C   UNL     1      41.797 -17.372   0.799  1.00  0.00     0.161 C 
BRANCH  18  19
HETATM   19  C   UNL     1      42.580 -17.999   1.922  1.00  0.00    -0.040 A 
HETATM   20  C   UNL     1      42.243 -17.757   3.259  1.00  0.00     0.011 A 
HETATM   21  C   UNL     1      42.942 -18.395   4.287  1.00  0.00     0.037 A 
HETATM   22  C   UNL     1      43.979 -19.284   3.999  1.00  0.00     0.068 A 
HETATM   23  C   UNL     1      44.350 -19.493   2.671  1.00  0.00     0.037 A 
HETATM   24  C   UNL     1      43.653 -18.855   1.640  1.00  0.00     0.011 A 
BRANCH  22  25
HETATM   25  O   UNL     1      44.559 -19.873   5.089  1.00  0.00    -0.356 OA
HETATM   26  C   UNL     1      44.772 -21.278   4.997  1.00  0.00     0.210 C 
ENDBRANCH  22  25
ENDBRANCH  18  19
ENDBRANCH  15  18
ENDBRANCH   1  14
BRANCH   1  27
HETATM   27  O   UNL     1      38.446 -15.329   2.020  1.00  0.00    -0.359 OA
HETATM   28  H   UNL     1      38.259 -15.065   2.939  1.00  0.00     0.213 HD
ENDBRANCH   1  27
BRANCH   2  29
HETATM   29  C   UNL     1      40.622 -14.099   3.841  1.00  0.00     0.042 A 
HETATM   30  C   UNL     1      41.999 -13.829   3.912  1.00  0.00     0.030 A 
HETATM   31  C   UNL     1      42.793 -14.336   4.950  1.00  0.00     0.002 A 
HETATM   32  C   UNL     1      42.227 -15.124   5.944  1.00  0.00     0.000 A 
HETATM   33  C   UNL     1      40.868 -15.400   5.905  1.00  0.00     0.002 A 
HETATM   34  C   UNL     1      40.078 -14.890   4.868  1.00  0.00     0.030 A 
ENDBRANCH   2  29
TORSDOF 6
ENDMDL
MODEL 9
REMARK VINA RESULT:      -7.9      3.263      7.651
REMARK  6 active torsions:
REMARK  status: ('A' for Active; 'I' for Inactive)
REMARK    1  A    between atoms: O_2  and  C_3 
REMARK    2  A    between atoms: C_6  and  C_7 
REMARK    3  A    between atoms: C_7  and  N_8 
REMARK       I    between atoms: N_8  and  C_9 
REMARK    4  A    between atoms: C_9  and  C_10 
REMARK    5  A    between atoms: C_10  and  O_11 
REMARK    6  A    between atoms: N_12  and  C_13 
ROOT
HETATM    1  C   UNL     1      40.718 -15.806   2.199  1.00  0.00     0.256 C 
HETATM    2  N   UNL     1      40.526 -15.057   0.943  1.00  0.00    -0.254 N 
HETATM    3  C   UNL     1      41.158 -15.464  -0.224  1.00  0.00     0.330 C 
HETATM    4  O   UNL     1      40.898 -15.064  -1.361  1.00  0.00    -0.246 OA
HETATM    5  N   UNL     1      42.140 -16.397  -0.131  1.00  0.00    -0.308 N 
HETATM    6  C   UNL     1      42.573 -17.016   1.026  1.00  0.00     0.048 A 
HETATM    7  C   UNL     1      41.898 -16.763   2.210  1.00  0.00     0.035 A 
HETATM    8  C   UNL     1      43.659 -17.893   0.975  1.00  0.00     0.031 A 
HETATM    9  C   UNL     1      44.092 -18.531   2.136  1.00  0.00     0.021 A 
HETATM   10  C   UNL     1      43.419 -18.302   3.331  1.00  0.00     0.011 A 
HETATM   11 BR   UNL     1      43.992 -19.162   4.913  1.00  0.00    -0.051 Br
HETATM   12  C   UNL     1      42.323 -17.438   3.372  1.00  0.00     0.034 A 
HETATM   13  H   UNL     1      42.586 -16.610  -1.014  1.00  0.00     0.170 HD
ENDROOT
BRANCH   1  14
HETATM   14  C   UNL     1      40.925 -14.806   3.425  1.00  0.00     0.279 C 
HETATM   15  N   UNL     1      39.861 -14.812   4.318  1.00  0.00    -0.352 N 
HETATM   16  H   UNL     1      39.025 -15.318   4.040  1.00  0.00     0.162 HD
HETATM   17  O   UNL     1      41.946 -14.145   3.609  1.00  0.00    -0.268 OA
BRANCH  15  18
HETATM   18  C   UNL     1      39.861 -14.050   5.540  1.00  0.00     0.161 C 
BRANCH  18  19
HETATM   19  C   UNL     1      39.755 -12.569   5.290  1.00  0.00    -0.040 A 
HETATM   20  C   UNL     1      38.727 -12.044   4.499  1.00  0.00     0.011 A 
HETATM   21  C   UNL     1      38.607 -10.661   4.327  1.00  0.00     0.037 A 
HETATM   22  C   UNL     1      39.504  -9.787   4.944  1.00  0.00     0.068 A 
HETATM   23  C   UNL     1      40.557 -10.307   5.696  1.00  0.00     0.037 A 
HETATM   24  C   UNL     1      40.680 -11.689   5.868  1.00  0.00     0.011 A 
BRANCH  22  25
HETATM   25  O   UNL     1      39.258  -8.458   4.731  1.00  0.00    -0.356 OA
HETATM   26  C   UNL     1      38.177  -7.899   5.470  1.00  0.00     0.210 C 
ENDBRANCH  22  25
ENDBRANCH  18  19
ENDBRANCH  15  18
ENDBRANCH   1  14
BRANCH   1  27
HETATM   27  O   UNL     1      39.569 -16.643   2.365  1.00  0.00    -0.359 OA
HETATM   28  H   UNL     1      38.829 -16.010   2.363  1.00  0.00     0.213 HD
ENDBRANCH   1  27
BRANCH   2  29
HETATM   29  C   UNL     1      39.627 -13.914   0.913  1.00  0.00     0.042 A 
HETATM   30  C   UNL     1      40.091 -12.588   0.880  1.00  0.00     0.030 A 
HETATM   31  C   UNL     1      39.205 -11.502   0.831  1.00  0.00     0.002 A 
HETATM   32  C   UNL     1      37.833 -11.717   0.811  1.00  0.00     0.000 A 
HETATM   33  C   UNL     1      37.346 -13.015   0.835  1.00  0.00     0.002 A 
HETATM   34  C   UNL     1      38.233 -14.097   0.881  1.00  0.00     0.030 A 
ENDBRANCH   2  29
TORSDOF 6
ENDMDL
MODEL 10
REMARK VINA RESULT:      -7.9      3.741      8.128
REMARK  6 active torsions:
REMARK  status: ('A' for Active; 'I' for Inactive)
REMARK    1  A    between atoms: O_2  and  C_3 
REMARK    2  A    between atoms: C_6  and  C_7 
REMARK    3  A    between atoms: C_7  and  N_8 
REMARK       I    between atoms: N_8  and  C_9 
REMARK    4  A    between atoms: C_9  and  C_10 
REMARK    5  A    between atoms: C_10  and  O_11 
REMARK    6  A    between atoms: N_12  and  C_13 
ROOT
HETATM    1  C   UNL     1      43.199 -16.688   3.350  1.00  0.00     0.256 C 
HETATM    2  N   UNL     1      42.928 -15.827   4.516  1.00  0.00    -0.254 N 
HETATM    3  C   UNL     1      43.415 -16.168   5.771  1.00  0.00     0.330 C 
HETATM    4  O   UNL     1      43.451 -15.427   6.755  1.00  0.00    -0.246 OA
HETATM    5  N   UNL     1      43.919 -17.417   5.948  1.00  0.00    -0.308 N 
HETATM    6  C   UNL     1      44.020 -18.401   4.983  1.00  0.00     0.048 A 
HETATM    7  C   UNL     1      43.682 -18.091   3.676  1.00  0.00     0.035 A 
HETATM    8  C   UNL     1      44.479 -19.672   5.340  1.00  0.00     0.031 A 
HETATM    9  C   UNL     1      44.597 -20.665   4.370  1.00  0.00     0.021 A 
HETATM   10  C   UNL     1      44.277 -20.369   3.049  1.00  0.00     0.011 A 
HETATM   11 BR   UNL     1      44.435 -21.705   1.721  1.00  0.00    -0.051 Br
HETATM   12  C   UNL     1      43.835 -19.093   2.696  1.00  0.00     0.034 A 
HETATM   13  H   UNL     1      44.212 -17.608   6.898  1.00  0.00     0.170 HD
ENDROOT
BRANCH   1  14
HETATM   14  C   UNL     1      41.888 -16.849   2.453  1.00  0.00     0.279 C 
HETATM   15  N   UNL     1      42.045 -16.356   1.165  1.00  0.00    -0.352 N 
HETATM   16  H   UNL     1      42.892 -15.829   0.970  1.00  0.00     0.162 HD
HETATM   17  O   UNL     1      40.862 -17.413   2.831  1.00  0.00    -0.268 OA
BRANCH  15  18
HETATM   18  C   UNL     1      41.024 -16.466   0.156  1.00  0.00     0.161 C 
BRANCH  18  19
HETATM   19  C   UNL     1      41.167 -15.421  -0.918  1.00  0.00    -0.040 A 
HETATM   20  C   UNL     1      41.582 -14.120  -0.607  1.00  0.00     0.011 A 
HETATM   21  C   UNL     1      41.768 -13.178  -1.624  1.00  0.00     0.037 A 
HETATM   22  C   UNL     1      41.550 -13.521  -2.960  1.00  0.00     0.068 A 
HETATM   23  C   UNL     1      41.092 -14.800  -3.271  1.00  0.00     0.037 A 
HETATM   24  C   UNL     1      40.904 -15.743  -2.256  1.00  0.00     0.011 A 
BRANCH  22  25
HETATM   25  O   UNL     1      41.803 -12.524  -3.863  1.00  0.00    -0.356 OA
HETATM   26  C   UNL     1      40.753 -11.583  -4.061  1.00  0.00     0.210 C 
ENDBRANCH  22  25
ENDBRANCH  18  19
ENDBRANCH  15  18
ENDBRANCH   1  14
BRANCH   1  27
HETATM   27  O   UNL     1      44.280 -16.088   2.631  1.00  0.00    -0.359 OA
HETATM   28  H   UNL     1      44.902 -15.832   3.335  1.00  0.00     0.213 HD
ENDBRANCH   1  27
BRANCH   2  29
HETATM   29  C   UNL     1      42.191 -14.585   4.344  1.00  0.00     0.042 A 
HETATM   30  C   UNL     1      42.733 -13.470   3.682  1.00  0.00     0.030 A 
HETATM   31  C   UNL     1      41.996 -12.290   3.509  1.00  0.00     0.002 A 
HETATM   32  C   UNL     1      40.698 -12.198   3.994  1.00  0.00     0.000 A 
HETATM   33  C   UNL     1      40.134 -13.285   4.644  1.00  0.00     0.002 A 
HETATM   34  C   UNL     1      40.871 -14.463   4.812  1.00  0.00     0.030 A 
ENDBRANCH   2  29
TORSDOF 6
ENDMDL
