MODEL 1
REMARK VINA RESULT:      -8.9      0.000      0.000
REMARK  6 active torsions:
REMARK  status: ('A' for Active; 'I' for Inactive)
REMARK    1  A    between atoms: O_2  and  C_3 
REMARK    2  A    between atoms: C_6  and  N_7 
REMARK       I    between atoms: N_7  and  C_8 
REMARK    3  A    between atoms: C_8  and  C_9 
REMARK    4  A    between atoms: C_12  and  N_13 
REMARK       I    between atoms: N_13  and  C_14 
REMARK    5  A    between atoms: C_14  and  C_15 
REMARK       I    between atoms: N_18  and  C_19 
REMARK    6  A    between atoms: C_19  and  C_20 
ROOT
HETATM    1  C   UNL     1      41.153 -14.859   4.826  1.00  0.00     0.032 A 
HETATM    2  C   UNL     1      39.835 -14.397   4.898  1.00  0.00     0.019 A 
HETATM    3  C   UNL     1      39.542 -13.191   5.547  1.00  0.00     0.030 A 
HETATM    4  C   UNL     1      40.557 -12.437   6.138  1.00  0.00     0.034 A 
HETATM    5  C   UNL     1      41.877 -12.899   6.057  1.00  0.00     0.030 A 
HETATM    6  C   UNL     1      42.174 -14.105   5.412  1.00  0.00     0.019 A 
ENDROOT
BRANCH   4   7
HETATM    7  N   UNL     1      40.334 -11.243   6.858  1.00  0.00    -0.327 N 
HETATM    8  C   UNL     1      39.582 -11.084   8.010  1.00  0.00     0.226 C 
HETATM    9  O   UNL     1      38.891 -11.948   8.540  1.00  0.00    -0.273 OA
HETATM   10  H   UNL     1      40.783 -10.416   6.485  1.00  0.00     0.169 HD
BRANCH   8  11
HETATM   11  C   UNL     1      39.666  -9.664   8.585  1.00  0.00     0.081 C 
HETATM   12  C   UNL     1      39.281  -9.625  10.072  1.00  0.00     0.034 C 
HETATM   13  C   UNL     1      40.367 -10.205  10.978  1.00  0.00     0.127 C 
HETATM   14  N   UNL     1      41.671  -9.592  10.714  1.00  0.00    -0.347 N 
HETATM   15  C   UNL     1      42.696  -9.608  11.683  1.00  0.00     0.260 C 
HETATM   16  C   UNL     1      42.099  -9.647   9.321  1.00  0.00     0.127 C 
HETATM   17  O   UNL     1      43.875  -9.708  11.343  1.00  0.00    -0.267 OA
HETATM   18  C   UNL     1      41.054  -9.039   8.389  1.00  0.00     0.034 C 
BRANCH  15  19
HETATM   19  C   UNL     1      42.309  -9.442  13.078  1.00  0.00     0.072 A 
HETATM   20  S   UNL     1      41.588  -7.969  13.576  1.00  0.00    -0.097 SA
HETATM   21  C   UNL     1      41.417  -8.518  15.187  1.00  0.00     0.050 A 
HETATM   22  C   UNL     1      41.873  -9.807  15.344  1.00  0.00     0.009 A 
HETATM   23  C   UNL     1      42.374 -10.347  14.124  1.00  0.00     0.025 A 
ENDBRANCH  15  19
ENDBRANCH   8  11
ENDBRANCH   4   7
BRANCH   1  24
HETATM   24  C   UNL     1      41.485 -16.183   4.224  1.00  0.00     0.256 C 
HETATM   25  N   UNL     1      42.558 -16.836   4.803  1.00  0.00    -0.323 N 
HETATM   26  H   UNL     1      42.883 -16.490   5.697  1.00  0.00     0.169 HD
HETATM   27  O   UNL     1      40.797 -16.587   3.296  1.00  0.00    -0.267 OA
BRANCH  25  28
HETATM   28  C   UNL     1      43.260 -17.942   4.282  1.00  0.00     0.035 A 
HETATM   29  C   UNL     1      43.834 -18.940   5.072  1.00  0.00     0.032 A 
HETATM   30  C   UNL     1      44.438 -20.059   4.485  1.00  0.00     0.039 A 
HETATM   31  C   UNL     1      44.475 -20.193   3.098  1.00  0.00     0.068 A 
HETATM   32  C   UNL     1      43.932 -19.182   2.306  1.00  0.00     0.039 A 
HETATM   33  C   UNL     1      43.322 -18.067   2.891  1.00  0.00     0.032 A 
BRANCH  31  34
HETATM   34  O   UNL     1      45.010 -21.245   2.408  1.00  0.00    -0.356 OA
HETATM   35  C   UNL     1      44.130 -21.933   1.527  1.00  0.00     0.210 C 
ENDBRANCH  31  34
ENDBRANCH  25  28
ENDBRANCH   1  24
TORSDOF 6
ENDMDL
MODEL 2
REMARK VINA RESULT:      -8.3      6.566     10.522
REMARK  6 active torsions:
REMARK  status: ('A' for Active; 'I' for Inactive)
REMARK    1  A    between atoms: O_2  and  C_3 
REMARK    2  A    between atoms: C_6  and  N_7 
REMARK       I    between atoms: N_7  and  C_8 
REMARK    3  A    between atoms: C_8  and  C_9 
REMARK    4  A    between atoms: C_12  and  N_13 
REMARK       I    between atoms: N_13  and  C_14 
REMARK    5  A    between atoms: C_14  and  C_15 
REMARK       I    between atoms: N_18  and  C_19 
REMARK    6  A    between atoms: C_19  and  C_20 
ROOT
HETATM    1  C   UNL     1      40.454 -13.374   0.361  1.00  0.00     0.032 A 
HETATM    2  C   UNL     1      39.300 -13.994   0.852  1.00  0.00     0.019 A 
HETATM    3  C   UNL     1      39.366 -14.821   1.980  1.00  0.00     0.030 A 
HETATM    4  C   UNL     1      40.582 -15.047   2.627  1.00  0.00     0.034 A 
HETATM    5  C   UNL     1      41.734 -14.418   2.137  1.00  0.00     0.030 A 
HETATM    6  C   UNL     1      41.674 -13.593   1.008  1.00  0.00     0.019 A 
ENDROOT
BRANCH   4   7
HETATM    7  N   UNL     1      40.738 -15.911   3.732  1.00  0.00    -0.327 N 
HETATM    8  C   UNL     1      41.014 -15.557   5.042  1.00  0.00     0.226 C 
HETATM    9  O   UNL     1      41.276 -14.427   5.440  1.00  0.00    -0.273 OA
HETATM   10  H   UNL     1      40.628 -16.898   3.536  1.00  0.00     0.169 HD
BRANCH   8  11
HETATM   11  C   UNL     1      40.988 -16.755   6.000  1.00  0.00     0.081 C 
HETATM   12  C   UNL     1      41.003 -18.093   5.244  1.00  0.00     0.034 C 
HETATM   13  C   UNL     1      42.374 -18.420   4.652  1.00  0.00     0.127 C 
HETATM   14  N   UNL     1      43.431 -18.327   5.662  1.00  0.00    -0.347 N 
HETATM   15  C   UNL     1      44.659 -19.003   5.499  1.00  0.00     0.260 C 
HETATM   16  C   UNL     1      43.484 -17.056   6.374  1.00  0.00     0.127 C 
HETATM   17  O   UNL     1      45.707 -18.501   5.907  1.00  0.00    -0.267 OA
HETATM   18  C   UNL     1      42.140 -16.715   7.013  1.00  0.00     0.034 C 
BRANCH  15  19
HETATM   19  C   UNL     1      44.626 -20.327   4.891  1.00  0.00     0.072 A 
HETATM   20  S   UNL     1      44.645 -20.464   3.183  1.00  0.00    -0.097 SA
HETATM   21  C   UNL     1      44.617 -22.173   3.252  1.00  0.00     0.050 A 
HETATM   22  C   UNL     1      44.620 -22.638   4.547  1.00  0.00     0.009 A 
HETATM   23  C   UNL     1      44.641 -21.573   5.495  1.00  0.00     0.025 A 
ENDBRANCH  15  19
ENDBRANCH   8  11
ENDBRANCH   4   7
BRANCH   1  24
HETATM   24  C   UNL     1      40.433 -12.564  -0.891  1.00  0.00     0.256 C 
HETATM   25  N   UNL     1      41.645 -12.476  -1.551  1.00  0.00    -0.323 N 
HETATM   26  H   UNL     1      42.372 -13.122  -1.272  1.00  0.00     0.169 HD
HETATM   27  O   UNL     1      39.373 -12.059  -1.238  1.00  0.00    -0.267 OA
BRANCH  25  28
HETATM   28  C   UNL     1      41.988 -11.574  -2.579  1.00  0.00     0.035 A 
HETATM   29  C   UNL     1      42.059 -11.925  -3.928  1.00  0.00     0.032 A 
HETATM   30  C   UNL     1      42.317 -10.957  -4.907  1.00  0.00     0.039 A 
HETATM   31  C   UNL     1      42.507  -9.624  -4.546  1.00  0.00     0.068 A 
HETATM   32  C   UNL     1      42.471  -9.276  -3.196  1.00  0.00     0.039 A 
HETATM   33  C   UNL     1      42.206 -10.241  -2.219  1.00  0.00     0.032 A 
BRANCH  31  34
HETATM   34  O   UNL     1      42.739  -8.586  -5.406  1.00  0.00    -0.356 OA
HETATM   35  C   UNL     1      41.589  -7.976  -5.980  1.00  0.00     0.210 C 
ENDBRANCH  31  34
ENDBRANCH  25  28
ENDBRANCH   1  24
TORSDOF 6
ENDMDL
MODEL 3
REMARK VINA RESULT:      -8.2      3.561     11.174
REMARK  6 active torsions:
REMARK  status: ('A' for Active; 'I' for Inactive)
REMARK    1  A    between atoms: O_2  and  C_3 
REMARK    2  A    between atoms: C_6  and  N_7 
REMARK       I    between atoms: N_7  and  C_8 
REMARK    3  A    between atoms: C_8  and  C_9 
REMARK    4  A    between atoms: C_12  and  N_13 
REMARK       I    between atoms: N_13  and  C_14 
REMARK    5  A    between atoms: C_14  and  C_15 
REMARK       I    between atoms: N_18  and  C_19 
REMARK    6  A    between atoms: C_19  and  C_20 
ROOT
HETATM    1  C   UNL     1      41.445  -9.816   7.957  1.00  0.00     0.032 A 
HETATM    2  C   UNL     1      41.397  -8.921   6.883  1.00  0.00     0.019 A 
HETATM    3  C   UNL     1      41.368  -9.397   5.567  1.00  0.00     0.030 A 
HETATM    4  C   UNL     1      41.397 -10.767   5.304  1.00  0.00     0.034 A 
HETATM    5  C   UNL     1      41.437 -11.660   6.383  1.00  0.00     0.030 A 
HETATM    6  C   UNL     1      41.469 -11.190   7.700  1.00  0.00     0.019 A 
ENDROOT
BRANCH   4   7
HETATM    7  N   UNL     1      41.428 -11.320   4.006  1.00  0.00    -0.327 N 
HETATM    8  C   UNL     1      40.398 -11.354   3.081  1.00  0.00     0.226 C 
HETATM    9  O   UNL     1      39.242 -10.998   3.283  1.00  0.00    -0.273 OA
HETATM   10  H   UNL     1      42.310 -11.731   3.726  1.00  0.00     0.169 HD
BRANCH   8  11
HETATM   11  C   UNL     1      40.833 -11.924   1.725  1.00  0.00     0.081 C 
HETATM   12  C   UNL     1      42.137 -12.730   1.834  1.00  0.00     0.034 C 
HETATM   13  C   UNL     1      41.932 -14.093   2.496  1.00  0.00     0.127 C 
HETATM   14  N   UNL     1      40.853 -14.845   1.854  1.00  0.00    -0.347 N 
HETATM   15  C   UNL     1      40.777 -16.250   1.962  1.00  0.00     0.260 C 
HETATM   16  C   UNL     1      39.582 -14.135   1.769  1.00  0.00     0.127 C 
HETATM   17  O   UNL     1      39.683 -16.814   2.022  1.00  0.00    -0.267 OA
HETATM   18  C   UNL     1      39.741 -12.784   1.077  1.00  0.00     0.034 C 
BRANCH  15  19
HETATM   19  C   UNL     1      42.027 -16.998   1.936  1.00  0.00     0.072 A 
HETATM   20  S   UNL     1      42.542 -17.816   3.351  1.00  0.00    -0.097 SA
HETATM   21  C   UNL     1      43.942 -18.419   2.575  1.00  0.00     0.050 A 
HETATM   22  C   UNL     1      44.009 -18.032   1.257  1.00  0.00     0.009 A 
HETATM   23  C   UNL     1      42.896 -17.224   0.882  1.00  0.00     0.025 A 
ENDBRANCH  15  19
ENDBRANCH   8  11
ENDBRANCH   4   7
BRANCH   1  24
HETATM   24  C   UNL     1      41.570  -9.341   9.365  1.00  0.00     0.256 C 
HETATM   25  N   UNL     1      42.335 -10.145  10.189  1.00  0.00    -0.323 N 
HETATM   26  H   UNL     1      42.914 -10.846   9.744  1.00  0.00     0.169 HD
HETATM   27  O   UNL     1      41.011  -8.297   9.677  1.00  0.00    -0.267 OA
BRANCH  25  28
HETATM   28  C   UNL     1      42.398 -10.102  11.597  1.00  0.00     0.035 A 
HETATM   29  C   UNL     1      43.408  -9.452  12.309  1.00  0.00     0.032 A 
HETATM   30  C   UNL     1      43.360  -9.371  13.707  1.00  0.00     0.039 A 
HETATM   31  C   UNL     1      42.298  -9.941  14.409  1.00  0.00     0.068 A 
HETATM   32  C   UNL     1      41.306 -10.620  13.703  1.00  0.00     0.039 A 
HETATM   33  C   UNL     1      41.350 -10.695  12.307  1.00  0.00     0.032 A 
BRANCH  31  34
HETATM   34  O   UNL     1      42.125  -9.907  15.764  1.00  0.00    -0.356 OA
HETATM   35  C   UNL     1      41.305  -8.859  16.268  1.00  0.00     0.210 C 
ENDBRANCH  31  34
ENDBRANCH  25  28
ENDBRANCH   1  24
TORSDOF 6
ENDMDL
MODEL 4
REMARK VINA RESULT:      -8.0      4.546     11.590
REMARK  6 active torsions:
REMARK  status: ('A' for Active; 'I' for Inactive)
REMARK    1  A    between atoms: O_2  and  C_3 
REMARK    2  A    between atoms: C_6  and  N_7 
REMARK       I    between atoms: N_7  and  C_8 
REMARK    3  A    between atoms: C_8  and  C_9 
REMARK    4  A    between atoms: C_12  and  N_13 
REMARK       I    between atoms: N_13  and  C_14 
REMARK    5  A    between atoms: C_14  and  C_15 
REMARK       I    between atoms: N_18  and  C_19 
REMARK    6  A    between atoms: C_19  and  C_20 
ROOT
HETATM    1  C   UNL     1      44.035 -12.867   7.679  1.00  0.00     0.032 A 
HETATM    2  C   UNL     1      44.709 -14.090   7.594  1.00  0.00     0.019 A 
HETATM    3  C   UNL     1      44.412 -14.991   6.564  1.00  0.00     0.030 A 
HETATM    4  C   UNL     1      43.435 -14.690   5.614  1.00  0.00     0.034 A 
HETATM    5  C   UNL     1      42.768 -13.461   5.698  1.00  0.00     0.030 A 
HETATM    6  C   UNL     1      43.059 -12.558   6.726  1.00  0.00     0.019 A 
ENDROOT
BRANCH   4   7
HETATM    7  N   UNL     1      43.041 -15.569   4.583  1.00  0.00    -0.327 N 
HETATM    8  C   UNL     1      41.764 -16.037   4.320  1.00  0.00     0.226 C 
HETATM    9  O   UNL     1      40.772 -15.843   5.015  1.00  0.00    -0.273 OA
HETATM   10  H   UNL     1      43.781 -15.884   3.967  1.00  0.00     0.169 HD
BRANCH   8  11
HETATM   11  C   UNL     1      41.690 -16.878   3.039  1.00  0.00     0.081 C 
HETATM   12  C   UNL     1      40.347 -16.702   2.314  1.00  0.00     0.034 C 
HETATM   13  C   UNL     1      40.237 -15.354   1.599  1.00  0.00     0.127 C 
HETATM   14  N   UNL     1      41.388 -15.114   0.727  1.00  0.00    -0.347 N 
HETATM   15  C   UNL     1      41.311 -14.206  -0.351  1.00  0.00     0.260 C 
HETATM   16  C   UNL     1      42.684 -15.226   1.384  1.00  0.00     0.127 C 
HETATM   17  O   UNL     1      42.289 -13.528  -0.668  1.00  0.00    -0.267 OA
HETATM   18  C   UNL     1      42.846 -16.577   2.077  1.00  0.00     0.034 C 
BRANCH  15  19
HETATM   19  C   UNL     1      40.062 -14.152  -1.100  1.00  0.00     0.072 A 
HETATM   20  S   UNL     1      39.943 -14.993  -2.589  1.00  0.00    -0.097 SA
HETATM   21  C   UNL     1      38.318 -14.506  -2.811  1.00  0.00     0.050 A 
HETATM   22  C   UNL     1      37.860 -13.740  -1.764  1.00  0.00     0.009 A 
HETATM   23  C   UNL     1      38.862 -13.547  -0.768  1.00  0.00     0.025 A 
ENDBRANCH  15  19
ENDBRANCH   8  11
ENDBRANCH   4   7
BRANCH   1  24
HETATM   24  C   UNL     1      44.262 -11.927   8.814  1.00  0.00     0.256 C 
HETATM   25  N   UNL     1      43.224 -11.848   9.725  1.00  0.00    -0.323 N 
HETATM   26  H   UNL     1      42.513 -12.567   9.680  1.00  0.00     0.169 HD
HETATM   27  O   UNL     1      45.324 -11.321   8.862  1.00  0.00    -0.267 OA
BRANCH  25  28
HETATM   28  C   UNL     1      43.040 -10.866  10.719  1.00  0.00     0.035 A 
HETATM   29  C   UNL     1      43.695 -10.876  11.951  1.00  0.00     0.032 A 
HETATM   30  C   UNL     1      43.534  -9.819  12.857  1.00  0.00     0.039 A 
HETATM   31  C   UNL     1      42.715  -8.737  12.537  1.00  0.00     0.068 A 
HETATM   32  C   UNL     1      42.034  -8.740  11.321  1.00  0.00     0.039 A 
HETATM   33  C   UNL     1      42.199  -9.792  10.414  1.00  0.00     0.032 A 
BRANCH  31  34
HETATM   34  O   UNL     1      42.499  -7.638  13.321  1.00  0.00    -0.356 OA
HETATM   35  C   UNL     1      41.716  -7.843  14.491  1.00  0.00     0.210 C 
ENDBRANCH  31  34
ENDBRANCH  25  28
ENDBRANCH   1  24
TORSDOF 6
ENDMDL
MODEL 5
REMARK VINA RESULT:      -8.0      4.865     11.744
REMARK  6 active torsions:
REMARK  status: ('A' for Active; 'I' for Inactive)
REMARK    1  A    between atoms: O_2  and  C_3 
REMARK    2  A    between atoms: C_6  and  N_7 
REMARK       I    between atoms: N_7  and  C_8 
REMARK    3  A    between atoms: C_8  and  C_9 
REMARK    4  A    between atoms: C_12  and  N_13 
REMARK       I    between atoms: N_13  and  C_14 
REMARK    5  A    between atoms: C_14  and  C_15 
REMARK       I    between atoms: N_18  and  C_19 
REMARK    6  A    between atoms: C_19  and  C_20 
ROOT
HETATM    1  C   UNL     1      40.634 -11.261   7.098  1.00  0.00     0.032 A 
HETATM    2  C   UNL     1      41.446 -11.226   5.960  1.00  0.00     0.019 A 
HETATM    3  C   UNL     1      41.184 -12.075   4.877  1.00  0.00     0.030 A 
HETATM    4  C   UNL     1      40.117 -12.974   4.919  1.00  0.00     0.034 A 
HETATM    5  C   UNL     1      39.302 -13.001   6.058  1.00  0.00     0.030 A 
HETATM    6  C   UNL     1      39.561 -12.157   7.144  1.00  0.00     0.019 A 
ENDROOT
BRANCH   4   7
HETATM    7  N   UNL     1      39.825 -13.898   3.893  1.00  0.00    -0.327 N 
HETATM    8  C   UNL     1      40.630 -14.928   3.436  1.00  0.00     0.226 C 
HETATM    9  O   UNL     1      41.789 -15.139   3.780  1.00  0.00    -0.273 OA
HETATM   10  H   UNL     1      38.919 -13.793   3.453  1.00  0.00     0.169 HD
BRANCH   8  11
HETATM   11  C   UNL     1      39.932 -15.811   2.394  1.00  0.00     0.081 C 
HETATM   12  C   UNL     1      38.798 -15.063   1.676  1.00  0.00     0.034 C 
HETATM   13  C   UNL     1      39.316 -14.041   0.664  1.00  0.00     0.127 C 
HETATM   14  N   UNL     1      40.276 -14.642  -0.265  1.00  0.00    -0.347 N 
HETATM   15  C   UNL     1      40.534 -14.063  -1.526  1.00  0.00     0.260 C 
HETATM   16  C   UNL     1      41.395 -15.325   0.373  1.00  0.00     0.127 C 
HETATM   17  O   UNL     1      41.663 -14.110  -2.015  1.00  0.00    -0.267 OA
HETATM   18  C   UNL     1      40.915 -16.383   1.363  1.00  0.00     0.034 C 
BRANCH  15  19
HETATM   19  C   UNL     1      39.410 -13.471  -2.240  1.00  0.00     0.072 A 
HETATM   20  S   UNL     1      39.339 -11.768  -2.423  1.00  0.00    -0.097 SA
HETATM   21  C   UNL     1      37.880 -11.857  -3.311  1.00  0.00     0.050 A 
HETATM   22  C   UNL     1      37.463 -13.156  -3.492  1.00  0.00     0.009 A 
HETATM   23  C   UNL     1      38.354 -14.090  -2.887  1.00  0.00     0.025 A 
ENDBRANCH  15  19
ENDBRANCH   8  11
ENDBRANCH   4   7
BRANCH   1  24
HETATM   24  C   UNL     1      40.942 -10.438   8.303  1.00  0.00     0.256 C 
HETATM   25  N   UNL     1      41.741 -11.057   9.246  1.00  0.00    -0.323 N 
HETATM   26  H   UNL     1      42.224 -11.900   8.963  1.00  0.00     0.169 HD
HETATM   27  O   UNL     1      40.486  -9.303   8.362  1.00  0.00    -0.267 OA
BRANCH  25  28
HETATM   28  C   UNL     1      41.961 -10.643  10.576  1.00  0.00     0.035 A 
HETATM   29  C   UNL     1      40.967 -10.612  11.554  1.00  0.00     0.032 A 
HETATM   30  C   UNL     1      41.275 -10.277  12.879  1.00  0.00     0.039 A 
HETATM   31  C   UNL     1      42.586  -9.968  13.240  1.00  0.00     0.068 A 
HETATM   32  C   UNL     1      43.576  -9.965  12.258  1.00  0.00     0.039 A 
HETATM   33  C   UNL     1      43.270 -10.307  10.936  1.00  0.00     0.032 A 
BRANCH  31  34
HETATM   34  O   UNL     1      43.017  -9.653  14.498  1.00  0.00    -0.356 OA
HETATM   35  C   UNL     1      42.029  -9.659  15.523  1.00  0.00     0.210 C 
ENDBRANCH  31  34
ENDBRANCH  25  28
ENDBRANCH   1  24
TORSDOF 6
ENDMDL
MODEL 6
REMARK VINA RESULT:      -7.7      7.836      8.974
REMARK  6 active torsions:
REMARK  status: ('A' for Active; 'I' for Inactive)
REMARK    1  A    between atoms: O_2  and  C_3 
REMARK    2  A    between atoms: C_6  and  N_7 
REMARK       I    between atoms: N_7  and  C_8 
REMARK    3  A    between atoms: C_8  and  C_9 
REMARK    4  A    between atoms: C_12  and  N_13 
REMARK       I    between atoms: N_13  and  C_14 
REMARK    5  A    between atoms: C_14  and  C_15 
REMARK       I    between atoms: N_18  and  C_19 
REMARK    6  A    between atoms: C_19  and  C_20 
ROOT
HETATM    1  C   UNL     1      40.414 -15.906   1.268  1.00  0.00     0.032 A 
HETATM    2  C   UNL     1      40.777 -15.231   0.098  1.00  0.00     0.019 A 
HETATM    3  C   UNL     1      40.058 -14.105  -0.323  1.00  0.00     0.030 A 
HETATM    4  C   UNL     1      38.964 -13.645   0.411  1.00  0.00     0.034 A 
HETATM    5  C   UNL     1      38.607 -14.319   1.587  1.00  0.00     0.030 A 
HETATM    6  C   UNL     1      39.321 -15.446   2.010  1.00  0.00     0.019 A 
ENDROOT
BRANCH   4   7
HETATM    7  N   UNL     1      38.156 -12.554   0.022  1.00  0.00    -0.327 N 
HETATM    8  C   UNL     1      38.377 -11.211   0.279  1.00  0.00     0.226 C 
HETATM    9  O   UNL     1      39.267 -10.754   0.988  1.00  0.00    -0.273 OA
HETATM   10  H   UNL     1      37.328 -12.791  -0.510  1.00  0.00     0.169 HD
BRANCH   8  11
HETATM   11  C   UNL     1      37.353 -10.298  -0.408  1.00  0.00     0.081 C 
HETATM   12  C   UNL     1      35.985 -10.981  -0.557  1.00  0.00     0.034 C 
HETATM   13  C   UNL     1      35.224 -11.069   0.767  1.00  0.00     0.127 C 
HETATM   14  N   UNL     1      35.138  -9.763   1.424  1.00  0.00    -0.347 N 
HETATM   15  C   UNL     1      34.134  -9.490   2.378  1.00  0.00     0.260 C 
HETATM   16  C   UNL     1      36.419  -9.097   1.627  1.00  0.00     0.127 C 
HETATM   17  O   UNL     1      34.370  -8.760   3.341  1.00  0.00    -0.267 OA
HETATM   18  C   UNL     1      37.191  -8.956   0.318  1.00  0.00     0.034 C 
BRANCH  15  19
HETATM   19  C   UNL     1      32.809 -10.050   2.143  1.00  0.00     0.072 A 
HETATM   20  S   UNL     1      31.926  -9.556   0.759  1.00  0.00    -0.097 SA
HETATM   21  C   UNL     1      30.615 -10.584   1.146  1.00  0.00     0.050 A 
HETATM   22  C   UNL     1      30.849 -11.312   2.291  1.00  0.00     0.009 A 
HETATM   23  C   UNL     1      32.122 -11.016   2.859  1.00  0.00     0.025 A 
ENDBRANCH  15  19
ENDBRANCH   8  11
ENDBRANCH   4   7
BRANCH   1  24
HETATM   24  C   UNL     1      41.100 -17.160   1.692  1.00  0.00     0.256 C 
HETATM   25  N   UNL     1      41.754 -17.087   2.908  1.00  0.00    -0.323 N 
HETATM   26  H   UNL     1      41.541 -16.296   3.501  1.00  0.00     0.169 HD
HETATM   27  O   UNL     1      41.027 -18.138   0.959  1.00  0.00    -0.267 OA
BRANCH  25  28
HETATM   28  C   UNL     1      42.698 -18.000   3.420  1.00  0.00     0.035 A 
HETATM   29  C   UNL     1      42.862 -18.266   4.780  1.00  0.00     0.032 A 
HETATM   30  C   UNL     1      43.757 -19.253   5.215  1.00  0.00     0.039 A 
HETATM   31  C   UNL     1      44.499 -19.986   4.290  1.00  0.00     0.068 A 
HETATM   32  C   UNL     1      44.362 -19.699   2.932  1.00  0.00     0.039 A 
HETATM   33  C   UNL     1      43.464 -18.719   2.497  1.00  0.00     0.032 A 
BRANCH  31  34
HETATM   34  O   UNL     1      45.381 -20.988   4.584  1.00  0.00    -0.356 OA
HETATM   35  C   UNL     1      44.812 -22.239   4.955  1.00  0.00     0.210 C 
ENDBRANCH  31  34
ENDBRANCH  25  28
ENDBRANCH   1  24
TORSDOF 6
ENDMDL
MODEL 7
REMARK VINA RESULT:      -7.5      8.291     11.469
REMARK  6 active torsions:
REMARK  status: ('A' for Active; 'I' for Inactive)
REMARK    1  A    between atoms: O_2  and  C_3 
REMARK    2  A    between atoms: C_6  and  N_7 
REMARK       I    between atoms: N_7  and  C_8 
REMARK    3  A    between atoms: C_8  and  C_9 
REMARK    4  A    between atoms: C_12  and  N_13 
REMARK       I    between atoms: N_13  and  C_14 
REMARK    5  A    between atoms: C_14  and  C_15 
REMARK       I    between atoms: N_18  and  C_19 
REMARK    6  A    between atoms: C_19  and  C_20 
ROOT
HETATM    1  C   UNL     1      40.850 -15.847   1.529  1.00  0.00     0.032 A 
HETATM    2  C   UNL     1      39.634 -15.184   1.728  1.00  0.00     0.019 A 
HETATM    3  C   UNL     1      39.154 -14.283   0.770  1.00  0.00     0.030 A 
HETATM    4  C   UNL     1      39.883 -14.023  -0.392  1.00  0.00     0.034 A 
HETATM    5  C   UNL     1      41.097 -14.694  -0.591  1.00  0.00     0.030 A 
HETATM    6  C   UNL     1      41.582 -15.595   0.365  1.00  0.00     0.019 A 
ENDROOT
BRANCH   4   7
HETATM    7  N   UNL     1      39.494 -13.087  -1.373  1.00  0.00    -0.327 N 
HETATM    8  C   UNL     1      38.773 -13.333  -2.530  1.00  0.00     0.226 C 
HETATM    9  O   UNL     1      38.442 -14.438  -2.948  1.00  0.00    -0.273 OA
HETATM   10  H   UNL     1      39.773 -12.129  -1.201  1.00  0.00     0.169 HD
BRANCH   8  11
HETATM   11  C   UNL     1      38.425 -12.051  -3.298  1.00  0.00     0.081 C 
HETATM   12  C   UNL     1      37.274 -12.274  -4.292  1.00  0.00     0.034 C 
HETATM   13  C   UNL     1      35.915 -12.393  -3.601  1.00  0.00     0.127 C 
HETATM   14  N   UNL     1      35.673 -11.268  -2.695  1.00  0.00    -0.347 N 
HETATM   15  C   UNL     1      34.363 -10.908  -2.310  1.00  0.00     0.260 C 
HETATM   16  C   UNL     1      36.720 -11.048  -1.704  1.00  0.00     0.127 C 
HETATM   17  O   UNL     1      34.141 -10.475  -1.179  1.00  0.00    -0.267 OA
HETATM   18  C   UNL     1      38.087 -10.884  -2.361  1.00  0.00     0.034 C 
BRANCH  15  19
HETATM   19  C   UNL     1      33.312 -11.011  -3.315  1.00  0.00     0.072 A 
HETATM   20  S   UNL     1      33.282  -9.890  -4.611  1.00  0.00    -0.097 SA
HETATM   21  C   UNL     1      31.902 -10.625  -5.304  1.00  0.00     0.050 A 
HETATM   22  C   UNL     1      31.482 -11.719  -4.582  1.00  0.00     0.009 A 
HETATM   23  C   UNL     1      32.305 -11.952  -3.442  1.00  0.00     0.025 A 
ENDBRANCH  15  19
ENDBRANCH   8  11
ENDBRANCH   4   7
BRANCH   1  24
HETATM   24  C   UNL     1      41.432 -16.741   2.571  1.00  0.00     0.256 C 
HETATM   25  N   UNL     1      42.756 -17.085   2.373  1.00  0.00    -0.323 N 
HETATM   26  H   UNL     1      43.277 -16.550   1.690  1.00  0.00     0.169 HD
HETATM   27  O   UNL     1      40.718 -17.086   3.504  1.00  0.00    -0.267 OA
BRANCH  25  28
HETATM   28  C   UNL     1      43.472 -18.113   3.021  1.00  0.00     0.035 A 
HETATM   29  C   UNL     1      43.919 -18.034   4.341  1.00  0.00     0.032 A 
HETATM   30  C   UNL     1      44.545 -19.129   4.951  1.00  0.00     0.039 A 
HETATM   31  C   UNL     1      44.732 -20.317   4.246  1.00  0.00     0.068 A 
HETATM   32  C   UNL     1      44.317 -20.387   2.916  1.00  0.00     0.039 A 
HETATM   33  C   UNL     1      43.686 -19.297   2.308  1.00  0.00     0.032 A 
BRANCH  31  34
HETATM   34  O   UNL     1      45.302 -21.458   4.735  1.00  0.00    -0.356 OA
HETATM   35  C   UNL     1      44.718 -22.685   4.314  1.00  0.00     0.210 C 
ENDBRANCH  31  34
ENDBRANCH  25  28
ENDBRANCH   1  24
TORSDOF 6
ENDMDL
MODEL 8
REMARK VINA RESULT:      -7.4      7.975     11.253
REMARK  6 active torsions:
REMARK  status: ('A' for Active; 'I' for Inactive)
REMARK    1  A    between atoms: O_2  and  C_3 
REMARK    2  A    between atoms: C_6  and  N_7 
REMARK       I    between atoms: N_7  and  C_8 
REMARK    3  A    between atoms: C_8  and  C_9 
REMARK    4  A    between atoms: C_12  and  N_13 
REMARK       I    between atoms: N_13  and  C_14 
REMARK    5  A    between atoms: C_14  and  C_15 
REMARK       I    between atoms: N_18  and  C_19 
REMARK    6  A    between atoms: C_19  and  C_20 
ROOT
HETATM    1  C   UNL     1      41.649 -14.996   2.022  1.00  0.00     0.032 A 
HETATM    2  C   UNL     1      41.956 -13.921   2.862  1.00  0.00     0.019 A 
HETATM    3  C   UNL     1      41.961 -12.612   2.364  1.00  0.00     0.030 A 
HETATM    4  C   UNL     1      41.669 -12.360   1.023  1.00  0.00     0.034 A 
HETATM    5  C   UNL     1      41.354 -13.439   0.186  1.00  0.00     0.030 A 
HETATM    6  C   UNL     1      41.351 -14.748   0.678  1.00  0.00     0.019 A 
ENDROOT
BRANCH   4   7
HETATM    7  N   UNL     1      41.709 -11.077   0.436  1.00  0.00    -0.327 N 
HETATM    8  C   UNL     1      42.629 -10.603  -0.485  1.00  0.00     0.226 C 
HETATM    9  O   UNL     1      43.634 -11.195  -0.865  1.00  0.00    -0.273 OA
HETATM   10  H   UNL     1      40.975 -10.441   0.721  1.00  0.00     0.169 HD
BRANCH   8  11
HETATM   11  C   UNL     1      42.287  -9.199  -1.000  1.00  0.00     0.081 C 
HETATM   12  C   UNL     1      43.012  -8.879  -2.316  1.00  0.00     0.034 C 
HETATM   13  C   UNL     1      42.411  -9.614  -3.514  1.00  0.00     0.127 C 
HETATM   14  N   UNL     1      40.963  -9.408  -3.600  1.00  0.00    -0.347 N 
HETATM   15  C   UNL     1      40.271  -9.580  -4.817  1.00  0.00     0.260 C 
HETATM   16  C   UNL     1      40.227  -9.743  -2.386  1.00  0.00     0.127 C 
HETATM   17  O   UNL     1      39.125 -10.031  -4.826  1.00  0.00    -0.267 OA
HETATM   18  C   UNL     1      40.776  -8.995  -1.174  1.00  0.00     0.034 C 
BRANCH  15  19
HETATM   19  C   UNL     1      40.938  -9.149  -6.040  1.00  0.00     0.072 A 
HETATM   20  S   UNL     1      41.163  -7.474  -6.323  1.00  0.00    -0.097 SA
HETATM   21  C   UNL     1      41.966  -7.764  -7.806  1.00  0.00     0.050 A 
HETATM   22  C   UNL     1      42.087  -9.108  -8.073  1.00  0.00     0.009 A 
HETATM   23  C   UNL     1      41.507  -9.910  -7.047  1.00  0.00     0.025 A 
ENDBRANCH  15  19
ENDBRANCH   8  11
ENDBRANCH   4   7
BRANCH   1  24
HETATM   24  C   UNL     1      41.726 -16.407   2.498  1.00  0.00     0.256 C 
HETATM   25  N   UNL     1      43.005 -16.874   2.740  1.00  0.00    -0.323 N 
HETATM   26  H   UNL     1      43.747 -16.188   2.791  1.00  0.00     0.169 HD
HETATM   27  O   UNL     1      40.681 -17.027   2.647  1.00  0.00    -0.267 OA
BRANCH  25  28
HETATM   28  C   UNL     1      43.399 -18.215   2.923  1.00  0.00     0.035 A 
HETATM   29  C   UNL     1      43.372 -19.177   1.912  1.00  0.00     0.032 A 
HETATM   30  C   UNL     1      43.864 -20.469   2.140  1.00  0.00     0.039 A 
HETATM   31  C   UNL     1      44.389 -20.813   3.385  1.00  0.00     0.068 A 
HETATM   32  C   UNL     1      44.385 -19.864   4.407  1.00  0.00     0.039 A 
HETATM   33  C   UNL     1      43.901 -18.572   4.178  1.00  0.00     0.032 A 
BRANCH  31  34
HETATM   34  O   UNL     1      44.920 -22.027   3.722  1.00  0.00    -0.356 OA
HETATM   35  C   UNL     1      45.107 -22.268   5.112  1.00  0.00     0.210 C 
ENDBRANCH  31  34
ENDBRANCH  25  28
ENDBRANCH   1  24
TORSDOF 6
ENDMDL
MODEL 9
REMARK VINA RESULT:      -7.4      3.288     11.186
REMARK  6 active torsions:
REMARK  status: ('A' for Active; 'I' for Inactive)
REMARK    1  A    between atoms: O_2  and  C_3 
REMARK    2  A    between atoms: C_6  and  N_7 
REMARK       I    between atoms: N_7  and  C_8 
REMARK    3  A    between atoms: C_8  and  C_9 
REMARK    4  A    between atoms: C_12  and  N_13 
REMARK       I    between atoms: N_13  and  C_14 
REMARK    5  A    between atoms: C_14  and  C_15 
REMARK       I    between atoms: N_18  and  C_19 
REMARK    6  A    between atoms: C_19  and  C_20 
ROOT
HETATM    1  C   UNL     1      41.030 -10.307   7.255  1.00  0.00     0.032 A 
HETATM    2  C   UNL     1      41.468  -9.865   6.002  1.00  0.00     0.019 A 
HETATM    3  C   UNL     1      41.346 -10.690   4.878  1.00  0.00     0.030 A 
HETATM    4  C   UNL     1      40.796 -11.968   4.989  1.00  0.00     0.034 A 
HETATM    5  C   UNL     1      40.352 -12.405   6.244  1.00  0.00     0.030 A 
HETATM    6  C   UNL     1      40.474 -11.584   7.371  1.00  0.00     0.019 A 
ENDROOT
BRANCH   4   7
HETATM    7  N   UNL     1      40.692 -12.878   3.915  1.00  0.00    -0.327 N 
HETATM    8  C   UNL     1      41.639 -13.134   2.937  1.00  0.00     0.226 C 
HETATM    9  O   UNL     1      42.692 -12.526   2.782  1.00  0.00    -0.273 OA
HETATM   10  H   UNL     1      39.827 -13.402   3.866  1.00  0.00     0.169 HD
BRANCH   8  11
HETATM   11  C   UNL     1      41.232 -14.280   2.001  1.00  0.00     0.081 C 
HETATM   12  C   UNL     1      42.433 -15.156   1.613  1.00  0.00     0.034 C 
HETATM   13  C   UNL     1      42.890 -16.066   2.754  1.00  0.00     0.127 C 
HETATM   14  N   UNL     1      41.775 -16.842   3.301  1.00  0.00    -0.347 N 
HETATM   15  C   UNL     1      41.998 -18.042   4.010  1.00  0.00     0.260 C 
HETATM   16  C   UNL     1      40.629 -16.046   3.725  1.00  0.00     0.127 C 
HETATM   17  O   UNL     1      41.274 -18.352   4.957  1.00  0.00    -0.267 OA
HETATM   18  C   UNL     1      40.120 -15.152   2.598  1.00  0.00     0.034 C 
BRANCH  15  19
HETATM   19  C   UNL     1      43.066 -18.915   3.540  1.00  0.00     0.072 A 
HETATM   20  S   UNL     1      44.331 -19.343   4.614  1.00  0.00    -0.097 SA
HETATM   21  C   UNL     1      45.096 -20.316   3.434  1.00  0.00     0.050 A 
HETATM   22  C   UNL     1      44.394 -20.341   2.251  1.00  0.00     0.009 A 
HETATM   23  C   UNL     1      43.213 -19.545   2.315  1.00  0.00     0.025 A 
ENDBRANCH  15  19
ENDBRANCH   8  11
ENDBRANCH   4   7
BRANCH   1  24
HETATM   24  C   UNL     1      41.231  -9.490   8.486  1.00  0.00     0.256 C 
HETATM   25  N   UNL     1      41.852 -10.149   9.531  1.00  0.00    -0.323 N 
HETATM   26  H   UNL     1      42.307 -11.027   9.320  1.00  0.00     0.169 HD
HETATM   27  O   UNL     1      40.852  -8.326   8.478  1.00  0.00    -0.267 OA
BRANCH  25  28
HETATM   28  C   UNL     1      41.921  -9.732  10.876  1.00  0.00     0.035 A 
HETATM   29  C   UNL     1      40.816  -9.302  11.613  1.00  0.00     0.032 A 
HETATM   30  C   UNL     1      40.940  -8.988  12.973  1.00  0.00     0.039 A 
HETATM   31  C   UNL     1      42.175  -9.102  13.612  1.00  0.00     0.068 A 
HETATM   32  C   UNL     1      43.287  -9.499  12.870  1.00  0.00     0.039 A 
HETATM   33  C   UNL     1      43.162  -9.819  11.514  1.00  0.00     0.032 A 
BRANCH  31  34
HETATM   34  O   UNL     1      42.419  -8.853  14.933  1.00  0.00    -0.356 OA
HETATM   35  C   UNL     1      41.581  -9.525  15.867  1.00  0.00     0.210 C 
ENDBRANCH  31  34
ENDBRANCH  25  28
ENDBRANCH   1  24
TORSDOF 6
ENDMDL
MODEL 10
REMARK VINA RESULT:      -7.3      8.081     11.347
REMARK  6 active torsions:
REMARK  status: ('A' for Active; 'I' for Inactive)
REMARK    1  A    between atoms: O_2  and  C_3 
REMARK    2  A    between atoms: C_6  and  N_7 
REMARK       I    between atoms: N_7  and  C_8 
REMARK    3  A    between atoms: C_8  and  C_9 
REMARK    4  A    between atoms: C_12  and  N_13 
REMARK       I    between atoms: N_13  and  C_14 
REMARK    5  A    between atoms: C_14  and  C_15 
REMARK       I    between atoms: N_18  and  C_19 
REMARK    6  A    between atoms: C_19  and  C_20 
ROOT
HETATM    1  C   UNL     1      41.883 -15.665   1.770  1.00  0.00     0.032 A 
HETATM    2  C   UNL     1      42.224 -14.383   2.214  1.00  0.00     0.019 A 
HETATM    3  C   UNL     1      42.010 -13.270   1.391  1.00  0.00     0.030 A 
HETATM    4  C   UNL     1      41.465 -13.421   0.116  1.00  0.00     0.034 A 
HETATM    5  C   UNL     1      41.118 -14.706  -0.322  1.00  0.00     0.030 A 
HETATM    6  C   UNL     1      41.332 -15.822   0.494  1.00  0.00     0.019 A 
ENDROOT
BRANCH   4   7
HETATM    7  N   UNL     1      41.273 -12.356  -0.791  1.00  0.00    -0.327 N 
HETATM    8  C   UNL     1      41.965 -12.120  -1.967  1.00  0.00     0.226 C 
HETATM    9  O   UNL     1      42.942 -12.747  -2.363  1.00  0.00    -0.273 OA
HETATM   10  H   UNL     1      40.541 -11.700  -0.548  1.00  0.00     0.169 HD
BRANCH   8  11
HETATM   11  C   UNL     1      41.399 -10.936  -2.763  1.00  0.00     0.081 C 
HETATM   12  C   UNL     1      40.780 -11.385  -4.095  1.00  0.00     0.034 C 
HETATM   13  C   UNL     1      39.432 -12.083  -3.911  1.00  0.00     0.127 C 
HETATM   14  N   UNL     1      38.515 -11.277  -3.102  1.00  0.00    -0.347 N 
HETATM   15  C   UNL     1      37.118 -11.467  -3.173  1.00  0.00     0.260 C 
HETATM   16  C   UNL     1      39.045 -10.866  -1.808  1.00  0.00     0.127 C 
HETATM   17  O   UNL     1      36.418 -11.328  -2.170  1.00  0.00    -0.267 OA
HETATM   18  C   UNL     1      40.374 -10.129  -1.955  1.00  0.00     0.034 C 
BRANCH  15  19
HETATM   19  C   UNL     1      36.543 -11.768  -4.478  1.00  0.00     0.072 A 
HETATM   20  S   UNL     1      35.903 -13.332  -4.769  1.00  0.00    -0.097 SA
HETATM   21  C   UNL     1      35.438 -12.919  -6.362  1.00  0.00     0.050 A 
HETATM   22  C   UNL     1      35.736 -11.610  -6.665  1.00  0.00     0.009 A 
HETATM   23  C   UNL     1      36.360 -10.940  -5.572  1.00  0.00     0.025 A 
ENDBRANCH  15  19
ENDBRANCH   8  11
ENDBRANCH   4   7
BRANCH   1  24
HETATM   24  C   UNL     1      42.184 -16.879   2.583  1.00  0.00     0.256 C 
HETATM   25  N   UNL     1      43.257 -17.629   2.140  1.00  0.00    -0.323 N 
HETATM   26  H   UNL     1      43.873 -17.201   1.462  1.00  0.00     0.169 HD
HETATM   27  O   UNL     1      41.485 -17.109   3.561  1.00  0.00    -0.267 OA
BRANCH  25  28
HETATM   28  C   UNL     1      43.594 -18.942   2.529  1.00  0.00     0.035 A 
HETATM   29  C   UNL     1      43.387 -20.066   1.729  1.00  0.00     0.032 A 
HETATM   30  C   UNL     1      43.829 -21.330   2.141  1.00  0.00     0.039 A 
HETATM   31  C   UNL     1      44.485 -21.483   3.362  1.00  0.00     0.068 A 
HETATM   32  C   UNL     1      44.663 -20.367   4.179  1.00  0.00     0.039 A 
HETATM   33  C   UNL     1      44.228 -19.104   3.765  1.00  0.00     0.032 A 
BRANCH  31  34
HETATM   34  O   UNL     1      44.984 -22.653   3.862  1.00  0.00    -0.356 OA
HETATM   35  C   UNL     1      45.145 -22.716   5.275  1.00  0.00     0.210 C 
ENDBRANCH  31  34
ENDBRANCH  25  28
ENDBRANCH   1  24
TORSDOF 6
ENDMDL
