MODEL 1
REMARK VINA RESULT:      -8.3      0.000      0.000
REMARK  8 active torsions:
REMARK  status: ('A' for Active; 'I' for Inactive)
REMARK    1  A    between atoms: N_2  and  C_5 
REMARK    2  A    between atoms: C_5  and  C_6 
REMARK    3  A    between atoms: C_6  and  S_7 
REMARK    4  A    between atoms: S_7  and  C_8 
REMARK    5  A    between atoms: C_10  and  C_25 
REMARK    6  A    between atoms: C_13  and  N_14 
REMARK       I    between atoms: N_14  and  C_15 
REMARK       I    between atoms: C_15  and  N_17 
REMARK    7  A    between atoms: N_17  and  C_18 
REMARK    8  A    between atoms: C_18  and  C_19 
ROOT
HETATM    1  C   UNL     1      42.458 -17.031   3.766  1.00  0.00     0.028 A 
HETATM    2  C   UNL     1      42.852 -18.376   3.784  1.00  0.00     0.033 A 
HETATM    3  C   UNL     1      43.655 -18.903   2.763  1.00  0.00    -0.022 A 
HETATM    4  C   UNL     1      44.062 -18.054   1.726  1.00  0.00     0.014 A 
HETATM    5  C   UNL     1      43.658 -16.713   1.693  1.00  0.00     0.032 A 
HETATM    6  C   UNL     1      42.837 -16.198   2.698  1.00  0.00     0.053 A 
ENDROOT
BRANCH   6   7
HETATM    7  N   UNL     1      42.335 -14.878   2.651  1.00  0.00    -0.308 N 
HETATM    8  C   UNL     1      43.044 -13.744   2.925  1.00  0.00     0.321 C 
HETATM    9  O   UNL     1      44.099 -13.726   3.551  1.00  0.00    -0.247 OA
HETATM   10  N   UNL     1      42.470 -12.573   2.548  1.00  0.00    -0.339 N 
HETATM   11  H   UNL     1      43.101 -11.786   2.656  1.00  0.00     0.164 HD
HETATM   12  H   UNL     1      41.340 -14.791   2.501  1.00  0.00     0.170 HD
BRANCH  10  13
HETATM   13  C   UNL     1      41.377 -12.392   1.612  1.00  0.00     0.162 C 
BRANCH  13  14
HETATM   14  C   UNL     1      41.865 -12.325   0.192  1.00  0.00    -0.040 A 
HETATM   15  C   UNL     1      41.674 -13.413  -0.673  1.00  0.00     0.009 A 
HETATM   16  C   UNL     1      42.120 -13.354  -1.994  1.00  0.00     0.001 A 
HETATM   17  C   UNL     1      42.760 -12.210  -2.467  1.00  0.00     0.000 A 
HETATM   18  C   UNL     1      42.952 -11.121  -1.620  1.00  0.00     0.001 A 
HETATM   19  C   UNL     1      42.502 -11.175  -0.299  1.00  0.00     0.009 A 
ENDBRANCH  13  14
ENDBRANCH  10  13
ENDBRANCH   6   7
BRANCH   1  20
HETATM   20  S   UNL     1      41.616 -16.335   5.194  1.00  0.00    -0.126 SA
BRANCH  20  21
HETATM   21  C   UNL     1      43.013 -16.308   6.390  1.00  0.00     0.107 C 
BRANCH  21  22
HETATM   22  C   UNL     1      42.906 -17.352   7.515  1.00  0.00     0.244 C 
BRANCH  22  23
HETATM   23  N   UNL     1      44.076 -18.318   7.526  1.00  0.00    -0.078 N 
HETATM   24  C   UNL     1      43.678 -19.749   7.304  1.00  0.00     0.269 C 
HETATM   25  H   UNL     1      44.495 -18.251   8.465  1.00  0.00     0.279 HD
HETATM   26  C   UNL     1      45.166 -17.896   6.573  1.00  0.00     0.269 C 
ENDBRANCH  22  23
ENDBRANCH  21  22
ENDBRANCH  20  21
ENDBRANCH   1  20
BRANCH   3  27
HETATM   27  C   UNL     1      44.055 -20.301   2.800  1.00  0.00     0.010 A 
HETATM   28  C   UNL     1      43.939 -21.321   1.824  1.00  0.00     0.152 A 
HETATM   29  N   UNL     1      44.399 -22.499   2.249  1.00  0.00    -0.187 NA
HETATM   30  N   UNL     1      44.844 -22.238   3.488  1.00  0.00    -0.289 N 
HETATM   31  H   UNL     1      45.265 -22.994   4.018  1.00  0.00     0.188 HD
HETATM   32  C   UNL     1      44.645 -20.940   3.870  1.00  0.00     0.123 A 
ENDBRANCH   3  27
TORSDOF 8
ENDMDL
MODEL 2
REMARK VINA RESULT:      -7.8      1.178      1.937
REMARK  8 active torsions:
REMARK  status: ('A' for Active; 'I' for Inactive)
REMARK    1  A    between atoms: N_2  and  C_5 
REMARK    2  A    between atoms: C_5  and  C_6 
REMARK    3  A    between atoms: C_6  and  S_7 
REMARK    4  A    between atoms: S_7  and  C_8 
REMARK    5  A    between atoms: C_10  and  C_25 
REMARK    6  A    between atoms: C_13  and  N_14 
REMARK       I    between atoms: N_14  and  C_15 
REMARK       I    between atoms: C_15  and  N_17 
REMARK    7  A    between atoms: N_17  and  C_18 
REMARK    8  A    between atoms: C_18  and  C_19 
ROOT
HETATM    1  C   UNL     1      42.468 -17.144   3.573  1.00  0.00     0.028 A 
HETATM    2  C   UNL     1      42.873 -18.486   3.603  1.00  0.00     0.033 A 
HETATM    3  C   UNL     1      43.641 -19.027   2.563  1.00  0.00    -0.022 A 
HETATM    4  C   UNL     1      44.001 -18.197   1.495  1.00  0.00     0.014 A 
HETATM    5  C   UNL     1      43.586 -16.860   1.450  1.00  0.00     0.032 A 
HETATM    6  C   UNL     1      42.800 -16.331   2.475  1.00  0.00     0.053 A 
ENDROOT
BRANCH   6   7
HETATM    7  N   UNL     1      42.286 -15.015   2.421  1.00  0.00    -0.308 N 
HETATM    8  C   UNL     1      42.988 -13.873   2.676  1.00  0.00     0.321 C 
HETATM    9  O   UNL     1      44.049 -13.839   3.291  1.00  0.00    -0.247 OA
HETATM   10  N   UNL     1      42.400 -12.710   2.294  1.00  0.00    -0.339 N 
HETATM   11  H   UNL     1      43.026 -11.917   2.389  1.00  0.00     0.164 HD
HETATM   12  H   UNL     1      41.289 -14.938   2.280  1.00  0.00     0.170 HD
BRANCH  10  13
HETATM   13  C   UNL     1      41.296 -12.547   1.368  1.00  0.00     0.162 C 
BRANCH  13  14
HETATM   14  C   UNL     1      41.773 -12.451  -0.055  1.00  0.00    -0.040 A 
HETATM   15  C   UNL     1      42.536 -11.352  -0.472  1.00  0.00     0.009 A 
HETATM   16  C   UNL     1      42.986 -11.261  -1.789  1.00  0.00     0.001 A 
HETATM   17  C   UNL     1      42.681 -12.266  -2.704  1.00  0.00     0.000 A 
HETATM   18  C   UNL     1      41.927 -13.367  -2.302  1.00  0.00     0.001 A 
HETATM   19  C   UNL     1      41.480 -13.463  -0.983  1.00  0.00     0.009 A 
ENDBRANCH  13  14
ENDBRANCH  10  13
ENDBRANCH   6   7
BRANCH   1  20
HETATM   20  S   UNL     1      41.676 -16.425   5.019  1.00  0.00    -0.126 SA
BRANCH  20  21
HETATM   21  C   UNL     1      42.961 -16.786   6.284  1.00  0.00     0.107 C 
BRANCH  21  22
HETATM   22  C   UNL     1      43.354 -15.578   7.152  1.00  0.00     0.244 C 
BRANCH  22  23
HETATM   23  N   UNL     1      43.802 -14.388   6.325  1.00  0.00    -0.078 N 
HETATM   24  C   UNL     1      42.831 -13.243   6.339  1.00  0.00     0.269 C 
HETATM   25  H   UNL     1      43.876 -14.725   5.354  1.00  0.00     0.279 HD
HETATM   26  C   UNL     1      45.193 -13.935   6.695  1.00  0.00     0.269 C 
ENDBRANCH  22  23
ENDBRANCH  21  22
ENDBRANCH  20  21
ENDBRANCH   1  20
BRANCH   3  27
HETATM   27  C   UNL     1      44.052 -20.422   2.614  1.00  0.00     0.010 A 
HETATM   28  C   UNL     1      43.974 -21.444   1.636  1.00  0.00     0.152 A 
HETATM   29  N   UNL     1      44.433 -22.617   2.075  1.00  0.00    -0.187 NA
HETATM   30  N   UNL     1      44.840 -22.350   3.326  1.00  0.00    -0.289 N 
HETATM   31  H   UNL     1      45.253 -23.103   3.868  1.00  0.00     0.188 HD
HETATM   32  C   UNL     1      44.618 -21.055   3.701  1.00  0.00     0.123 A 
ENDBRANCH   3  27
TORSDOF 8
ENDMDL
MODEL 3
REMARK VINA RESULT:      -7.7      3.586      6.526
REMARK  8 active torsions:
REMARK  status: ('A' for Active; 'I' for Inactive)
REMARK    1  A    between atoms: N_2  and  C_5 
REMARK    2  A    between atoms: C_5  and  C_6 
REMARK    3  A    between atoms: C_6  and  S_7 
REMARK    4  A    between atoms: S_7  and  C_8 
REMARK    5  A    between atoms: C_10  and  C_25 
REMARK    6  A    between atoms: C_13  and  N_14 
REMARK       I    between atoms: N_14  and  C_15 
REMARK       I    between atoms: C_15  and  N_17 
REMARK    7  A    between atoms: N_17  and  C_18 
REMARK    8  A    between atoms: C_18  and  C_19 
ROOT
HETATM    1  C   UNL     1      43.720 -16.624   3.613  1.00  0.00     0.028 A 
HETATM    2  C   UNL     1      43.774 -17.869   2.971  1.00  0.00     0.033 A 
HETATM    3  C   UNL     1      43.979 -19.046   3.704  1.00  0.00    -0.022 A 
HETATM    4  C   UNL     1      44.121 -18.953   5.094  1.00  0.00     0.014 A 
HETATM    5  C   UNL     1      44.086 -17.710   5.739  1.00  0.00     0.032 A 
HETATM    6  C   UNL     1      43.907 -16.538   5.004  1.00  0.00     0.053 A 
ENDROOT
BRANCH   6   7
HETATM    7  N   UNL     1      43.956 -15.261   5.607  1.00  0.00    -0.308 N 
HETATM    8  C   UNL     1      42.915 -14.629   6.224  1.00  0.00     0.321 C 
HETATM    9  O   UNL     1      41.736 -14.925   6.063  1.00  0.00    -0.247 OA
HETATM   10  N   UNL     1      43.235 -13.549   6.983  1.00  0.00    -0.339 N 
HETATM   11  H   UNL     1      42.442 -13.210   7.517  1.00  0.00     0.164 HD
HETATM   12  H   UNL     1      44.813 -14.743   5.473  1.00  0.00     0.170 HD
BRANCH  10  13
HETATM   13  C   UNL     1      44.546 -13.186   7.485  1.00  0.00     0.162 C 
BRANCH  13  14
HETATM   14  C   UNL     1      44.454 -12.224   8.638  1.00  0.00    -0.040 A 
HETATM   15  C   UNL     1      45.492 -12.146   9.577  1.00  0.00     0.009 A 
HETATM   16  C   UNL     1      45.415 -11.251  10.645  1.00  0.00     0.001 A 
HETATM   17  C   UNL     1      44.303 -10.425  10.787  1.00  0.00     0.000 A 
HETATM   18  C   UNL     1      43.266 -10.489   9.858  1.00  0.00     0.001 A 
HETATM   19  C   UNL     1      43.343 -11.379   8.786  1.00  0.00     0.009 A 
ENDBRANCH  13  14
ENDBRANCH  10  13
ENDBRANCH   6   7
BRANCH   1  20
HETATM   20  S   UNL     1      43.239 -15.165   2.678  1.00  0.00    -0.126 SA
BRANCH  20  21
HETATM   21  C   UNL     1      42.525 -15.976   1.189  1.00  0.00     0.107 C 
BRANCH  21  22
HETATM   22  C   UNL     1      41.261 -15.292   0.639  1.00  0.00     0.244 C 
BRANCH  22  23
HETATM   23  N   UNL     1      39.992 -15.797   1.299  1.00  0.00    -0.078 N 
HETATM   24  C   UNL     1      40.163 -17.109   2.010  1.00  0.00     0.269 C 
HETATM   25  H   UNL     1      39.310 -15.938   0.540  1.00  0.00     0.279 HD
HETATM   26  C   UNL     1      39.372 -14.759   2.201  1.00  0.00     0.269 C 
ENDBRANCH  22  23
ENDBRANCH  21  22
ENDBRANCH  20  21
ENDBRANCH   1  20
BRANCH   3  27
HETATM   27  C   UNL     1      44.030 -20.328   3.019  1.00  0.00     0.010 A 
HETATM   28  C   UNL     1      44.667 -21.542   3.378  1.00  0.00     0.152 A 
HETATM   29  N   UNL     1      44.509 -22.500   2.463  1.00  0.00    -0.187 NA
HETATM   30  N   UNL     1      43.742 -21.921   1.526  1.00  0.00    -0.289 N 
HETATM   31  H   UNL     1      43.467 -22.473   0.720  1.00  0.00     0.188 HD
HETATM   32  C   UNL     1      43.443 -20.617   1.805  1.00  0.00     0.123 A 
ENDBRANCH   3  27
TORSDOF 8
ENDMDL
MODEL 4
REMARK VINA RESULT:      -7.5      2.970      7.615
REMARK  8 active torsions:
REMARK  status: ('A' for Active; 'I' for Inactive)
REMARK    1  A    between atoms: N_2  and  C_5 
REMARK    2  A    between atoms: C_5  and  C_6 
REMARK    3  A    between atoms: C_6  and  S_7 
REMARK    4  A    between atoms: S_7  and  C_8 
REMARK    5  A    between atoms: C_10  and  C_25 
REMARK    6  A    between atoms: C_13  and  N_14 
REMARK       I    between atoms: N_14  and  C_15 
REMARK       I    between atoms: C_15  and  N_17 
REMARK    7  A    between atoms: N_17  and  C_18 
REMARK    8  A    between atoms: C_18  and  C_19 
ROOT
HETATM    1  C   UNL     1      42.497 -15.057   1.964  1.00  0.00     0.028 A 
HETATM    2  C   UNL     1      41.987 -14.535   0.767  1.00  0.00     0.033 A 
HETATM    3  C   UNL     1      41.376 -15.370  -0.178  1.00  0.00    -0.022 A 
HETATM    4  C   UNL     1      41.280 -16.739   0.102  1.00  0.00     0.014 A 
HETATM    5  C   UNL     1      41.803 -17.270   1.287  1.00  0.00     0.032 A 
HETATM    6  C   UNL     1      42.434 -16.439   2.215  1.00  0.00     0.053 A 
ENDROOT
BRANCH   6   7
HETATM    7  N   UNL     1      43.053 -16.950   3.378  1.00  0.00    -0.308 N 
HETATM    8  C   UNL     1      42.412 -17.524   4.438  1.00  0.00     0.321 C 
HETATM    9  O   UNL     1      41.215 -17.388   4.675  1.00  0.00    -0.247 OA
HETATM   10  N   UNL     1      43.194 -18.203   5.315  1.00  0.00    -0.339 N 
HETATM   11  H   UNL     1      42.645 -18.714   5.999  1.00  0.00     0.164 HD
HETATM   12  H   UNL     1      44.045 -16.776   3.461  1.00  0.00     0.170 HD
BRANCH  10  13
HETATM   13  C   UNL     1      44.549 -18.673   5.102  1.00  0.00     0.162 C 
BRANCH  13  14
HETATM   14  C   UNL     1      44.572 -20.037   4.468  1.00  0.00    -0.040 A 
HETATM   15  C   UNL     1      44.705 -21.184   5.263  1.00  0.00     0.009 A 
HETATM   16  C   UNL     1      44.721 -22.452   4.681  1.00  0.00     0.001 A 
HETATM   17  C   UNL     1      44.603 -22.588   3.299  1.00  0.00     0.000 A 
HETATM   18  C   UNL     1      44.466 -21.458   2.497  1.00  0.00     0.001 A 
HETATM   19  C   UNL     1      44.445 -20.188   3.078  1.00  0.00     0.009 A 
ENDBRANCH  13  14
ENDBRANCH  10  13
ENDBRANCH   6   7
BRANCH   1  20
HETATM   20  S   UNL     1      43.074 -13.936   3.246  1.00  0.00    -0.126 SA
BRANCH  20  21
HETATM   21  C   UNL     1      41.456 -13.303   3.851  1.00  0.00     0.107 C 
BRANCH  21  22
HETATM   22  C   UNL     1      41.554 -12.380   5.078  1.00  0.00     0.244 C 
BRANCH  22  23
HETATM   23  N   UNL     1      40.781 -12.912   6.270  1.00  0.00    -0.078 N 
HETATM   24  C   UNL     1      39.907 -11.885   6.929  1.00  0.00     0.269 C 
HETATM   25  H   UNL     1      41.486 -13.213   6.958  1.00  0.00     0.279 HD
HETATM   26  C   UNL     1      40.004 -14.159   5.928  1.00  0.00     0.269 C 
ENDBRANCH  22  23
ENDBRANCH  21  22
ENDBRANCH  20  21
ENDBRANCH   1  20
BRANCH   3  27
HETATM   27  C   UNL     1      40.852 -14.808  -1.413  1.00  0.00     0.010 A 
HETATM   28  C   UNL     1      40.123 -13.617  -1.650  1.00  0.00     0.152 A 
HETATM   29  N   UNL     1      39.788 -13.461  -2.932  1.00  0.00    -0.187 NA
HETATM   30  N   UNL     1      40.326 -14.532  -3.533  1.00  0.00    -0.289 N 
HETATM   31  H   UNL     1      40.216 -14.627  -4.538  1.00  0.00     0.188 HD
HETATM   32  C   UNL     1      40.958 -15.378  -2.664  1.00  0.00     0.123 A 
ENDBRANCH   3  27
TORSDOF 8
ENDMDL
MODEL 5
REMARK VINA RESULT:      -7.3      2.725      3.961
REMARK  8 active torsions:
REMARK  status: ('A' for Active; 'I' for Inactive)
REMARK    1  A    between atoms: N_2  and  C_5 
REMARK    2  A    between atoms: C_5  and  C_6 
REMARK    3  A    between atoms: C_6  and  S_7 
REMARK    4  A    between atoms: S_7  and  C_8 
REMARK    5  A    between atoms: C_10  and  C_25 
REMARK    6  A    between atoms: C_13  and  N_14 
REMARK       I    between atoms: N_14  and  C_15 
REMARK       I    between atoms: C_15  and  N_17 
REMARK    7  A    between atoms: N_17  and  C_18 
REMARK    8  A    between atoms: C_18  and  C_19 
ROOT
HETATM    1  C   UNL     1      41.470 -16.567   2.189  1.00  0.00     0.028 A 
HETATM    2  C   UNL     1      41.904 -17.402   3.227  1.00  0.00     0.033 A 
HETATM    3  C   UNL     1      43.150 -18.039   3.162  1.00  0.00    -0.022 A 
HETATM    4  C   UNL     1      43.957 -17.818   2.039  1.00  0.00     0.014 A 
HETATM    5  C   UNL     1      43.522 -16.999   0.990  1.00  0.00     0.032 A 
HETATM    6  C   UNL     1      42.269 -16.386   1.047  1.00  0.00     0.053 A 
ENDROOT
BRANCH   6   7
HETATM    7  N   UNL     1      41.759 -15.626  -0.030  1.00  0.00    -0.308 N 
HETATM    8  C   UNL     1      41.891 -14.277  -0.190  1.00  0.00     0.321 C 
HETATM    9  O   UNL     1      42.180 -13.502   0.716  1.00  0.00    -0.247 OA
HETATM   10  N   UNL     1      41.584 -13.786  -1.418  1.00  0.00    -0.339 N 
HETATM   11  H   UNL     1      41.830 -12.806  -1.509  1.00  0.00     0.164 HD
HETATM   12  H   UNL     1      41.161 -16.124  -0.675  1.00  0.00     0.170 HD
BRANCH  10  13
HETATM   13  C   UNL     1      41.458 -14.531  -2.655  1.00  0.00     0.162 C 
BRANCH  13  14
HETATM   14  C   UNL     1      40.020 -14.685  -3.068  1.00  0.00    -0.040 A 
HETATM   15  C   UNL     1      39.623 -15.779  -3.850  1.00  0.00     0.009 A 
HETATM   16  C   UNL     1      38.289 -15.931  -4.230  1.00  0.00     0.001 A 
HETATM   17  C   UNL     1      37.337 -14.994  -3.833  1.00  0.00     0.000 A 
HETATM   18  C   UNL     1      37.717 -13.905  -3.052  1.00  0.00     0.001 A 
HETATM   19  C   UNL     1      39.050 -13.754  -2.666  1.00  0.00     0.009 A 
ENDBRANCH  13  14
ENDBRANCH  10  13
ENDBRANCH   6   7
BRANCH   1  20
HETATM   20  S   UNL     1      39.971 -15.595   2.400  1.00  0.00    -0.126 SA
BRANCH  20  21
HETATM   21  C   UNL     1      40.320 -14.848   4.045  1.00  0.00     0.107 C 
BRANCH  21  22
HETATM   22  C   UNL     1      41.197 -13.585   3.995  1.00  0.00     0.244 C 
BRANCH  22  23
HETATM   23  N   UNL     1      42.510 -13.758   4.734  1.00  0.00    -0.078 N 
HETATM   24  C   UNL     1      42.468 -14.818   5.797  1.00  0.00     0.269 C 
HETATM   25  H   UNL     1      42.700 -12.857   5.196  1.00  0.00     0.279 HD
HETATM   26  C   UNL     1      43.667 -13.971   3.790  1.00  0.00     0.269 C 
ENDBRANCH  22  23
ENDBRANCH  21  22
ENDBRANCH  20  21
ENDBRANCH   1  20
BRANCH   3  27
HETATM   27  C   UNL     1      43.584 -18.901   4.251  1.00  0.00     0.010 A 
HETATM   28  C   UNL     1      44.464 -20.011   4.256  1.00  0.00     0.152 A 
HETATM   29  N   UNL     1      44.587 -20.569   5.462  1.00  0.00    -0.187 NA
HETATM   30  N   UNL     1      43.814 -19.803   6.246  1.00  0.00    -0.289 N 
HETATM   31  H   UNL     1      43.761 -20.026   7.235  1.00  0.00     0.188 HD
HETATM   32  C   UNL     1      43.179 -18.802   5.566  1.00  0.00     0.123 A 
ENDBRANCH   3  27
TORSDOF 8
ENDMDL
MODEL 6
REMARK VINA RESULT:      -7.3      2.083      3.133
REMARK  8 active torsions:
REMARK  status: ('A' for Active; 'I' for Inactive)
REMARK    1  A    between atoms: N_2  and  C_5 
REMARK    2  A    between atoms: C_5  and  C_6 
REMARK    3  A    between atoms: C_6  and  S_7 
REMARK    4  A    between atoms: S_7  and  C_8 
REMARK    5  A    between atoms: C_10  and  C_25 
REMARK    6  A    between atoms: C_13  and  N_14 
REMARK       I    between atoms: N_14  and  C_15 
REMARK       I    between atoms: C_15  and  N_17 
REMARK    7  A    between atoms: N_17  and  C_18 
REMARK    8  A    between atoms: C_18  and  C_19 
ROOT
HETATM    1  C   UNL     1      43.312 -17.064   3.391  1.00  0.00     0.028 A 
HETATM    2  C   UNL     1      43.725 -18.284   3.941  1.00  0.00     0.033 A 
HETATM    3  C   UNL     1      43.924 -19.408   3.128  1.00  0.00    -0.022 A 
HETATM    4  C   UNL     1      43.707 -19.283   1.750  1.00  0.00     0.014 A 
HETATM    5  C   UNL     1      43.276 -18.071   1.196  1.00  0.00     0.032 A 
HETATM    6  C   UNL     1      43.054 -16.961   2.012  1.00  0.00     0.053 A 
ENDROOT
BRANCH   6   7
HETATM    7  N   UNL     1      42.534 -15.750   1.503  1.00  0.00    -0.308 N 
HETATM    8  C   UNL     1      41.214 -15.405   1.457  1.00  0.00     0.321 C 
HETATM    9  O   UNL     1      40.289 -16.206   1.546  1.00  0.00    -0.247 OA
HETATM   10  N   UNL     1      40.945 -14.099   1.201  1.00  0.00    -0.339 N 
HETATM   11  H   UNL     1      39.960 -13.884   1.313  1.00  0.00     0.164 HD
HETATM   12  H   UNL     1      43.200 -15.143   1.046  1.00  0.00     0.170 HD
BRANCH  10  13
HETATM   13  C   UNL     1      41.860 -12.978   1.299  1.00  0.00     0.162 C 
BRANCH  13  14
HETATM   14  C   UNL     1      42.154 -12.380  -0.049  1.00  0.00    -0.040 A 
HETATM   15  C   UNL     1      42.518 -11.030  -0.159  1.00  0.00     0.009 A 
HETATM   16  C   UNL     1      42.798 -10.472  -1.407  1.00  0.00     0.001 A 
HETATM   17  C   UNL     1      42.720 -11.254  -2.557  1.00  0.00     0.000 A 
HETATM   18  C   UNL     1      42.365 -12.597  -2.462  1.00  0.00     0.001 A 
HETATM   19  C   UNL     1      42.089 -13.160  -1.214  1.00  0.00     0.009 A 
ENDBRANCH  13  14
ENDBRANCH  10  13
ENDBRANCH   6   7
BRANCH   1  20
HETATM   20  S   UNL     1      43.278 -15.591   4.423  1.00  0.00    -0.126 SA
BRANCH  20  21
HETATM   21  C   UNL     1      41.605 -15.777   5.167  1.00  0.00     0.107 C 
BRANCH  21  22
HETATM   22  C   UNL     1      40.679 -14.566   4.957  1.00  0.00     0.244 C 
BRANCH  22  23
HETATM   23  N   UNL     1      40.750 -13.574   6.102  1.00  0.00    -0.078 N 
HETATM   24  C   UNL     1      41.873 -12.585   5.975  1.00  0.00     0.269 C 
HETATM   25  H   UNL     1      40.915 -14.130   6.953  1.00  0.00     0.279 HD
HETATM   26  C   UNL     1      39.430 -12.881   6.331  1.00  0.00     0.269 C 
ENDBRANCH  22  23
ENDBRANCH  21  22
ENDBRANCH  20  21
ENDBRANCH   1  20
BRANCH   3  27
HETATM   27  C   UNL     1      44.356 -20.665   3.718  1.00  0.00     0.010 A 
HETATM   28  C   UNL     1      44.817 -20.963   5.024  1.00  0.00     0.152 A 
HETATM   29  N   UNL     1      45.153 -22.245   5.175  1.00  0.00    -0.187 NA
HETATM   30  N   UNL     1      44.880 -22.788   3.979  1.00  0.00    -0.289 N 
HETATM   31  H   UNL     1      45.041 -23.782   3.854  1.00  0.00     0.188 HD
HETATM   32  C   UNL     1      44.417 -21.880   3.068  1.00  0.00     0.123 A 
ENDBRANCH   3  27
TORSDOF 8
ENDMDL
MODEL 7
REMARK VINA RESULT:      -7.3      3.082      7.939
REMARK  8 active torsions:
REMARK  status: ('A' for Active; 'I' for Inactive)
REMARK    1  A    between atoms: N_2  and  C_5 
REMARK    2  A    between atoms: C_5  and  C_6 
REMARK    3  A    between atoms: C_6  and  S_7 
REMARK    4  A    between atoms: S_7  and  C_8 
REMARK    5  A    between atoms: C_10  and  C_25 
REMARK    6  A    between atoms: C_13  and  N_14 
REMARK       I    between atoms: N_14  and  C_15 
REMARK       I    between atoms: C_15  and  N_17 
REMARK    7  A    between atoms: N_17  and  C_18 
REMARK    8  A    between atoms: C_18  and  C_19 
ROOT
HETATM    1  C   UNL     1      41.411 -14.040   2.793  1.00  0.00     0.028 A 
HETATM    2  C   UNL     1      40.653 -12.862   2.756  1.00  0.00     0.033 A 
HETATM    3  C   UNL     1      39.318 -12.880   2.329  1.00  0.00    -0.022 A 
HETATM    4  C   UNL     1      38.755 -14.103   1.944  1.00  0.00     0.014 A 
HETATM    5  C   UNL     1      39.512 -15.281   1.961  1.00  0.00     0.032 A 
HETATM    6  C   UNL     1      40.849 -15.256   2.364  1.00  0.00     0.053 A 
ENDROOT
BRANCH   6   7
HETATM    7  N   UNL     1      41.669 -16.405   2.308  1.00  0.00    -0.308 N 
HETATM    8  C   UNL     1      42.298 -16.884   1.195  1.00  0.00     0.321 C 
HETATM    9  O   UNL     1      41.988 -16.585   0.047  1.00  0.00    -0.247 OA
HETATM   10  N   UNL     1      43.258 -17.820   1.407  1.00  0.00    -0.339 N 
HETATM   11  H   UNL     1      43.775 -18.034   0.560  1.00  0.00     0.164 HD
HETATM   12  H   UNL     1      41.699 -16.964   3.149  1.00  0.00     0.170 HD
BRANCH  10  13
HETATM   13  C   UNL     1      43.924 -18.129   2.657  1.00  0.00     0.162 C 
BRANCH  13  14
HETATM   14  C   UNL     1      44.117 -19.610   2.835  1.00  0.00    -0.040 A 
HETATM   15  C   UNL     1      44.664 -20.114   4.023  1.00  0.00     0.009 A 
HETATM   16  C   UNL     1      44.839 -21.487   4.196  1.00  0.00     0.001 A 
HETATM   17  C   UNL     1      44.468 -22.372   3.186  1.00  0.00     0.000 A 
HETATM   18  C   UNL     1      43.919 -21.886   2.002  1.00  0.00     0.001 A 
HETATM   19  C   UNL     1      43.738 -20.512   1.829  1.00  0.00     0.009 A 
ENDBRANCH  13  14
ENDBRANCH  10  13
ENDBRANCH   6   7
BRANCH   1  20
HETATM   20  S   UNL     1      43.042 -14.022   3.550  1.00  0.00    -0.126 SA
BRANCH  20  21
HETATM   21  C   UNL     1      42.562 -14.200   5.317  1.00  0.00     0.107 C 
BRANCH  21  22
HETATM   22  C   UNL     1      43.159 -15.434   6.015  1.00  0.00     0.244 C 
BRANCH  22  23
HETATM   23  N   UNL     1      42.143 -16.167   6.871  1.00  0.00    -0.078 N 
HETATM   24  C   UNL     1      40.927 -16.614   6.113  1.00  0.00     0.269 C 
HETATM   25  H   UNL     1      41.836 -15.495   7.590  1.00  0.00     0.279 HD
HETATM   26  C   UNL     1      42.766 -17.308   7.636  1.00  0.00     0.269 C 
ENDBRANCH  22  23
ENDBRANCH  21  22
ENDBRANCH  20  21
ENDBRANCH   1  20
BRANCH   3  27
HETATM   27  C   UNL     1      38.548 -11.646   2.300  1.00  0.00     0.010 A 
HETATM   28  C   UNL     1      37.365 -11.313   1.596  1.00  0.00     0.152 A 
HETATM   29  N   UNL     1      36.974 -10.054   1.807  1.00  0.00    -0.187 NA
HETATM   30  N   UNL     1      37.883  -9.581   2.673  1.00  0.00    -0.289 N 
HETATM   31  H   UNL     1      37.782  -8.626   3.002  1.00  0.00     0.188 HD
HETATM   32  C   UNL     1      38.855 -10.490   2.985  1.00  0.00     0.123 A 
ENDBRANCH   3  27
TORSDOF 8
ENDMDL
MODEL 8
REMARK VINA RESULT:      -7.3      1.954      4.723
REMARK  8 active torsions:
REMARK  status: ('A' for Active; 'I' for Inactive)
REMARK    1  A    between atoms: N_2  and  C_5 
REMARK    2  A    between atoms: C_5  and  C_6 
REMARK    3  A    between atoms: C_6  and  S_7 
REMARK    4  A    between atoms: S_7  and  C_8 
REMARK    5  A    between atoms: C_10  and  C_25 
REMARK    6  A    between atoms: C_13  and  N_14 
REMARK       I    between atoms: N_14  and  C_15 
REMARK       I    between atoms: C_15  and  N_17 
REMARK    7  A    between atoms: N_17  and  C_18 
REMARK    8  A    between atoms: C_18  and  C_19 
ROOT
HETATM    1  C   UNL     1      42.136 -16.943   2.710  1.00  0.00     0.028 A 
HETATM    2  C   UNL     1      42.563 -18.243   2.410  1.00  0.00     0.033 A 
HETATM    3  C   UNL     1      43.464 -18.914   3.248  1.00  0.00    -0.022 A 
HETATM    4  C   UNL     1      43.925 -18.259   4.396  1.00  0.00     0.014 A 
HETATM    5  C   UNL     1      43.517 -16.953   4.693  1.00  0.00     0.032 A 
HETATM    6  C   UNL     1      42.639 -16.278   3.843  1.00  0.00     0.053 A 
ENDROOT
BRANCH   6   7
HETATM    7  N   UNL     1      42.275 -14.930   4.060  1.00  0.00    -0.308 N 
HETATM    8  C   UNL     1      42.968 -13.836   3.627  1.00  0.00     0.321 C 
HETATM    9  O   UNL     1      44.144 -13.859   3.278  1.00  0.00    -0.247 OA
HETATM   10  N   UNL     1      42.311 -12.649   3.687  1.00  0.00    -0.339 N 
HETATM   11  H   UNL     1      42.827 -11.905   3.228  1.00  0.00     0.164 HD
HETATM   12  H   UNL     1      41.489 -14.780   4.678  1.00  0.00     0.170 HD
BRANCH  10  13
HETATM   13  C   UNL     1      40.884 -12.441   3.835  1.00  0.00     0.162 C 
BRANCH  13  14
HETATM   14  C   UNL     1      40.211 -12.230   2.507  1.00  0.00    -0.040 A 
HETATM   15  C   UNL     1      40.805 -11.413   1.535  1.00  0.00     0.009 A 
HETATM   16  C   UNL     1      40.188 -11.219   0.299  1.00  0.00     0.001 A 
HETATM   17  C   UNL     1      38.973 -11.840   0.018  1.00  0.00     0.000 A 
HETATM   18  C   UNL     1      38.373 -12.659   0.973  1.00  0.00     0.001 A 
HETATM   19  C   UNL     1      38.991 -12.859   2.209  1.00  0.00     0.009 A 
ENDBRANCH  13  14
ENDBRANCH  10  13
ENDBRANCH   6   7
BRANCH   1  20
HETATM   20  S   UNL     1      40.818 -16.195   1.740  1.00  0.00    -0.126 SA
BRANCH  20  21
HETATM   21  C   UNL     1      41.730 -15.886   0.173  1.00  0.00     0.107 C 
BRANCH  21  22
HETATM   22  C   UNL     1      41.180 -14.715  -0.660  1.00  0.00     0.244 C 
BRANCH  22  23
HETATM   23  N   UNL     1      41.589 -14.795  -2.119  1.00  0.00    -0.078 N 
HETATM   24  C   UNL     1      40.759 -15.752  -2.926  1.00  0.00     0.269 C 
HETATM   25  H   UNL     1      42.560 -15.139  -2.126  1.00  0.00     0.279 HD
HETATM   26  C   UNL     1      41.646 -13.434  -2.765  1.00  0.00     0.269 C 
ENDBRANCH  22  23
ENDBRANCH  21  22
ENDBRANCH  20  21
ENDBRANCH   1  20
BRANCH   3  27
HETATM   27  C   UNL     1      43.894 -20.265   2.920  1.00  0.00     0.010 A 
HETATM   28  C   UNL     1      43.669 -21.050   1.762  1.00  0.00     0.152 A 
HETATM   29  N   UNL     1      44.206 -22.269   1.851  1.00  0.00    -0.187 NA
HETATM   30  N   UNL     1      44.808 -22.264   3.050  1.00  0.00    -0.289 N 
HETATM   31  H   UNL     1      45.312 -23.096   3.339  1.00  0.00     0.188 HD
HETATM   32  C   UNL     1      44.636 -21.093   3.735  1.00  0.00     0.123 A 
ENDBRANCH   3  27
TORSDOF 8
ENDMDL
MODEL 9
REMARK VINA RESULT:      -7.2      2.193      3.026
REMARK  8 active torsions:
REMARK  status: ('A' for Active; 'I' for Inactive)
REMARK    1  A    between atoms: N_2  and  C_5 
REMARK    2  A    between atoms: C_5  and  C_6 
REMARK    3  A    between atoms: C_6  and  S_7 
REMARK    4  A    between atoms: S_7  and  C_8 
REMARK    5  A    between atoms: C_10  and  C_25 
REMARK    6  A    between atoms: C_13  and  N_14 
REMARK       I    between atoms: N_14  and  C_15 
REMARK       I    between atoms: C_15  and  N_17 
REMARK    7  A    between atoms: N_17  and  C_18 
REMARK    8  A    between atoms: C_18  and  C_19 
ROOT
HETATM    1  C   UNL     1      42.677 -16.283   2.931  1.00  0.00     0.028 A 
HETATM    2  C   UNL     1      42.957 -17.303   3.849  1.00  0.00     0.033 A 
HETATM    3  C   UNL     1      43.702 -18.428   3.468  1.00  0.00    -0.022 A 
HETATM    4  C   UNL     1      44.168 -18.507   2.150  1.00  0.00     0.014 A 
HETATM    5  C   UNL     1      43.877 -17.498   1.222  1.00  0.00     0.032 A 
HETATM    6  C   UNL     1      43.113 -16.392   1.598  1.00  0.00     0.053 A 
ENDROOT
BRANCH   6   7
HETATM    7  N   UNL     1      42.723 -15.402   0.669  1.00  0.00    -0.308 N 
HETATM    8  C   UNL     1      41.630 -15.458  -0.147  1.00  0.00     0.321 C 
HETATM    9  O   UNL     1      41.027 -16.491  -0.420  1.00  0.00    -0.247 OA
HETATM   10  N   UNL     1      41.273 -14.295  -0.751  1.00  0.00    -0.339 N 
HETATM   11  H   UNL     1      40.383 -14.373  -1.231  1.00  0.00     0.164 HD
HETATM   12  H   UNL     1      43.375 -14.641   0.537  1.00  0.00     0.170 HD
BRANCH  10  13
HETATM   13  C   UNL     1      41.690 -12.954  -0.390  1.00  0.00     0.162 C 
BRANCH  13  14
HETATM   14  C   UNL     1      42.005 -12.124  -1.604  1.00  0.00    -0.040 A 
HETATM   15  C   UNL     1      42.577 -10.852  -1.462  1.00  0.00     0.009 A 
HETATM   16  C   UNL     1      42.877 -10.080  -2.584  1.00  0.00     0.001 A 
HETATM   17  C   UNL     1      42.610 -10.569  -3.861  1.00  0.00     0.000 A 
HETATM   18  C   UNL     1      42.047 -11.833  -4.018  1.00  0.00     0.001 A 
HETATM   19  C   UNL     1      41.750 -12.610  -2.896  1.00  0.00     0.009 A 
ENDBRANCH  13  14
ENDBRANCH  10  13
ENDBRANCH   6   7
BRANCH   1  20
HETATM   20  S   UNL     1      41.912 -14.759   3.504  1.00  0.00    -0.126 SA
BRANCH  20  21
HETATM   21  C   UNL     1      42.312 -14.871   5.295  1.00  0.00     0.107 C 
BRANCH  21  22
HETATM   22  C   UNL     1      43.283 -13.787   5.797  1.00  0.00     0.244 C 
BRANCH  22  23
HETATM   23  N   UNL     1      44.458 -14.366   6.561  1.00  0.00    -0.078 N 
HETATM   24  C   UNL     1      44.917 -13.508   7.704  1.00  0.00     0.269 C 
HETATM   25  H   UNL     1      45.234 -14.432   5.887  1.00  0.00     0.279 HD
HETATM   26  C   UNL     1      44.199 -15.784   7.006  1.00  0.00     0.269 C 
ENDBRANCH  22  23
ENDBRANCH  21  22
ENDBRANCH  20  21
ENDBRANCH   1  20
BRANCH   3  27
HETATM   27  C   UNL     1      43.983 -19.476   4.437  1.00  0.00     0.010 A 
HETATM   28  C   UNL     1      43.668 -19.569   5.815  1.00  0.00     0.152 A 
HETATM   29  N   UNL     1      44.130 -20.687   6.377  1.00  0.00    -0.187 NA
HETATM   30  N   UNL     1      44.716 -21.336   5.360  1.00  0.00    -0.289 N 
HETATM   31  H   UNL     1      45.134 -22.243   5.543  1.00  0.00     0.188 HD
HETATM   32  C   UNL     1      44.670 -20.644   4.181  1.00  0.00     0.123 A 
ENDBRANCH   3  27
TORSDOF 8
ENDMDL
MODEL 10
REMARK VINA RESULT:      -7.1      2.279      3.506
REMARK  8 active torsions:
REMARK  status: ('A' for Active; 'I' for Inactive)
REMARK    1  A    between atoms: N_2  and  C_5 
REMARK    2  A    between atoms: C_5  and  C_6 
REMARK    3  A    between atoms: C_6  and  S_7 
REMARK    4  A    between atoms: S_7  and  C_8 
REMARK    5  A    between atoms: C_10  and  C_25 
REMARK    6  A    between atoms: C_13  and  N_14 
REMARK       I    between atoms: N_14  and  C_15 
REMARK       I    between atoms: C_15  and  N_17 
REMARK    7  A    between atoms: N_17  and  C_18 
REMARK    8  A    between atoms: C_18  and  C_19 
ROOT
HETATM    1  C   UNL     1      42.774 -17.026   4.195  1.00  0.00     0.028 A 
HETATM    2  C   UNL     1      43.163 -18.372   4.194  1.00  0.00     0.033 A 
HETATM    3  C   UNL     1      43.756 -18.946   3.061  1.00  0.00    -0.022 A 
HETATM    4  C   UNL     1      43.957 -18.144   1.931  1.00  0.00     0.014 A 
HETATM    5  C   UNL     1      43.555 -16.803   1.920  1.00  0.00     0.032 A 
HETATM    6  C   UNL     1      42.941 -16.240   3.041  1.00  0.00     0.053 A 
ENDROOT
BRANCH   6   7
HETATM    7  N   UNL     1      42.440 -14.919   3.036  1.00  0.00    -0.308 N 
HETATM    8  C   UNL     1      43.191 -13.780   3.069  1.00  0.00     0.321 C 
HETATM    9  O   UNL     1      44.364 -13.738   3.428  1.00  0.00    -0.247 OA
HETATM   10  N   UNL     1      42.542 -12.626   2.769  1.00  0.00    -0.339 N 
HETATM   11  H   UNL     1      43.181 -11.841   2.680  1.00  0.00     0.164 HD
HETATM   12  H   UNL     1      41.437 -14.829   3.117  1.00  0.00     0.170 HD
BRANCH  10  13
HETATM   13  C   UNL     1      41.261 -12.485   2.106  1.00  0.00     0.162 C 
BRANCH  13  14
HETATM   14  C   UNL     1      40.303 -11.655   2.915  1.00  0.00    -0.040 A 
HETATM   15  C   UNL     1      38.982 -11.474   2.481  1.00  0.00     0.009 A 
HETATM   16  C   UNL     1      38.088 -10.710   3.231  1.00  0.00     0.001 A 
HETATM   17  C   UNL     1      38.501 -10.120   4.423  1.00  0.00     0.000 A 
HETATM   18  C   UNL     1      39.809 -10.295   4.870  1.00  0.00     0.001 A 
HETATM   19  C   UNL     1      40.704 -11.063   4.123  1.00  0.00     0.009 A 
ENDBRANCH  13  14
ENDBRANCH  10  13
ENDBRANCH   6   7
BRANCH   1  20
HETATM   20  S   UNL     1      42.221 -16.264   5.728  1.00  0.00    -0.126 SA
BRANCH  20  21
HETATM   21  C   UNL     1      43.822 -15.587   6.328  1.00  0.00     0.107 C 
BRANCH  21  22
HETATM   22  C   UNL     1      43.754 -14.125   6.804  1.00  0.00     0.244 C 
BRANCH  22  23
HETATM   23  N   UNL     1      44.974 -13.716   7.606  1.00  0.00    -0.078 N 
HETATM   24  C   UNL     1      46.160 -13.356   6.759  1.00  0.00     0.269 C 
HETATM   25  H   UNL     1      45.231 -14.536   8.175  1.00  0.00     0.279 HD
HETATM   26  C   UNL     1      44.657 -12.628   8.602  1.00  0.00     0.269 C 
ENDBRANCH  22  23
ENDBRANCH  21  22
ENDBRANCH  20  21
ENDBRANCH   1  20
BRANCH   3  27
HETATM   27  C   UNL     1      44.155 -20.345   3.080  1.00  0.00     0.010 A 
HETATM   28  C   UNL     1      44.128 -21.328   2.060  1.00  0.00     0.152 A 
HETATM   29  N   UNL     1      44.553 -22.521   2.478  1.00  0.00    -0.187 NA
HETATM   30  N   UNL     1      44.887 -22.307   3.760  1.00  0.00    -0.289 N 
HETATM   31  H   UNL     1      45.263 -23.084   4.295  1.00  0.00     0.188 HD
HETATM   32  C   UNL     1      44.652 -21.025   4.172  1.00  0.00     0.123 A 
ENDBRANCH   3  27
TORSDOF 8
ENDMDL
