MODEL 1
REMARK VINA RESULT:      -8.3      0.000      0.000
REMARK  6 active torsions:
REMARK  status: ('A' for Active; 'I' for Inactive)
REMARK    1  A    between atoms: C_2  and  C_3 
REMARK    2  A    between atoms: C_2  and  C_9 
REMARK    3  A    between atoms: C_9  and  C_10 
REMARK    4  A    between atoms: C_10  and  C_11 
REMARK       I    between atoms: C_11  and  N_12 
REMARK    5  A    between atoms: N_12  and  C_13 
REMARK    6  A    between atoms: C_20  and  C_21 
REMARK       I    between atoms: C_21  and  N_22 
ROOT
HETATM    1  C   UNL     1      44.055 -17.270   5.577  1.00  0.00     0.035 A 
HETATM    2  C   UNL     1      43.106 -16.594   4.792  1.00  0.00     0.046 A 
HETATM    3  C   UNL     1      42.692 -15.294   5.154  1.00  0.00     0.030 A 
HETATM    4  C   UNL     1      43.239 -14.712   6.290  1.00  0.00     0.063 A 
HETATM    5  N   UNL     1      42.660 -13.477   6.379  1.00  0.00    -0.277 N 
HETATM    6  H   UNL     1      42.827 -12.772   7.088  1.00  0.00     0.189 HD
HETATM    7  N   UNL     1      41.780 -13.203   5.401  1.00  0.00    -0.168 NA
HETATM    8  C   UNL     1      41.789 -14.319   4.637  1.00  0.00     0.156 A 
HETATM    9  C   UNL     1      44.182 -15.354   7.093  1.00  0.00     0.034 A 
HETATM   10  C   UNL     1      44.577 -16.644   6.713  1.00  0.00     0.032 A 
ENDROOT
BRANCH   1  11
HETATM   11  N   UNL     1      44.434 -18.562   5.148  1.00  0.00    -0.327 N 
HETATM   12  C   UNL     1      44.170 -19.765   5.773  1.00  0.00     0.222 C 
HETATM   13  O   UNL     1      43.517 -19.929   6.799  1.00  0.00    -0.273 OA
HETATM   14  H   UNL     1      44.942 -18.602   4.272  1.00  0.00     0.169 HD
BRANCH  12  15
HETATM   15  C   UNL     1      44.791 -20.955   5.059  1.00  0.00     0.103 C 
BRANCH  15  16
HETATM   16  C   UNL     1      45.059 -20.647   3.584  1.00  0.00     0.018 C 
BRANCH  16  17
HETATM   17  C   UNL     1      43.799 -20.735   2.695  1.00  0.00     0.015 C 
HETATM   18  C   UNL     1      44.012 -21.748   1.564  1.00  0.00     0.015 C 
BRANCH  17  19
HETATM   19  C   UNL     1      43.386 -19.385   2.128  1.00  0.00    -0.054 A 
HETATM   20  C   UNL     1      42.035 -19.024   1.999  1.00  0.00     0.007 A 
HETATM   21  C   UNL     1      41.677 -17.784   1.469  1.00  0.00     0.001 A 
HETATM   22  C   UNL     1      42.661 -16.886   1.065  1.00  0.00     0.000 A 
HETATM   23  C   UNL     1      44.007 -17.227   1.194  1.00  0.00     0.001 A 
HETATM   24  C   UNL     1      44.367 -18.468   1.723  1.00  0.00     0.007 A 
ENDBRANCH  17  19
ENDBRANCH  16  17
ENDBRANCH  15  16
ENDBRANCH  12  15
ENDBRANCH   1  11
BRANCH   8  25
HETATM   25  C   UNL     1      40.947 -14.435   3.440  1.00  0.00     0.270 C 
HETATM   26  N   UNL     1      39.860 -15.251   3.598  1.00  0.00    -0.365 N 
HETATM   27  H   UNL     1      39.718 -15.700   4.494  1.00  0.00     0.159 HD
HETATM   28  H   UNL     1      39.221 -15.392   2.831  1.00  0.00     0.159 HD
HETATM   29  O   UNL     1      41.170 -13.864   2.377  1.00  0.00    -0.266 OA
ENDBRANCH   8  25
TORSDOF 6
ENDMDL
MODEL 2
REMARK VINA RESULT:      -8.2      3.579      6.149
REMARK  6 active torsions:
REMARK  status: ('A' for Active; 'I' for Inactive)
REMARK    1  A    between atoms: C_2  and  C_3 
REMARK    2  A    between atoms: C_2  and  C_9 
REMARK    3  A    between atoms: C_9  and  C_10 
REMARK    4  A    between atoms: C_10  and  C_11 
REMARK       I    between atoms: C_11  and  N_12 
REMARK    5  A    between atoms: N_12  and  C_13 
REMARK    6  A    between atoms: C_20  and  C_21 
REMARK       I    between atoms: C_21  and  N_22 
ROOT
HETATM    1  C   UNL     1      40.072 -15.188   1.377  1.00  0.00     0.035 A 
HETATM    2  C   UNL     1      40.685 -15.072   0.117  1.00  0.00     0.046 A 
HETATM    3  C   UNL     1      40.045 -14.348  -0.911  1.00  0.00     0.030 A 
HETATM    4  C   UNL     1      38.813 -13.763  -0.650  1.00  0.00     0.063 A 
HETATM    5  N   UNL     1      38.453 -13.140  -1.811  1.00  0.00    -0.277 N 
HETATM    6  H   UNL     1      37.608 -12.606  -1.984  1.00  0.00     0.189 HD
HETATM    7  N   UNL     1      39.342 -13.268  -2.810  1.00  0.00    -0.168 NA
HETATM    8  C   UNL     1      40.331 -14.015  -2.269  1.00  0.00     0.156 A 
HETATM    9  C   UNL     1      38.175 -13.859   0.587  1.00  0.00     0.034 A 
HETATM   10  C   UNL     1      38.830 -14.583   1.593  1.00  0.00     0.032 A 
ENDROOT
BRANCH   1  11
HETATM   11  N   UNL     1      40.775 -15.914   2.363  1.00  0.00    -0.327 N 
HETATM   12  C   UNL     1      41.616 -15.410   3.338  1.00  0.00     0.222 C 
HETATM   13  O   UNL     1      41.869 -14.228   3.546  1.00  0.00    -0.273 OA
HETATM   14  H   UNL     1      40.626 -16.916   2.360  1.00  0.00     0.169 HD
BRANCH  12  15
HETATM   15  C   UNL     1      42.254 -16.494   4.191  1.00  0.00     0.103 C 
BRANCH  15  16
HETATM   16  C   UNL     1      42.319 -17.830   3.446  1.00  0.00     0.018 C 
BRANCH  16  17
HETATM   17  C   UNL     1      43.730 -18.179   2.923  1.00  0.00     0.015 C 
HETATM   18  C   UNL     1      43.921 -17.639   1.500  1.00  0.00     0.015 C 
BRANCH  17  19
HETATM   19  C   UNL     1      44.020 -19.671   2.968  1.00  0.00    -0.054 A 
HETATM   20  C   UNL     1      43.719 -20.512   1.885  1.00  0.00     0.007 A 
HETATM   21  C   UNL     1      43.986 -21.880   1.950  1.00  0.00     0.001 A 
HETATM   22  C   UNL     1      44.559 -22.426   3.095  1.00  0.00     0.000 A 
HETATM   23  C   UNL     1      44.870 -21.604   4.176  1.00  0.00     0.001 A 
HETATM   24  C   UNL     1      44.603 -20.235   4.114  1.00  0.00     0.007 A 
ENDBRANCH  17  19
ENDBRANCH  16  17
ENDBRANCH  15  16
ENDBRANCH  12  15
ENDBRANCH   1  11
BRANCH   8  25
HETATM   25  C   UNL     1      41.520 -14.392  -3.044  1.00  0.00     0.270 C 
HETATM   26  N   UNL     1      42.532 -13.473  -2.997  1.00  0.00    -0.365 N 
HETATM   27  H   UNL     1      42.397 -12.630  -2.451  1.00  0.00     0.159 HD
HETATM   28  H   UNL     1      43.390 -13.644  -3.497  1.00  0.00     0.159 HD
HETATM   29  O   UNL     1      41.627 -15.431  -3.687  1.00  0.00    -0.266 OA
ENDBRANCH   8  25
TORSDOF 6
ENDMDL
MODEL 3
REMARK VINA RESULT:      -7.9      3.031      5.046
REMARK  6 active torsions:
REMARK  status: ('A' for Active; 'I' for Inactive)
REMARK    1  A    between atoms: C_2  and  C_3 
REMARK    2  A    between atoms: C_2  and  C_9 
REMARK    3  A    between atoms: C_9  and  C_10 
REMARK    4  A    between atoms: C_10  and  C_11 
REMARK       I    between atoms: C_11  and  N_12 
REMARK    5  A    between atoms: N_12  and  C_13 
REMARK    6  A    between atoms: C_20  and  C_21 
REMARK       I    between atoms: C_21  and  N_22 
ROOT
HETATM    1  C   UNL     1      39.992 -14.053   4.486  1.00  0.00     0.035 A 
HETATM    2  C   UNL     1      40.002 -13.426   5.744  1.00  0.00     0.046 A 
HETATM    3  C   UNL     1      39.606 -12.077   5.860  1.00  0.00     0.030 A 
HETATM    4  C   UNL     1      39.214 -11.395   4.716  1.00  0.00     0.063 A 
HETATM    5  N   UNL     1      38.890 -10.136   5.136  1.00  0.00    -0.277 N 
HETATM    6  H   UNL     1      38.559  -9.366   4.566  1.00  0.00     0.189 HD
HETATM    7  N   UNL     1      39.039  -9.935   6.456  1.00  0.00    -0.168 NA
HETATM    8  C   UNL     1      39.483 -11.127   6.917  1.00  0.00     0.156 A 
HETATM    9  C   UNL     1      39.194 -11.984   3.451  1.00  0.00     0.034 A 
HETATM   10  C   UNL     1      39.592 -13.326   3.361  1.00  0.00     0.032 A 
ENDROOT
BRANCH   1  11
HETATM   11  N   UNL     1      40.386 -15.409   4.446  1.00  0.00    -0.327 N 
HETATM   12  C   UNL     1      41.673 -15.911   4.493  1.00  0.00     0.222 C 
HETATM   13  O   UNL     1      42.707 -15.264   4.622  1.00  0.00    -0.273 OA
HETATM   14  H   UNL     1      39.632 -16.083   4.394  1.00  0.00     0.169 HD
BRANCH  12  15
HETATM   15  C   UNL     1      41.726 -17.424   4.359  1.00  0.00     0.103 C 
BRANCH  15  16
HETATM   16  C   UNL     1      42.079 -17.850   2.931  1.00  0.00     0.018 C 
BRANCH  16  17
HETATM   17  C   UNL     1      43.583 -18.141   2.727  1.00  0.00     0.015 C 
HETATM   18  C   UNL     1      44.047 -17.621   1.361  1.00  0.00     0.015 C 
BRANCH  17  19
HETATM   19  C   UNL     1      43.920 -19.616   2.877  1.00  0.00    -0.054 A 
HETATM   20  C   UNL     1      44.532 -20.116   4.037  1.00  0.00     0.007 A 
HETATM   21  C   UNL     1      44.841 -21.473   4.152  1.00  0.00     0.001 A 
HETATM   22  C   UNL     1      44.538 -22.348   3.112  1.00  0.00     0.000 A 
HETATM   23  C   UNL     1      43.924 -21.868   1.957  1.00  0.00     0.001 A 
HETATM   24  C   UNL     1      43.616 -20.511   1.840  1.00  0.00     0.007 A 
ENDBRANCH  17  19
ENDBRANCH  16  17
ENDBRANCH  15  16
ENDBRANCH  12  15
ENDBRANCH   1  11
BRANCH   8  25
HETATM   25  C   UNL     1      39.776 -11.337   8.340  1.00  0.00     0.270 C 
HETATM   26  N   UNL     1      38.943 -12.232   8.955  1.00  0.00    -0.365 N 
HETATM   27  H   UNL     1      38.212 -12.669   8.408  1.00  0.00     0.159 HD
HETATM   28  H   UNL     1      39.067 -12.444   9.933  1.00  0.00     0.159 HD
HETATM   29  O   UNL     1      40.680 -10.778   8.952  1.00  0.00    -0.266 OA
ENDBRANCH   8  25
TORSDOF 6
ENDMDL
MODEL 4
REMARK VINA RESULT:      -7.8      3.302      5.517
REMARK  6 active torsions:
REMARK  status: ('A' for Active; 'I' for Inactive)
REMARK    1  A    between atoms: C_2  and  C_3 
REMARK    2  A    between atoms: C_2  and  C_9 
REMARK    3  A    between atoms: C_9  and  C_10 
REMARK    4  A    between atoms: C_10  and  C_11 
REMARK       I    between atoms: C_11  and  N_12 
REMARK    5  A    between atoms: N_12  and  C_13 
REMARK    6  A    between atoms: C_20  and  C_21 
REMARK       I    between atoms: C_21  and  N_22 
ROOT
HETATM    1  C   UNL     1      41.430 -16.782   1.134  1.00  0.00     0.035 A 
HETATM    2  C   UNL     1      41.528 -16.243  -0.160  1.00  0.00     0.046 A 
HETATM    3  C   UNL     1      40.784 -15.094  -0.500  1.00  0.00     0.030 A 
HETATM    4  C   UNL     1      39.965 -14.519   0.462  1.00  0.00     0.063 A 
HETATM    5  N   UNL     1      39.388 -13.441  -0.149  1.00  0.00    -0.277 N 
HETATM    6  H   UNL     1      38.731 -12.785   0.259  1.00  0.00     0.189 HD
HETATM    7  N   UNL     1      39.758 -13.262  -1.428  1.00  0.00    -0.168 NA
HETATM    8  C   UNL     1      40.620 -14.278  -1.660  1.00  0.00     0.156 A 
HETATM    9  C   UNL     1      39.841 -15.027   1.755  1.00  0.00     0.034 A 
HETATM   10  C   UNL     1      40.590 -16.170   2.070  1.00  0.00     0.032 A 
ENDROOT
BRANCH   1  11
HETATM   11  N   UNL     1      42.213 -17.925   1.411  1.00  0.00    -0.327 N 
HETATM   12  C   UNL     1      43.589 -17.995   1.513  1.00  0.00     0.222 C 
HETATM   13  O   UNL     1      44.379 -17.060   1.423  1.00  0.00    -0.273 OA
HETATM   14  H   UNL     1      41.697 -18.783   1.568  1.00  0.00     0.169 HD
BRANCH  12  15
HETATM   15  C   UNL     1      44.097 -19.407   1.757  1.00  0.00     0.103 C 
BRANCH  15  16
HETATM   16  C   UNL     1      43.566 -19.974   3.076  1.00  0.00     0.018 C 
BRANCH  16  17
HETATM   17  C   UNL     1      44.452 -19.635   4.296  1.00  0.00     0.015 C 
HETATM   18  C   UNL     1      44.782 -20.906   5.087  1.00  0.00     0.015 C 
BRANCH  17  19
HETATM   19  C   UNL     1      43.822 -18.591   5.205  1.00  0.00    -0.054 A 
HETATM   20  C   UNL     1      44.570 -17.930   6.194  1.00  0.00     0.007 A 
HETATM   21  C   UNL     1      43.971 -16.981   7.023  1.00  0.00     0.001 A 
HETATM   22  C   UNL     1      42.621 -16.677   6.875  1.00  0.00     0.000 A 
HETATM   23  C   UNL     1      41.867 -17.319   5.895  1.00  0.00     0.001 A 
HETATM   24  C   UNL     1      42.464 -18.269   5.064  1.00  0.00     0.007 A 
ENDBRANCH  17  19
ENDBRANCH  16  17
ENDBRANCH  15  16
ENDBRANCH  12  15
ENDBRANCH   1  11
BRANCH   8  25
HETATM   25  C   UNL     1      41.268 -14.452  -2.966  1.00  0.00     0.270 C 
HETATM   26  N   UNL     1      42.509 -13.883  -3.055  1.00  0.00    -0.365 N 
HETATM   27  H   UNL     1      42.880 -13.401  -2.245  1.00  0.00     0.159 HD
HETATM   28  H   UNL     1      43.033 -13.951  -3.913  1.00  0.00     0.159 HD
HETATM   29  O   UNL     1      40.767 -15.049  -3.914  1.00  0.00    -0.266 OA
ENDBRANCH   8  25
TORSDOF 6
ENDMDL
MODEL 5
REMARK VINA RESULT:      -7.7      2.156      4.106
REMARK  6 active torsions:
REMARK  status: ('A' for Active; 'I' for Inactive)
REMARK    1  A    between atoms: C_2  and  C_3 
REMARK    2  A    between atoms: C_2  and  C_9 
REMARK    3  A    between atoms: C_9  and  C_10 
REMARK    4  A    between atoms: C_10  and  C_11 
REMARK       I    between atoms: C_11  and  N_12 
REMARK    5  A    between atoms: N_12  and  C_13 
REMARK    6  A    between atoms: C_20  and  C_21 
REMARK       I    between atoms: C_21  and  N_22 
ROOT
HETATM    1  C   UNL     1      41.080 -15.380   5.629  1.00  0.00     0.035 A 
HETATM    2  C   UNL     1      41.196 -15.836   4.305  1.00  0.00     0.046 A 
HETATM    3  C   UNL     1      40.577 -15.120   3.258  1.00  0.00     0.030 A 
HETATM    4  C   UNL     1      39.862 -13.971   3.567  1.00  0.00     0.063 A 
HETATM    5  N   UNL     1      39.392 -13.503   2.372  1.00  0.00    -0.277 N 
HETATM    6  H   UNL     1      38.828 -12.675   2.216  1.00  0.00     0.189 HD
HETATM    7  N   UNL     1      39.737 -14.249   1.308  1.00  0.00    -0.168 NA
HETATM    8  C   UNL     1      40.469 -15.253   1.842  1.00  0.00     0.156 A 
HETATM    9  C   UNL     1      39.723 -13.489   4.869  1.00  0.00     0.034 A 
HETATM   10  C   UNL     1      40.347 -14.218   5.892  1.00  0.00     0.032 A 
ENDROOT
BRANCH   1  11
HETATM   11  N   UNL     1      41.736 -16.137   6.625  1.00  0.00    -0.327 N 
HETATM   12  C   UNL     1      43.085 -16.141   6.924  1.00  0.00     0.222 C 
HETATM   13  O   UNL     1      43.953 -15.449   6.401  1.00  0.00    -0.273 OA
HETATM   14  H   UNL     1      41.138 -16.728   7.191  1.00  0.00     0.169 HD
BRANCH  12  15
HETATM   15  C   UNL     1      43.448 -17.132   8.018  1.00  0.00     0.103 C 
BRANCH  15  16
HETATM   16  C   UNL     1      44.314 -18.273   7.476  1.00  0.00     0.018 C 
BRANCH  16  17
HETATM   17  C   UNL     1      43.499 -19.401   6.804  1.00  0.00     0.015 C 
HETATM   18  C   UNL     1      43.709 -20.726   7.548  1.00  0.00     0.015 C 
BRANCH  17  19
HETATM   19  C   UNL     1      43.828 -19.562   5.328  1.00  0.00    -0.054 A 
HETATM   20  C   UNL     1      44.668 -20.589   4.869  1.00  0.00     0.007 A 
HETATM   21  C   UNL     1      44.963 -20.714   3.511  1.00  0.00     0.001 A 
HETATM   22  C   UNL     1      44.421 -19.819   2.593  1.00  0.00     0.000 A 
HETATM   23  C   UNL     1      43.579 -18.799   3.032  1.00  0.00     0.001 A 
HETATM   24  C   UNL     1      43.283 -18.671   4.391  1.00  0.00     0.007 A 
ENDBRANCH  17  19
ENDBRANCH  16  17
ENDBRANCH  15  16
ENDBRANCH  12  15
ENDBRANCH   1  11
BRANCH   8  25
HETATM   25  C   UNL     1      41.048 -16.310   1.003  1.00  0.00     0.270 C 
HETATM   26  N   UNL     1      40.472 -17.538   1.174  1.00  0.00    -0.365 N 
HETATM   27  H   UNL     1      39.716 -17.630   1.842  1.00  0.00     0.159 HD
HETATM   28  H   UNL     1      40.801 -18.327   0.640  1.00  0.00     0.159 HD
HETATM   29  O   UNL     1      41.967 -16.139   0.208  1.00  0.00    -0.266 OA
ENDBRANCH   8  25
TORSDOF 6
ENDMDL
MODEL 6
REMARK VINA RESULT:      -7.6      3.355      5.120
REMARK  6 active torsions:
REMARK  status: ('A' for Active; 'I' for Inactive)
REMARK    1  A    between atoms: C_2  and  C_3 
REMARK    2  A    between atoms: C_2  and  C_9 
REMARK    3  A    between atoms: C_9  and  C_10 
REMARK    4  A    between atoms: C_10  and  C_11 
REMARK       I    between atoms: C_11  and  N_12 
REMARK    5  A    between atoms: N_12  and  C_13 
REMARK    6  A    between atoms: C_20  and  C_21 
REMARK       I    between atoms: C_21  and  N_22 
ROOT
HETATM    1  C   UNL     1      44.636 -14.528   6.999  1.00  0.00     0.035 A 
HETATM    2  C   UNL     1      44.180 -13.943   8.193  1.00  0.00     0.046 A 
HETATM    3  C   UNL     1      44.864 -12.838   8.740  1.00  0.00     0.030 A 
HETATM    4  C   UNL     1      45.983 -12.351   8.079  1.00  0.00     0.063 A 
HETATM    5  N   UNL     1      46.420 -11.296   8.830  1.00  0.00    -0.277 N 
HETATM    6  H   UNL     1      47.218 -10.700   8.644  1.00  0.00     0.189 HD
HETATM    7  N   UNL     1      45.683 -11.053   9.927  1.00  0.00    -0.168 NA
HETATM    8  C   UNL     1      44.718 -12.000   9.885  1.00  0.00     0.156 A 
HETATM    9  C   UNL     1      46.467 -12.907   6.893  1.00  0.00     0.034 A 
HETATM   10  C   UNL     1      45.770 -14.005   6.369  1.00  0.00     0.032 A 
ENDROOT
BRANCH   1  11
HETATM   11  N   UNL     1      43.896 -15.623   6.500  1.00  0.00    -0.327 N 
HETATM   12  C   UNL     1      43.122 -15.662   5.355  1.00  0.00     0.222 C 
HETATM   13  O   UNL     1      42.976 -14.756   4.540  1.00  0.00    -0.273 OA
HETATM   14  H   UNL     1      43.958 -16.478   7.040  1.00  0.00     0.169 HD
BRANCH  12  15
HETATM   15  C   UNL     1      42.412 -16.991   5.162  1.00  0.00     0.103 C 
BRANCH  15  16
HETATM   16  C   UNL     1      42.411 -17.419   3.692  1.00  0.00     0.018 C 
BRANCH  16  17
HETATM   17  C   UNL     1      43.810 -17.806   3.161  1.00  0.00     0.015 C 
HETATM   18  C   UNL     1      44.084 -17.109   1.822  1.00  0.00     0.015 C 
BRANCH  17  19
HETATM   19  C   UNL     1      43.990 -19.310   3.024  1.00  0.00    -0.054 A 
HETATM   20  C   UNL     1      43.516 -20.008   1.902  1.00  0.00     0.007 A 
HETATM   21  C   UNL     1      43.685 -21.390   1.800  1.00  0.00     0.001 A 
HETATM   22  C   UNL     1      44.331 -22.091   2.815  1.00  0.00     0.000 A 
HETATM   23  C   UNL     1      44.812 -21.411   3.931  1.00  0.00     0.001 A 
HETATM   24  C   UNL     1      44.644 -20.029   4.036  1.00  0.00     0.007 A 
ENDBRANCH  17  19
ENDBRANCH  16  17
ENDBRANCH  15  16
ENDBRANCH  12  15
ENDBRANCH   1  11
BRANCH   8  25
HETATM   25  C   UNL     1      43.684 -12.088  10.924  1.00  0.00     0.270 C 
HETATM   26  N   UNL     1      43.928 -13.041  11.875  1.00  0.00    -0.365 N 
HETATM   27  H   UNL     1      44.771 -13.597  11.800  1.00  0.00     0.159 HD
HETATM   28  H   UNL     1      43.275 -13.175  12.632  1.00  0.00     0.159 HD
HETATM   29  O   UNL     1      42.680 -11.384  10.965  1.00  0.00    -0.266 OA
ENDBRANCH   8  25
TORSDOF 6
ENDMDL
MODEL 7
REMARK VINA RESULT:      -7.5      2.062      4.281
REMARK  6 active torsions:
REMARK  status: ('A' for Active; 'I' for Inactive)
REMARK    1  A    between atoms: C_2  and  C_3 
REMARK    2  A    between atoms: C_2  and  C_9 
REMARK    3  A    between atoms: C_9  and  C_10 
REMARK    4  A    between atoms: C_10  and  C_11 
REMARK       I    between atoms: C_11  and  N_12 
REMARK    5  A    between atoms: N_12  and  C_13 
REMARK    6  A    between atoms: C_20  and  C_21 
REMARK       I    between atoms: C_21  and  N_22 
ROOT
HETATM    1  C   UNL     1      41.719 -17.063   2.574  1.00  0.00     0.035 A 
HETATM    2  C   UNL     1      42.141 -16.054   3.457  1.00  0.00     0.046 A 
HETATM    3  C   UNL     1      41.355 -14.895   3.626  1.00  0.00     0.030 A 
HETATM    4  C   UNL     1      40.173 -14.778   2.907  1.00  0.00     0.063 A 
HETATM    5  N   UNL     1      39.640 -13.575   3.277  1.00  0.00    -0.277 N 
HETATM    6  H   UNL     1      38.773 -13.163   2.951  1.00  0.00     0.189 HD
HETATM    7  N   UNL     1      40.373 -12.895   4.175  1.00  0.00    -0.168 NA
HETATM    8  C   UNL     1      41.437 -13.698   4.399  1.00  0.00     0.156 A 
HETATM    9  C   UNL     1      39.725 -15.757   2.020  1.00  0.00     0.034 A 
HETATM   10  C   UNL     1      40.523 -16.900   1.869  1.00  0.00     0.032 A 
ENDROOT
BRANCH   1  11
HETATM   11  N   UNL     1      42.547 -18.202   2.464  1.00  0.00    -0.327 N 
HETATM   12  C   UNL     1      43.780 -18.288   1.847  1.00  0.00     0.222 C 
HETATM   13  O   UNL     1      44.399 -17.370   1.318  1.00  0.00    -0.273 OA
HETATM   14  H   UNL     1      42.195 -19.044   2.906  1.00  0.00     0.169 HD
BRANCH  12  15
HETATM   15  C   UNL     1      44.357 -19.694   1.864  1.00  0.00     0.103 C 
BRANCH  15  16
HETATM   16  C   UNL     1      43.767 -20.530   3.003  1.00  0.00     0.018 C 
BRANCH  16  17
HETATM   17  C   UNL     1      44.774 -20.831   4.135  1.00  0.00     0.015 C 
HETATM   18  C   UNL     1      44.725 -22.316   4.512  1.00  0.00     0.015 C 
BRANCH  17  19
HETATM   19  C   UNL     1      44.552 -19.963   5.364  1.00  0.00    -0.054 A 
HETATM   20  C   UNL     1      43.883 -20.451   6.498  1.00  0.00     0.007 A 
HETATM   21  C   UNL     1      43.682 -19.635   7.612  1.00  0.00     0.001 A 
HETATM   22  C   UNL     1      44.149 -18.323   7.611  1.00  0.00     0.000 A 
HETATM   23  C   UNL     1      44.821 -17.827   6.495  1.00  0.00     0.001 A 
HETATM   24  C   UNL     1      45.022 -18.640   5.379  1.00  0.00     0.007 A 
ENDBRANCH  17  19
ENDBRANCH  16  17
ENDBRANCH  15  16
ENDBRANCH  12  15
ENDBRANCH   1  11
BRANCH   8  25
HETATM   25  C   UNL     1      42.502 -13.317   5.335  1.00  0.00     0.270 C 
HETATM   26  N   UNL     1      42.057 -12.656   6.448  1.00  0.00    -0.365 N 
HETATM   27  H   UNL     1      41.064 -12.483   6.544  1.00  0.00     0.159 HD
HETATM   28  H   UNL     1      42.714 -12.355   7.150  1.00  0.00     0.159 HD
HETATM   29  O   UNL     1      43.693 -13.556   5.166  1.00  0.00    -0.266 OA
ENDBRANCH   8  25
TORSDOF 6
ENDMDL
MODEL 8
REMARK VINA RESULT:      -7.4      2.364      5.960
REMARK  6 active torsions:
REMARK  status: ('A' for Active; 'I' for Inactive)
REMARK    1  A    between atoms: C_2  and  C_3 
REMARK    2  A    between atoms: C_2  and  C_9 
REMARK    3  A    between atoms: C_9  and  C_10 
REMARK    4  A    between atoms: C_10  and  C_11 
REMARK       I    between atoms: C_11  and  N_12 
REMARK    5  A    between atoms: N_12  and  C_13 
REMARK    6  A    between atoms: C_20  and  C_21 
REMARK       I    between atoms: C_21  and  N_22 
ROOT
HETATM    1  C   UNL     1      43.260 -17.830   2.619  1.00  0.00     0.035 A 
HETATM    2  C   UNL     1      43.012 -17.610   3.985  1.00  0.00     0.046 A 
HETATM    3  C   UNL     1      43.477 -18.537   4.941  1.00  0.00     0.030 A 
HETATM    4  C   UNL     1      44.174 -19.656   4.503  1.00  0.00     0.063 A 
HETATM    5  N   UNL     1      44.492 -20.352   5.636  1.00  0.00    -0.277 N 
HETATM    6  H   UNL     1      45.006 -21.224   5.695  1.00  0.00     0.189 HD
HETATM    7  N   UNL     1      44.062 -19.786   6.776  1.00  0.00    -0.168 NA
HETATM    8  C   UNL     1      43.431 -18.663   6.361  1.00  0.00     0.156 A 
HETATM    9  C   UNL     1      44.436 -19.908   3.156  1.00  0.00     0.034 A 
HETATM   10  C   UNL     1      43.964 -18.971   2.225  1.00  0.00     0.032 A 
ENDROOT
BRANCH   1  11
HETATM   11  N   UNL     1      42.778 -16.854   1.718  1.00  0.00    -0.327 N 
HETATM   12  C   UNL     1      41.615 -16.899   0.973  1.00  0.00     0.222 C 
HETATM   13  O   UNL     1      40.766 -17.785   0.995  1.00  0.00    -0.273 OA
HETATM   14  H   UNL     1      43.349 -16.021   1.628  1.00  0.00     0.169 HD
BRANCH  12  15
HETATM   15  C   UNL     1      41.449 -15.698   0.057  1.00  0.00     0.103 C 
BRANCH  15  16
HETATM   16  C   UNL     1      40.342 -14.763   0.553  1.00  0.00     0.018 C 
BRANCH  16  17
HETATM   17  C   UNL     1      40.874 -13.474   1.218  1.00  0.00     0.015 C 
HETATM   18  C   UNL     1      41.938 -12.815   0.331  1.00  0.00     0.015 C 
BRANCH  17  19
HETATM   19  C   UNL     1      41.424 -13.719   2.615  1.00  0.00    -0.054 A 
HETATM   20  C   UNL     1      40.610 -14.206   3.650  1.00  0.00     0.007 A 
HETATM   21  C   UNL     1      41.133 -14.416   4.927  1.00  0.00     0.001 A 
HETATM   22  C   UNL     1      42.474 -14.147   5.186  1.00  0.00     0.000 A 
HETATM   23  C   UNL     1      43.296 -13.671   4.167  1.00  0.00     0.001 A 
HETATM   24  C   UNL     1      42.775 -13.458   2.889  1.00  0.00     0.007 A 
ENDBRANCH  17  19
ENDBRANCH  16  17
ENDBRANCH  15  16
ENDBRANCH  12  15
ENDBRANCH   1  11
BRANCH   8  25
HETATM   25  C   UNL     1      42.804 -17.740   7.315  1.00  0.00     0.270 C 
HETATM   26  N   UNL     1      43.460 -17.642   8.512  1.00  0.00    -0.365 N 
HETATM   27  H   UNL     1      44.300 -18.191   8.650  1.00  0.00     0.159 HD
HETATM   28  H   UNL     1      43.106 -17.031   9.231  1.00  0.00     0.159 HD
HETATM   29  O   UNL     1      41.782 -17.099   7.090  1.00  0.00    -0.266 OA
ENDBRANCH   8  25
TORSDOF 6
ENDMDL
MODEL 9
REMARK VINA RESULT:      -7.4      4.371      8.947
REMARK  6 active torsions:
REMARK  status: ('A' for Active; 'I' for Inactive)
REMARK    1  A    between atoms: C_2  and  C_3 
REMARK    2  A    between atoms: C_2  and  C_9 
REMARK    3  A    between atoms: C_9  and  C_10 
REMARK    4  A    between atoms: C_10  and  C_11 
REMARK       I    between atoms: C_11  and  N_12 
REMARK    5  A    between atoms: N_12  and  C_13 
REMARK    6  A    between atoms: C_20  and  C_21 
REMARK       I    between atoms: C_21  and  N_22 
ROOT
HETATM    1  C   UNL     1      43.712 -15.057   6.114  1.00  0.00     0.035 A 
HETATM    2  C   UNL     1      43.856 -16.446   6.273  1.00  0.00     0.046 A 
HETATM    3  C   UNL     1      43.609 -17.306   5.183  1.00  0.00     0.030 A 
HETATM    4  C   UNL     1      43.225 -16.753   3.969  1.00  0.00     0.063 A 
HETATM    5  N   UNL     1      43.066 -17.813   3.121  1.00  0.00    -0.277 N 
HETATM    6  H   UNL     1      42.792 -17.782   2.145  1.00  0.00     0.189 HD
HETATM    7  N   UNL     1      43.310 -19.012   3.677  1.00  0.00    -0.168 NA
HETATM    8  C   UNL     1      43.646 -18.714   4.953  1.00  0.00     0.156 A 
HETATM    9  C   UNL     1      43.071 -15.380   3.775  1.00  0.00     0.034 A 
HETATM   10  C   UNL     1      43.322 -14.545   4.873  1.00  0.00     0.032 A 
ENDROOT
BRANCH   1  11
HETATM   11  N   UNL     1      43.989 -14.253   7.243  1.00  0.00    -0.327 N 
HETATM   12  C   UNL     1      45.104 -13.465   7.460  1.00  0.00     0.222 C 
HETATM   13  O   UNL     1      46.038 -13.290   6.684  1.00  0.00    -0.273 OA
HETATM   14  H   UNL     1      43.276 -14.246   7.962  1.00  0.00     0.169 HD
BRANCH  12  15
HETATM   15  C   UNL     1      45.097 -12.787   8.820  1.00  0.00     0.103 C 
BRANCH  15  16
HETATM   16  C   UNL     1      43.982 -11.742   8.921  1.00  0.00     0.018 C 
BRANCH  16  17
HETATM   17  C   UNL     1      44.250 -10.653   9.983  1.00  0.00     0.015 C 
HETATM   18  C   UNL     1      45.682 -10.769  10.518  1.00  0.00     0.015 C 
BRANCH  17  19
HETATM   19  C   UNL     1      43.250 -10.691  11.128  1.00  0.00    -0.054 A 
HETATM   20  C   UNL     1      43.622 -10.361  12.441  1.00  0.00     0.007 A 
HETATM   21  C   UNL     1      42.690 -10.411  13.479  1.00  0.00     0.001 A 
HETATM   22  C   UNL     1      41.375 -10.787  13.220  1.00  0.00     0.000 A 
HETATM   23  C   UNL     1      40.989 -11.111  11.921  1.00  0.00     0.001 A 
HETATM   24  C   UNL     1      41.919 -11.063  10.881  1.00  0.00     0.007 A 
ENDBRANCH  17  19
ENDBRANCH  16  17
ENDBRANCH  15  16
ENDBRANCH  12  15
ENDBRANCH   1  11
BRANCH   8  25
HETATM   25  C   UNL     1      43.993 -19.763   5.919  1.00  0.00     0.270 C 
HETATM   26  N   UNL     1      44.680 -20.815   5.379  1.00  0.00    -0.365 N 
HETATM   27  H   UNL     1      44.893 -20.798   4.389  1.00  0.00     0.159 HD
HETATM   28  H   UNL     1      44.964 -21.585   5.965  1.00  0.00     0.159 HD
HETATM   29  O   UNL     1      43.708 -19.729   7.112  1.00  0.00    -0.266 OA
ENDBRANCH   8  25
TORSDOF 6
ENDMDL
MODEL 10
REMARK VINA RESULT:      -7.4      2.249      6.535
REMARK  6 active torsions:
REMARK  status: ('A' for Active; 'I' for Inactive)
REMARK    1  A    between atoms: C_2  and  C_3 
REMARK    2  A    between atoms: C_2  and  C_9 
REMARK    3  A    between atoms: C_9  and  C_10 
REMARK    4  A    between atoms: C_10  and  C_11 
REMARK       I    between atoms: C_11  and  N_12 
REMARK    5  A    between atoms: N_12  and  C_13 
REMARK    6  A    between atoms: C_20  and  C_21 
REMARK       I    between atoms: C_21  and  N_22 
ROOT
HETATM    1  C   UNL     1      43.373 -18.315   2.598  1.00  0.00     0.035 A 
HETATM    2  C   UNL     1      43.546 -18.544   3.974  1.00  0.00     0.046 A 
HETATM    3  C   UNL     1      44.049 -19.784   4.421  1.00  0.00     0.030 A 
HETATM    4  C   UNL     1      44.363 -20.757   3.481  1.00  0.00     0.063 A 
HETATM    5  N   UNL     1      44.821 -21.824   4.202  1.00  0.00    -0.277 N 
HETATM    6  H   UNL     1      45.144 -22.714   3.840  1.00  0.00     0.189 HD
HETATM    7  N   UNL     1      44.833 -21.633   5.532  1.00  0.00    -0.168 NA
HETATM    8  C   UNL     1      44.357 -20.376   5.682  1.00  0.00     0.156 A 
HETATM    9  C   UNL     1      44.202 -20.566   2.109  1.00  0.00     0.034 A 
HETATM   10  C   UNL     1      43.700 -19.325   1.688  1.00  0.00     0.032 A 
ENDROOT
BRANCH   1  11
HETATM   11  N   UNL     1      42.879 -17.047   2.219  1.00  0.00    -0.327 N 
HETATM   12  C   UNL     1      41.665 -16.762   1.624  1.00  0.00     0.222 C 
HETATM   13  O   UNL     1      40.775 -17.564   1.356  1.00  0.00    -0.273 OA
HETATM   14  H   UNL     1      43.484 -16.261   2.427  1.00  0.00     0.169 HD
BRANCH  12  15
HETATM   15  C   UNL     1      41.494 -15.288   1.296  1.00  0.00     0.103 C 
BRANCH  15  16
HETATM   16  C   UNL     1      40.582 -14.589   2.307  1.00  0.00     0.018 C 
BRANCH  16  17
HETATM   17  C   UNL     1      41.349 -13.884   3.448  1.00  0.00     0.015 C 
HETATM   18  C   UNL     1      42.656 -13.281   2.919  1.00  0.00     0.015 C 
BRANCH  17  19
HETATM   19  C   UNL     1      41.627 -14.806   4.625  1.00  0.00    -0.054 A 
HETATM   20  C   UNL     1      42.882 -14.838   5.253  1.00  0.00     0.007 A 
HETATM   21  C   UNL     1      43.119 -15.698   6.327  1.00  0.00     0.001 A 
HETATM   22  C   UNL     1      42.105 -16.532   6.791  1.00  0.00     0.000 A 
HETATM   23  C   UNL     1      40.852 -16.506   6.182  1.00  0.00     0.001 A 
HETATM   24  C   UNL     1      40.613 -15.648   5.107  1.00  0.00     0.007 A 
ENDBRANCH  17  19
ENDBRANCH  16  17
ENDBRANCH  15  16
ENDBRANCH  12  15
ENDBRANCH   1  11
BRANCH   8  25
HETATM   25  C   UNL     1      44.206 -19.767   7.010  1.00  0.00     0.270 C 
HETATM   26  N   UNL     1      43.498 -20.531   7.897  1.00  0.00    -0.365 N 
HETATM   27  H   UNL     1      43.141 -21.427   7.589  1.00  0.00     0.159 HD
HETATM   28  H   UNL     1      43.343 -20.197   8.836  1.00  0.00     0.159 HD
HETATM   29  O   UNL     1      44.662 -18.674   7.327  1.00  0.00    -0.266 OA
ENDBRANCH   8  25
TORSDOF 6
ENDMDL
