MODEL 1
REMARK VINA RESULT:      -9.8      0.000      0.000
REMARK  6 active torsions:
REMARK  status: ('A' for Active; 'I' for Inactive)
REMARK       I    between atoms: N_2  and  C_3 
REMARK    1  A    between atoms: N_2  and  C_15 
REMARK       I    between atoms: C_3  and  N_4 
REMARK    2  A    between atoms: N_4  and  C_5 
REMARK    3  A    between atoms: C_15  and  C_16 
REMARK    4  A    between atoms: C_16  and  C_17 
REMARK    5  A    between atoms: C_17  and  C_18 
REMARK    6  A    between atoms: C_22  and  C_23 
ROOT
HETATM    1  C   UNL     1      44.665 -13.708   8.108  1.00  0.00     0.127 C 
ENDROOT
BRANCH   1   2
HETATM    2  N   UNL     1      45.474 -12.586   8.596  1.00  0.00    -0.338 N 
HETATM    3  C   UNL     1      46.630 -12.235   7.776  1.00  0.00     0.154 C 
HETATM    4  C   UNL     1      45.018 -11.596   9.467  1.00  0.00     0.322 C 
HETATM    5  N   UNL     1      43.997 -11.980  10.300  1.00  0.00    -0.309 N 
HETATM    6  O   UNL     1      45.472 -10.455   9.403  1.00  0.00    -0.247 OA
HETATM    7  H   UNL     1      43.880 -12.971  10.429  1.00  0.00     0.170 HD
BRANCH   5   8
HETATM    8  C   UNL     1      43.194 -11.158  11.122  1.00  0.00     0.036 A 
HETATM    9  C   UNL     1      43.611 -10.639  12.351  1.00  0.00     0.039 A 
HETATM   10  C   UNL     1      42.739  -9.828  13.064  1.00  0.00    -0.024 A 
HETATM   11  C   UNL     1      41.485  -9.505  12.574  1.00  0.00    -0.026 A 
HETATM   12  C   UNL     1      42.940  -9.166  14.377  1.00  0.00     0.207 C 
HETATM   13  C   UNL     1      40.808  -8.594  13.528  1.00  0.00     0.207 C 
HETATM   14  C   UNL     1      41.052  -9.994  11.356  1.00  0.00     0.012 A 
HETATM   15  O   UNL     1      41.642  -8.616  14.709  1.00  0.00    -0.382 OA
HETATM   16  C   UNL     1      41.911 -10.832  10.636  1.00  0.00     0.030 A 
ENDBRANCH   5   8
ENDBRANCH   1   2
BRANCH   1  17
HETATM   17  C   UNL     1      44.685 -13.871   6.580  1.00  0.00     0.026 C 
BRANCH  17  18
HETATM   18  C   UNL     1      43.453 -14.584   6.013  1.00  0.00     0.060 C 
BRANCH  18  19
HETATM   19  C   UNL     1      43.692 -16.010   5.659  1.00  0.00     0.030 A 
HETATM   20  N   UNL     1      44.377 -16.894   6.447  1.00  0.00    -0.282 N 
HETATM   21  H   UNL     1      44.792 -16.745   7.364  1.00  0.00     0.189 HD
HETATM   22  N   UNL     1      44.507 -18.112   5.898  1.00  0.00    -0.174 NA
HETATM   23  C   UNL     1      43.912 -18.023   4.698  1.00  0.00     0.089 A 
HETATM   24  C   UNL     1      43.366 -16.721   4.523  1.00  0.00     0.060 A 
BRANCH  23  25
HETATM   25  C   UNL     1      43.895 -19.155   3.763  1.00  0.00    -0.005 A 
HETATM   26  C   UNL     1      43.123 -19.121   2.588  1.00  0.00     0.017 A 
HETATM   27  C   UNL     1      43.135 -20.199   1.698  1.00  0.00     0.043 A 
HETATM   28  C   UNL     1      43.915 -21.315   1.976  1.00  0.00     0.116 A 
HETATM   29  F   UNL     1      43.925 -22.343   1.119  1.00  0.00    -0.206 F 
HETATM   30  C   UNL     1      44.685 -21.374   3.129  1.00  0.00     0.043 A 
HETATM   31  C   UNL     1      44.674 -20.297   4.020  1.00  0.00     0.017 A 
ENDBRANCH  23  25
ENDBRANCH  18  19
ENDBRANCH  17  18
ENDBRANCH   1  17
TORSDOF 6
ENDMDL
MODEL 2
REMARK VINA RESULT:      -9.6      4.801     11.754
REMARK  6 active torsions:
REMARK  status: ('A' for Active; 'I' for Inactive)
REMARK       I    between atoms: N_2  and  C_3 
REMARK    1  A    between atoms: N_2  and  C_15 
REMARK       I    between atoms: C_3  and  N_4 
REMARK    2  A    between atoms: N_4  and  C_5 
REMARK    3  A    between atoms: C_15  and  C_16 
REMARK    4  A    between atoms: C_16  and  C_17 
REMARK    5  A    between atoms: C_17  and  C_18 
REMARK    6  A    between atoms: C_22  and  C_23 
ROOT
HETATM    1  C   UNL     1      44.015 -14.530   5.802  1.00  0.00     0.127 C 
ENDROOT
BRANCH   1   2
HETATM    2  N   UNL     1      42.727 -15.220   5.672  1.00  0.00    -0.338 N 
HETATM    3  C   UNL     1      41.542 -14.389   5.859  1.00  0.00     0.154 C 
HETATM    4  C   UNL     1      42.532 -16.418   4.983  1.00  0.00     0.322 C 
HETATM    5  N   UNL     1      43.635 -17.230   4.907  1.00  0.00    -0.309 N 
HETATM    6  O   UNL     1      41.458 -16.651   4.434  1.00  0.00    -0.247 OA
HETATM    7  H   UNL     1      44.362 -17.056   5.581  1.00  0.00     0.170 HD
BRANCH   5   8
HETATM    8  C   UNL     1      43.810 -18.382   4.107  1.00  0.00     0.036 A 
HETATM    9  C   UNL     1      44.140 -19.642   4.614  1.00  0.00     0.039 A 
HETATM   10  C   UNL     1      44.268 -20.705   3.731  1.00  0.00    -0.024 A 
HETATM   11  C   UNL     1      44.052 -20.548   2.373  1.00  0.00    -0.026 A 
HETATM   12  C   UNL     1      44.611 -22.121   4.015  1.00  0.00     0.207 C 
HETATM   13  C   UNL     1      44.217 -21.859   1.698  1.00  0.00     0.207 C 
HETATM   14  C   UNL     1      43.711 -19.317   1.846  1.00  0.00     0.012 A 
HETATM   15  O   UNL     1      44.787 -22.722   2.710  1.00  0.00    -0.382 OA
HETATM   16  C   UNL     1      43.601 -18.231   2.721  1.00  0.00     0.030 A 
ENDBRANCH   5   8
ENDBRANCH   1   2
BRANCH   1  17
HETATM   17  C   UNL     1      44.506 -14.397   7.252  1.00  0.00     0.026 C 
BRANCH  17  18
HETATM   18  C   UNL     1      45.545 -13.291   7.459  1.00  0.00     0.060 C 
BRANCH  18  19
HETATM   19  C   UNL     1      45.215 -12.353   8.567  1.00  0.00     0.030 A 
HETATM   20  N   UNL     1      45.971 -11.263   8.903  1.00  0.00    -0.282 N 
HETATM   21  H   UNL     1      46.820 -10.914   8.465  1.00  0.00     0.189 HD
HETATM   22  N   UNL     1      45.500 -10.593   9.966  1.00  0.00    -0.174 NA
HETATM   23  C   UNL     1      44.415 -11.276  10.361  1.00  0.00     0.089 A 
HETATM   24  C   UNL     1      44.190 -12.376   9.489  1.00  0.00     0.060 A 
BRANCH  23  25
HETATM   25  C   UNL     1      43.645 -10.877  11.547  1.00  0.00    -0.005 A 
HETATM   26  C   UNL     1      44.018  -9.762  12.318  1.00  0.00     0.017 A 
HETATM   27  C   UNL     1      43.262  -9.382  13.432  1.00  0.00     0.043 A 
HETATM   28  C   UNL     1      42.134 -10.114  13.782  1.00  0.00     0.116 A 
HETATM   29  F   UNL     1      41.412  -9.746  14.847  1.00  0.00    -0.206 F 
HETATM   30  C   UNL     1      41.745 -11.220  13.038  1.00  0.00     0.043 A 
HETATM   31  C   UNL     1      42.500 -11.599  11.925  1.00  0.00     0.017 A 
ENDBRANCH  23  25
ENDBRANCH  18  19
ENDBRANCH  17  18
ENDBRANCH   1  17
TORSDOF 6
ENDMDL
MODEL 3
REMARK VINA RESULT:      -9.5      6.121      7.105
REMARK  6 active torsions:
REMARK  status: ('A' for Active; 'I' for Inactive)
REMARK       I    between atoms: N_2  and  C_3 
REMARK    1  A    between atoms: N_2  and  C_15 
REMARK       I    between atoms: C_3  and  N_4 
REMARK    2  A    between atoms: N_4  and  C_5 
REMARK    3  A    between atoms: C_15  and  C_16 
REMARK    4  A    between atoms: C_16  and  C_17 
REMARK    5  A    between atoms: C_17  and  C_18 
REMARK    6  A    between atoms: C_22  and  C_23 
ROOT
HETATM    1  C   UNL     1      40.632 -13.869   0.728  1.00  0.00     0.127 C 
ENDROOT
BRANCH   1   2
HETATM    2  N   UNL     1      41.523 -13.074   1.579  1.00  0.00    -0.338 N 
HETATM    3  C   UNL     1      41.544 -11.640   1.307  1.00  0.00     0.154 C 
HETATM    4  C   UNL     1      41.981 -13.466   2.838  1.00  0.00     0.322 C 
HETATM    5  N   UNL     1      42.048 -14.822   3.034  1.00  0.00    -0.309 N 
HETATM    6  O   UNL     1      42.218 -12.625   3.701  1.00  0.00    -0.247 OA
HETATM    7  H   UNL     1      42.064 -15.390   2.205  1.00  0.00     0.170 HD
BRANCH   5   8
HETATM    8  C   UNL     1      42.259 -15.511   4.250  1.00  0.00     0.036 A 
HETATM    9  C   UNL     1      43.513 -15.935   4.699  1.00  0.00     0.039 A 
HETATM   10  C   UNL     1      43.599 -16.590   5.920  1.00  0.00    -0.024 A 
HETATM   11  C   UNL     1      42.481 -16.805   6.707  1.00  0.00    -0.026 A 
HETATM   12  C   UNL     1      44.797 -17.135   6.607  1.00  0.00     0.207 C 
HETATM   13  C   UNL     1      42.890 -17.481   7.962  1.00  0.00     0.207 C 
HETATM   14  C   UNL     1      41.231 -16.385   6.294  1.00  0.00     0.012 A 
HETATM   15  O   UNL     1      44.266 -17.866   7.738  1.00  0.00    -0.382 OA
HETATM   16  C   UNL     1      41.125 -15.745   5.054  1.00  0.00     0.030 A 
ENDBRANCH   5   8
ENDBRANCH   1   2
BRANCH   1  17
HETATM   17  C   UNL     1      41.367 -14.840  -0.209  1.00  0.00     0.026 C 
BRANCH  17  18
HETATM   18  C   UNL     1      41.018 -16.314   0.021  1.00  0.00     0.060 C 
BRANCH  18  19
HETATM   19  C   UNL     1      42.078 -17.082   0.730  1.00  0.00     0.030 A 
HETATM   20  N   UNL     1      43.413 -16.792   0.661  1.00  0.00    -0.282 N 
HETATM   21  H   UNL     1      43.879 -16.036   0.165  1.00  0.00     0.189 HD
HETATM   22  N   UNL     1      44.184 -17.653   1.345  1.00  0.00    -0.174 NA
HETATM   23  C   UNL     1      43.333 -18.554   1.861  1.00  0.00     0.089 A 
HETATM   24  C   UNL     1      41.996 -18.212   1.515  1.00  0.00     0.060 A 
BRANCH  23  25
HETATM   25  C   UNL     1      43.811 -19.702   2.642  1.00  0.00    -0.005 A 
HETATM   26  C   UNL     1      43.920 -20.981   2.069  1.00  0.00     0.017 A 
HETATM   27  C   UNL     1      44.397 -22.060   2.820  1.00  0.00     0.043 A 
HETATM   28  C   UNL     1      44.765 -21.867   4.145  1.00  0.00     0.116 A 
HETATM   29  F   UNL     1      45.224 -22.902   4.860  1.00  0.00    -0.206 F 
HETATM   30  C   UNL     1      44.666 -20.615   4.737  1.00  0.00     0.043 A 
HETATM   31  C   UNL     1      44.190 -19.537   3.986  1.00  0.00     0.017 A 
ENDBRANCH  23  25
ENDBRANCH  18  19
ENDBRANCH  17  18
ENDBRANCH   1  17
TORSDOF 6
ENDMDL
MODEL 4
REMARK VINA RESULT:      -9.4      5.849      7.097
REMARK  6 active torsions:
REMARK  status: ('A' for Active; 'I' for Inactive)
REMARK       I    between atoms: N_2  and  C_3 
REMARK    1  A    between atoms: N_2  and  C_15 
REMARK       I    between atoms: C_3  and  N_4 
REMARK    2  A    between atoms: N_4  and  C_5 
REMARK    3  A    between atoms: C_15  and  C_16 
REMARK    4  A    between atoms: C_16  and  C_17 
REMARK    5  A    between atoms: C_17  and  C_18 
REMARK    6  A    between atoms: C_22  and  C_23 
ROOT
HETATM    1  C   UNL     1      41.757 -12.682   0.240  1.00  0.00     0.127 C 
ENDROOT
BRANCH   1   2
HETATM    2  N   UNL     1      41.511 -11.930   1.475  1.00  0.00    -0.338 N 
HETATM    3  C   UNL     1      40.780 -10.677   1.319  1.00  0.00     0.154 C 
HETATM    4  C   UNL     1      41.512 -12.484   2.757  1.00  0.00     0.322 C 
HETATM    5  N   UNL     1      42.288 -13.606   2.904  1.00  0.00    -0.309 N 
HETATM    6  O   UNL     1      40.792 -12.015   3.636  1.00  0.00    -0.247 OA
HETATM    7  H   UNL     1      42.998 -13.748   2.207  1.00  0.00     0.170 HD
BRANCH   5   8
HETATM    8  C   UNL     1      42.320 -14.499   3.999  1.00  0.00     0.036 A 
HETATM    9  C   UNL     1      43.418 -14.650   4.851  1.00  0.00     0.039 A 
HETATM   10  C   UNL     1      43.326 -15.548   5.906  1.00  0.00    -0.024 A 
HETATM   11  C   UNL     1      42.170 -16.270   6.144  1.00  0.00    -0.026 A 
HETATM   12  C   UNL     1      44.341 -15.889   6.934  1.00  0.00     0.207 C 
HETATM   13  C   UNL     1      42.357 -17.105   7.356  1.00  0.00     0.207 C 
HETATM   14  C   UNL     1      41.065 -16.131   5.326  1.00  0.00     0.012 A 
HETATM   15  O   UNL     1      43.770 -17.010   7.651  1.00  0.00    -0.382 OA
HETATM   16  C   UNL     1      41.150 -15.247   4.244  1.00  0.00     0.030 A 
ENDBRANCH   5   8
ENDBRANCH   1   2
BRANCH   1  17
HETATM   17  C   UNL     1      40.715 -13.776  -0.040  1.00  0.00     0.026 C 
BRANCH  17  18
HETATM   18  C   UNL     1      41.296 -15.042  -0.680  1.00  0.00     0.060 C 
BRANCH  18  19
HETATM   19  C   UNL     1      41.505 -16.161   0.279  1.00  0.00     0.030 A 
HETATM   20  N   UNL     1      40.513 -16.713   1.043  1.00  0.00    -0.282 N 
HETATM   21  H   UNL     1      39.522 -16.485   1.068  1.00  0.00     0.189 HD
HETATM   22  N   UNL     1      40.948 -17.678   1.869  1.00  0.00    -0.174 NA
HETATM   23  C   UNL     1      42.273 -17.748   1.662  1.00  0.00     0.089 A 
HETATM   24  C   UNL     1      42.655 -16.825   0.650  1.00  0.00     0.060 A 
BRANCH  23  25
HETATM   25  C   UNL     1      43.123 -18.665   2.432  1.00  0.00    -0.005 A 
HETATM   26  C   UNL     1      43.553 -18.345   3.732  1.00  0.00     0.017 A 
HETATM   27  C   UNL     1      44.345 -19.238   4.460  1.00  0.00     0.043 A 
HETATM   28  C   UNL     1      44.711 -20.453   3.894  1.00  0.00     0.116 A 
HETATM   29  F   UNL     1      45.467 -21.307   4.596  1.00  0.00    -0.206 F 
HETATM   30  C   UNL     1      44.302 -20.793   2.612  1.00  0.00     0.043 A 
HETATM   31  C   UNL     1      43.510 -19.901   1.884  1.00  0.00     0.017 A 
ENDBRANCH  23  25
ENDBRANCH  18  19
ENDBRANCH  17  18
ENDBRANCH   1  17
TORSDOF 6
ENDMDL
MODEL 5
REMARK VINA RESULT:      -9.1      2.332      2.974
REMARK  6 active torsions:
REMARK  status: ('A' for Active; 'I' for Inactive)
REMARK       I    between atoms: N_2  and  C_3 
REMARK    1  A    between atoms: N_2  and  C_15 
REMARK       I    between atoms: C_3  and  N_4 
REMARK    2  A    between atoms: N_4  and  C_5 
REMARK    3  A    between atoms: C_15  and  C_16 
REMARK    4  A    between atoms: C_16  and  C_17 
REMARK    5  A    between atoms: C_17  and  C_18 
REMARK    6  A    between atoms: C_22  and  C_23 
ROOT
HETATM    1  C   UNL     1      40.485 -12.358   6.331  1.00  0.00     0.127 C 
ENDROOT
BRANCH   1   2
HETATM    2  N   UNL     1      41.296 -11.141   6.225  1.00  0.00    -0.338 N 
HETATM    3  C   UNL     1      41.140 -10.382   4.988  1.00  0.00     0.154 C 
HETATM    4  C   UNL     1      41.827 -10.441   7.309  1.00  0.00     0.322 C 
HETATM    5  N   UNL     1      42.060 -11.197   8.430  1.00  0.00    -0.309 N 
HETATM    6  O   UNL     1      41.982  -9.224   7.247  1.00  0.00    -0.247 OA
HETATM    7  H   UNL     1      42.124 -12.191   8.289  1.00  0.00     0.170 HD
BRANCH   5   8
HETATM    8  C   UNL     1      42.380 -10.744   9.730  1.00  0.00     0.036 A 
HETATM    9  C   UNL     1      41.430 -10.331  10.669  1.00  0.00     0.039 A 
HETATM   10  C   UNL     1      41.863  -9.921  11.922  1.00  0.00    -0.024 A 
HETATM   11  C   UNL     1      43.204  -9.939  12.266  1.00  0.00    -0.026 A 
HETATM   12  C   UNL     1      41.064  -9.440  13.077  1.00  0.00     0.207 C 
HETATM   13  C   UNL     1      43.352  -9.493  13.673  1.00  0.00     0.207 C 
HETATM   14  C   UNL     1      44.163 -10.355  11.363  1.00  0.00     0.012 A 
HETATM   15  O   UNL     1      42.049  -8.980  14.033  1.00  0.00    -0.382 OA
HETATM   16  C   UNL     1      43.744 -10.749  10.087  1.00  0.00     0.030 A 
ENDBRANCH   5   8
ENDBRANCH   1   2
BRANCH   1  17
HETATM   17  C   UNL     1      40.764 -13.390   5.227  1.00  0.00     0.026 C 
BRANCH  17  18
HETATM   18  C   UNL     1      40.852 -14.835   5.730  1.00  0.00     0.060 C 
BRANCH  18  19
HETATM   19  C   UNL     1      41.785 -15.691   4.948  1.00  0.00     0.030 A 
HETATM   20  N   UNL     1      42.635 -15.221   3.985  1.00  0.00    -0.282 N 
HETATM   21  H   UNL     1      42.786 -14.263   3.676  1.00  0.00     0.189 HD
HETATM   22  N   UNL     1      43.345 -16.186   3.380  1.00  0.00    -0.174 NA
HETATM   23  C   UNL     1      42.932 -17.333   3.943  1.00  0.00     0.089 A 
HETATM   24  C   UNL     1      41.967 -17.058   4.951  1.00  0.00     0.060 A 
BRANCH  23  25
HETATM   25  C   UNL     1      43.447 -18.635   3.500  1.00  0.00    -0.005 A 
HETATM   26  C   UNL     1      44.360 -19.364   4.283  1.00  0.00     0.017 A 
HETATM   27  C   UNL     1      44.824 -20.612   3.857  1.00  0.00     0.043 A 
HETATM   28  C   UNL     1      44.381 -21.137   2.649  1.00  0.00     0.116 A 
HETATM   29  F   UNL     1      44.826 -22.334   2.247  1.00  0.00    -0.206 F 
HETATM   30  C   UNL     1      43.481 -20.438   1.857  1.00  0.00     0.043 A 
HETATM   31  C   UNL     1      43.016 -19.191   2.283  1.00  0.00     0.017 A 
ENDBRANCH  23  25
ENDBRANCH  18  19
ENDBRANCH  17  18
ENDBRANCH   1  17
TORSDOF 6
ENDMDL
MODEL 6
REMARK VINA RESULT:      -9.1      5.583      9.185
REMARK  6 active torsions:
REMARK  status: ('A' for Active; 'I' for Inactive)
REMARK       I    between atoms: N_2  and  C_3 
REMARK    1  A    between atoms: N_2  and  C_15 
REMARK       I    between atoms: C_3  and  N_4 
REMARK    2  A    between atoms: N_4  and  C_5 
REMARK    3  A    between atoms: C_15  and  C_16 
REMARK    4  A    between atoms: C_16  and  C_17 
REMARK    5  A    between atoms: C_17  and  C_18 
REMARK    6  A    between atoms: C_22  and  C_23 
ROOT
HETATM    1  C   UNL     1      42.135 -12.972   4.817  1.00  0.00     0.127 C 
ENDROOT
BRANCH   1   2
HETATM    2  N   UNL     1      41.069 -13.865   4.352  1.00  0.00    -0.338 N 
HETATM    3  C   UNL     1      40.023 -14.162   5.326  1.00  0.00     0.154 C 
HETATM    4  C   UNL     1      40.739 -14.082   3.014  1.00  0.00     0.322 C 
HETATM    5  N   UNL     1      41.767 -13.895   2.125  1.00  0.00    -0.309 N 
HETATM    6  O   UNL     1      39.581 -14.341   2.694  1.00  0.00    -0.247 OA
HETATM    7  H   UNL     1      42.696 -13.924   2.509  1.00  0.00     0.170 HD
BRANCH   5   8
HETATM    8  C   UNL     1      41.692 -13.826   0.715  1.00  0.00     0.036 A 
HETATM    9  C   UNL     1      41.282 -14.887  -0.097  1.00  0.00     0.039 A 
HETATM   10  C   UNL     1      41.232 -14.696  -1.471  1.00  0.00    -0.024 A 
HETATM   11  C   UNL     1      41.551 -13.478  -2.045  1.00  0.00    -0.026 A 
HETATM   12  C   UNL     1      40.839 -15.655  -2.535  1.00  0.00     0.207 C 
HETATM   13  C   UNL     1      41.361 -13.566  -3.513  1.00  0.00     0.207 C 
HETATM   14  C   UNL     1      41.947 -12.408  -1.265  1.00  0.00     0.012 A 
HETATM   15  O   UNL     1      41.159 -14.974  -3.772  1.00  0.00    -0.382 OA
HETATM   16  C   UNL     1      42.025 -12.592   0.119  1.00  0.00     0.030 A 
ENDBRANCH   5   8
ENDBRANCH   1   2
BRANCH   1  17
HETATM   17  C   UNL     1      43.430 -13.701   5.211  1.00  0.00     0.026 C 
BRANCH  17  18
HETATM   18  C   UNL     1      43.242 -14.765   6.297  1.00  0.00     0.060 C 
BRANCH  18  19
HETATM   19  C   UNL     1      43.633 -16.137   5.871  1.00  0.00     0.030 A 
HETATM   20  N   UNL     1      44.546 -16.915   6.529  1.00  0.00    -0.282 N 
HETATM   21  H   UNL     1      45.062 -16.712   7.382  1.00  0.00     0.189 HD
HETATM   22  N   UNL     1      44.772 -18.095   5.932  1.00  0.00    -0.174 NA
HETATM   23  C   UNL     1      44.004 -18.086   4.831  1.00  0.00     0.089 A 
HETATM   24  C   UNL     1      43.255 -16.879   4.773  1.00  0.00     0.060 A 
BRANCH  23  25
HETATM   25  C   UNL     1      44.019 -19.202   3.875  1.00  0.00    -0.005 A 
HETATM   26  C   UNL     1      44.681 -20.406   4.168  1.00  0.00     0.017 A 
HETATM   27  C   UNL     1      44.668 -21.466   3.256  1.00  0.00     0.043 A 
HETATM   28  C   UNL     1      43.995 -21.327   2.049  1.00  0.00     0.116 A 
HETATM   29  F   UNL     1      43.982 -22.346   1.179  1.00  0.00    -0.206 F 
HETATM   30  C   UNL     1      43.334 -20.148   1.734  1.00  0.00     0.043 A 
HETATM   31  C   UNL     1      43.347 -19.089   2.645  1.00  0.00     0.017 A 
ENDBRANCH  23  25
ENDBRANCH  18  19
ENDBRANCH  17  18
ENDBRANCH   1  17
TORSDOF 6
ENDMDL
MODEL 7
REMARK VINA RESULT:      -8.9      5.377      7.473
REMARK  6 active torsions:
REMARK  status: ('A' for Active; 'I' for Inactive)
REMARK       I    between atoms: N_2  and  C_3 
REMARK    1  A    between atoms: N_2  and  C_15 
REMARK       I    between atoms: C_3  and  N_4 
REMARK    2  A    between atoms: N_4  and  C_5 
REMARK    3  A    between atoms: C_15  and  C_16 
REMARK    4  A    between atoms: C_16  and  C_17 
REMARK    5  A    between atoms: C_17  and  C_18 
REMARK    6  A    between atoms: C_22  and  C_23 
ROOT
HETATM    1  C   UNL     1      44.537 -19.579   4.475  1.00  0.00     0.127 C 
ENDROOT
BRANCH   1   2
HETATM    2  N   UNL     1      43.699 -19.458   5.673  1.00  0.00    -0.338 N 
HETATM    3  C   UNL     1      43.887 -20.494   6.683  1.00  0.00     0.154 C 
HETATM    4  C   UNL     1      43.105 -18.274   6.112  1.00  0.00     0.322 C 
HETATM    5  N   UNL     1      42.846 -17.354   5.128  1.00  0.00    -0.309 N 
HETATM    6  O   UNL     1      42.920 -18.081   7.312  1.00  0.00    -0.247 OA
HETATM    7  H   UNL     1      42.815 -17.708   4.187  1.00  0.00     0.170 HD
BRANCH   5   8
HETATM    8  C   UNL     1      42.459 -16.004   5.284  1.00  0.00     0.036 A 
HETATM    9  C   UNL     1      41.138 -15.587   5.467  1.00  0.00     0.039 A 
HETATM   10  C   UNL     1      40.881 -14.232   5.627  1.00  0.00    -0.024 A 
HETATM   11  C   UNL     1      41.902 -13.297   5.635  1.00  0.00    -0.026 A 
HETATM   12  C   UNL     1      39.582 -13.544   5.830  1.00  0.00     0.207 C 
HETATM   13  C   UNL     1      41.328 -11.950   5.868  1.00  0.00     0.207 C 
HETATM   14  C   UNL     1      43.219 -13.683   5.470  1.00  0.00     0.012 A 
HETATM   15  O   UNL     1      39.899 -12.134   5.741  1.00  0.00    -0.382 OA
HETATM   16  C   UNL     1      43.491 -15.043   5.283  1.00  0.00     0.030 A 
ENDBRANCH   5   8
ENDBRANCH   1   2
BRANCH   1  17
HETATM   17  C   UNL     1      44.049 -20.641   3.478  1.00  0.00     0.026 C 
BRANCH  17  18
HETATM   18  C   UNL     1      44.028 -20.167   2.021  1.00  0.00     0.060 C 
BRANCH  18  19
HETATM   19  C   UNL     1      43.542 -18.770   1.848  1.00  0.00     0.030 A 
HETATM   20  N   UNL     1      44.352 -17.705   1.564  1.00  0.00    -0.282 N 
HETATM   21  H   UNL     1      45.357 -17.688   1.407  1.00  0.00     0.189 HD
HETATM   22  N   UNL     1      43.695 -16.536   1.501  1.00  0.00    -0.174 NA
HETATM   23  C   UNL     1      42.416 -16.835   1.778  1.00  0.00     0.089 A 
HETATM   24  C   UNL     1      42.278 -18.236   1.978  1.00  0.00     0.060 A 
BRANCH  23  25
HETATM   25  C   UNL     1      41.384 -15.793   1.858  1.00  0.00    -0.005 A 
HETATM   26  C   UNL     1      40.017 -16.120   1.896  1.00  0.00     0.017 A 
HETATM   27  C   UNL     1      39.048 -15.118   1.995  1.00  0.00     0.043 A 
HETATM   28  C   UNL     1      39.438 -13.785   2.054  1.00  0.00     0.116 A 
HETATM   29  F   UNL     1      38.506 -12.829   2.151  1.00  0.00    -0.206 F 
HETATM   30  C   UNL     1      40.780 -13.435   2.017  1.00  0.00     0.043 A 
HETATM   31  C   UNL     1      41.750 -14.436   1.919  1.00  0.00     0.017 A 
ENDBRANCH  23  25
ENDBRANCH  18  19
ENDBRANCH  17  18
ENDBRANCH   1  17
TORSDOF 6
ENDMDL
MODEL 8
REMARK VINA RESULT:      -8.9      6.561      9.463
REMARK  6 active torsions:
REMARK  status: ('A' for Active; 'I' for Inactive)
REMARK       I    between atoms: N_2  and  C_3 
REMARK    1  A    between atoms: N_2  and  C_15 
REMARK       I    between atoms: C_3  and  N_4 
REMARK    2  A    between atoms: N_4  and  C_5 
REMARK    3  A    between atoms: C_15  and  C_16 
REMARK    4  A    between atoms: C_16  and  C_17 
REMARK    5  A    between atoms: C_17  and  C_18 
REMARK    6  A    between atoms: C_22  and  C_23 
ROOT
HETATM    1  C   UNL     1      44.040 -19.554   5.053  1.00  0.00     0.127 C 
ENDROOT
BRANCH   1   2
HETATM    2  N   UNL     1      44.228 -19.592   3.599  1.00  0.00    -0.338 N 
HETATM    3  C   UNL     1      44.809 -20.822   3.068  1.00  0.00     0.154 C 
HETATM    4  C   UNL     1      43.532 -18.799   2.685  1.00  0.00     0.322 C 
HETATM    5  N   UNL     1      43.083 -17.601   3.181  1.00  0.00    -0.309 N 
HETATM    6  O   UNL     1      43.294 -19.218   1.555  1.00  0.00    -0.247 OA
HETATM    7  H   UNL     1      43.533 -17.270   4.017  1.00  0.00     0.170 HD
BRANCH   5   8
HETATM    8  C   UNL     1      42.179 -16.699   2.577  1.00  0.00     0.036 A 
HETATM    9  C   UNL     1      42.570 -15.563   1.862  1.00  0.00     0.039 A 
HETATM   10  C   UNL     1      41.591 -14.758   1.297  1.00  0.00    -0.024 A 
HETATM   11  C   UNL     1      40.246 -15.070   1.405  1.00  0.00    -0.026 A 
HETATM   12  C   UNL     1      41.746 -13.512   0.505  1.00  0.00     0.207 C 
HETATM   13  C   UNL     1      39.450 -14.058   0.668  1.00  0.00     0.207 C 
HETATM   14  C   UNL     1      39.832 -16.193   2.094  1.00  0.00     0.012 A 
HETATM   15  O   UNL     1      40.396 -13.012   0.347  1.00  0.00    -0.382 OA
HETATM   16  C   UNL     1      40.806 -17.002   2.689  1.00  0.00     0.030 A 
ENDBRANCH   5   8
ENDBRANCH   1   2
BRANCH   1  17
HETATM   17  C   UNL     1      45.127 -18.767   5.801  1.00  0.00     0.026 C 
BRANCH  17  18
HETATM   18  C   UNL     1      44.609 -17.982   7.011  1.00  0.00     0.060 C 
BRANCH  18  19
HETATM   19  C   UNL     1      43.494 -17.049   6.692  1.00  0.00     0.030 A 
HETATM   20  N   UNL     1      42.184 -17.277   7.014  1.00  0.00    -0.282 N 
HETATM   21  H   UNL     1      41.777 -18.062   7.517  1.00  0.00     0.189 HD
HETATM   22  N   UNL     1      41.351 -16.318   6.582  1.00  0.00    -0.174 NA
HETATM   23  C   UNL     1      42.132 -15.441   5.931  1.00  0.00     0.089 A 
HETATM   24  C   UNL     1      43.490 -15.856   6.000  1.00  0.00     0.060 A 
BRANCH  23  25
HETATM   25  C   UNL     1      41.568 -14.262   5.259  1.00  0.00    -0.005 A 
HETATM   26  C   UNL     1      42.398 -13.278   4.694  1.00  0.00     0.017 A 
HETATM   27  C   UNL     1      41.846 -12.172   4.039  1.00  0.00     0.043 A 
HETATM   28  C   UNL     1      40.465 -12.044   3.948  1.00  0.00     0.116 A 
HETATM   29  F   UNL     1      39.941 -10.985   3.318  1.00  0.00    -0.206 F 
HETATM   30  C   UNL     1      39.624 -13.000   4.499  1.00  0.00     0.043 A 
HETATM   31  C   UNL     1      40.175 -14.106   5.153  1.00  0.00     0.017 A 
ENDBRANCH  23  25
ENDBRANCH  18  19
ENDBRANCH  17  18
ENDBRANCH   1  17
TORSDOF 6
ENDMDL
MODEL 9
REMARK VINA RESULT:      -8.5      6.713      9.915
REMARK  6 active torsions:
REMARK  status: ('A' for Active; 'I' for Inactive)
REMARK       I    between atoms: N_2  and  C_3 
REMARK    1  A    between atoms: N_2  and  C_15 
REMARK       I    between atoms: C_3  and  N_4 
REMARK    2  A    between atoms: N_4  and  C_5 
REMARK    3  A    between atoms: C_15  and  C_16 
REMARK    4  A    between atoms: C_16  and  C_17 
REMARK    5  A    between atoms: C_17  and  C_18 
REMARK    6  A    between atoms: C_22  and  C_23 
ROOT
HETATM    1  C   UNL     1      38.740 -13.720   0.954  1.00  0.00     0.127 C 
ENDROOT
BRANCH   1   2
HETATM    2  N   UNL     1      39.507 -14.170  -0.213  1.00  0.00    -0.338 N 
HETATM    3  C   UNL     1      39.420 -13.317  -1.394  1.00  0.00     0.154 C 
HETATM    4  C   UNL     1      40.601 -15.035  -0.160  1.00  0.00     0.322 C 
HETATM    5  N   UNL     1      40.609 -15.897   0.907  1.00  0.00    -0.309 N 
HETATM    6  O   UNL     1      41.507 -14.940  -0.985  1.00  0.00    -0.247 OA
HETATM    7  H   UNL     1      39.725 -16.046   1.363  1.00  0.00     0.170 HD
BRANCH   5   8
HETATM    8  C   UNL     1      41.668 -16.724   1.345  1.00  0.00     0.036 A 
HETATM    9  C   UNL     1      41.599 -18.119   1.395  1.00  0.00     0.039 A 
HETATM   10  C   UNL     1      42.712 -18.827   1.828  1.00  0.00    -0.024 A 
HETATM   11  C   UNL     1      43.886 -18.186   2.182  1.00  0.00    -0.026 A 
HETATM   12  C   UNL     1      42.888 -20.294   1.973  1.00  0.00     0.207 C 
HETATM   13  C   UNL     1      44.903 -19.200   2.554  1.00  0.00     0.207 C 
HETATM   14  C   UNL     1      43.987 -16.809   2.129  1.00  0.00     0.012 A 
HETATM   15  O   UNL     1      44.166 -20.442   2.636  1.00  0.00    -0.382 OA
HETATM   16  C   UNL     1      42.866 -16.079   1.718  1.00  0.00     0.030 A 
ENDBRANCH   5   8
ENDBRANCH   1   2
BRANCH   1  17
HETATM   17  C   UNL     1      39.424 -12.603   1.756  1.00  0.00     0.026 C 
BRANCH  17  18
HETATM   18  C   UNL     1      39.121 -12.637   3.257  1.00  0.00     0.060 C 
BRANCH  18  19
HETATM   19  C   UNL     1      40.130 -13.382   4.060  1.00  0.00     0.030 A 
HETATM   20  N   UNL     1      41.020 -12.791   4.916  1.00  0.00    -0.282 N 
HETATM   21  H   UNL     1      41.121 -11.808   5.155  1.00  0.00     0.189 HD
HETATM   22  N   UNL     1      41.864 -13.661   5.492  1.00  0.00    -0.174 NA
HETATM   23  C   UNL     1      41.540 -14.859   4.982  1.00  0.00     0.089 A 
HETATM   24  C   UNL     1      40.436 -14.725   4.095  1.00  0.00     0.060 A 
BRANCH  23  25
HETATM   25  C   UNL     1      42.287 -16.073   5.336  1.00  0.00    -0.005 A 
HETATM   26  C   UNL     1      43.576 -16.000   5.893  1.00  0.00     0.017 A 
HETATM   27  C   UNL     1      44.266 -17.165   6.244  1.00  0.00     0.043 A 
HETATM   28  C   UNL     1      43.673 -18.405   6.040  1.00  0.00     0.116 A 
HETATM   29  F   UNL     1      44.337 -19.517   6.380  1.00  0.00    -0.206 F 
HETATM   30  C   UNL     1      42.403 -18.505   5.490  1.00  0.00     0.043 A 
HETATM   31  C   UNL     1      41.713 -17.341   5.140  1.00  0.00     0.017 A 
ENDBRANCH  23  25
ENDBRANCH  18  19
ENDBRANCH  17  18
ENDBRANCH   1  17
TORSDOF 6
ENDMDL
MODEL 10
REMARK VINA RESULT:      -8.3      7.482     11.547
REMARK  6 active torsions:
REMARK  status: ('A' for Active; 'I' for Inactive)
REMARK       I    between atoms: N_2  and  C_3 
REMARK    1  A    between atoms: N_2  and  C_15 
REMARK       I    between atoms: C_3  and  N_4 
REMARK    2  A    between atoms: N_4  and  C_5 
REMARK    3  A    between atoms: C_15  and  C_16 
REMARK    4  A    between atoms: C_16  and  C_17 
REMARK    5  A    between atoms: C_17  and  C_18 
REMARK    6  A    between atoms: C_22  and  C_23 
ROOT
HETATM    1  C   UNL     1      42.272 -14.436   2.983  1.00  0.00     0.127 C 
ENDROOT
BRANCH   1   2
HETATM    2  N   UNL     1      41.727 -15.183   4.122  1.00  0.00    -0.338 N 
HETATM    3  C   UNL     1      40.518 -14.628   4.723  1.00  0.00     0.154 C 
HETATM    4  C   UNL     1      41.977 -16.531   4.382  1.00  0.00     0.322 C 
HETATM    5  N   UNL     1      43.169 -17.005   3.893  1.00  0.00    -0.309 N 
HETATM    6  O   UNL     1      41.129 -17.224   4.940  1.00  0.00    -0.247 OA
HETATM    7  H   UNL     1      43.866 -16.314   3.677  1.00  0.00     0.170 HD
BRANCH   5   8
HETATM    8  C   UNL     1      43.596 -18.350   3.807  1.00  0.00     0.036 A 
HETATM    9  C   UNL     1      43.482 -19.132   2.655  1.00  0.00     0.039 A 
HETATM   10  C   UNL     1      43.954 -20.438   2.685  1.00  0.00    -0.024 A 
HETATM   11  C   UNL     1      44.553 -20.966   3.815  1.00  0.00    -0.026 A 
HETATM   12  C   UNL     1      43.945 -21.460   1.608  1.00  0.00     0.207 C 
HETATM   13  C   UNL     1      44.992 -22.354   3.531  1.00  0.00     0.207 C 
HETATM   14  C   UNL     1      44.691 -20.210   4.964  1.00  0.00     0.012 A 
HETATM   15  O   UNL     1      44.384 -22.676   2.259  1.00  0.00    -0.382 OA
HETATM   16  C   UNL     1      44.199 -18.900   4.957  1.00  0.00     0.030 A 
ENDBRANCH   5   8
ENDBRANCH   1   2
BRANCH   1  17
HETATM   17  C   UNL     1      41.275 -14.245   1.830  1.00  0.00     0.026 C 
BRANCH  17  18
HETATM   18  C   UNL     1      41.601 -15.068   0.580  1.00  0.00     0.060 C 
BRANCH  18  19
HETATM   19  C   UNL     1      41.663 -14.265  -0.672  1.00  0.00     0.030 A 
HETATM   20  N   UNL     1      41.614 -14.799  -1.931  1.00  0.00    -0.282 N 
HETATM   21  H   UNL     1      41.506 -15.771  -2.210  1.00  0.00     0.189 HD
HETATM   22  N   UNL     1      41.736 -13.884  -2.906  1.00  0.00    -0.174 NA
HETATM   23  C   UNL     1      41.898 -12.713  -2.271  1.00  0.00     0.089 A 
HETATM   24  C   UNL     1      41.833 -12.910  -0.864  1.00  0.00     0.060 A 
BRANCH  23  25
HETATM   25  C   UNL     1      42.122 -11.463  -3.009  1.00  0.00    -0.005 A 
HETATM   26  C   UNL     1      42.227 -10.229  -2.343  1.00  0.00     0.017 A 
HETATM   27  C   UNL     1      42.461  -9.051  -3.060  1.00  0.00     0.043 A 
HETATM   28  C   UNL     1      42.590  -9.100  -4.442  1.00  0.00     0.116 A 
HETATM   29  F   UNL     1      42.818  -7.970  -5.124  1.00  0.00    -0.206 F 
HETATM   30  C   UNL     1      42.489 -10.304  -5.124  1.00  0.00     0.043 A 
HETATM   31  C   UNL     1      42.255 -11.482  -4.409  1.00  0.00     0.017 A 
ENDBRANCH  23  25
ENDBRANCH  18  19
ENDBRANCH  17  18
ENDBRANCH   1  17
TORSDOF 6
ENDMDL
