MODEL 1
REMARK VINA RESULT:      -9.7      0.000      0.000
REMARK  7 active torsions:
REMARK  status: ('A' for Active; 'I' for Inactive)
REMARK    1  A    between atoms: C_4  and  N_5 
REMARK    2  A    between atoms: C_6  and  S_7 
REMARK    3  A    between atoms: S_7  and  C_8 
REMARK    4  A    between atoms: C_8  and  C_9 
REMARK       I    between atoms: C_9  and  N_10 
REMARK    5  A    between atoms: N_10  and  C_11 
REMARK    6  A    between atoms: C_24  and  C_25 
REMARK    7  A    between atoms: C_26  and  O_27 
ROOT
HETATM    1  N   UNL     1      43.596 -17.170   4.817  1.00  0.00    -0.271 N 
HETATM    2  C   UNL     1      44.032 -16.490   5.946  1.00  0.00     0.197 A 
HETATM    3  N   UNL     1      44.681 -17.306   6.746  1.00  0.00    -0.122 NA
HETATM    4  N   UNL     1      44.724 -18.530   6.157  1.00  0.00    -0.128 NA
HETATM    5  C   UNL     1      44.143 -18.448   4.971  1.00  0.00     0.172 A 
ENDROOT
BRANCH   2   6
HETATM    6  S   UNL     1      43.652 -14.850   6.388  1.00  0.00    -0.080 SA
BRANCH   6   7
HETATM    7  C   UNL     1      45.339 -14.199   6.614  1.00  0.00     0.185 C 
BRANCH   7   8
HETATM    8  C   UNL     1      45.433 -13.183   7.741  1.00  0.00     0.231 C 
HETATM    9  N   UNL     1      44.263 -13.036   8.467  1.00  0.00    -0.326 N 
HETATM   10  H   UNL     1      43.579 -13.775   8.356  1.00  0.00     0.169 HD
HETATM   11  O   UNL     1      46.455 -12.518   7.888  1.00  0.00    -0.272 OA
BRANCH   9  12
HETATM   12  C   UNL     1      43.955 -12.022   9.397  1.00  0.00     0.037 A 
HETATM   13  C   UNL     1      43.000 -11.026   9.172  1.00  0.00     0.069 A 
HETATM   14  C   UNL     1      42.710 -10.091  10.169  1.00  0.00     0.104 A 
HETATM   15  C   UNL     1      43.401 -10.116  11.382  1.00  0.00     0.102 A 
HETATM   16  O   UNL     1      41.727  -9.175   9.886  1.00  0.00    -0.346 OA
HETATM   17  O   UNL     1      43.189  -9.210  12.390  1.00  0.00    -0.346 OA
HETATM   18  C   UNL     1      44.346 -11.107  11.619  1.00  0.00     0.042 A 
HETATM   19  C   UNL     1      42.441  -8.078  11.926  1.00  0.00     0.202 C 
HETATM   20  C   UNL     1      41.264  -8.524  11.073  1.00  0.00     0.202 C 
HETATM   21  C   UNL     1      44.618 -12.061  10.632  1.00  0.00     0.032 A 
ENDBRANCH   9  12
ENDBRANCH   7   8
ENDBRANCH   6   7
ENDBRANCH   2   6
BRANCH   1  22
HETATM   22  C   UNL     1      42.745 -16.719   3.767  1.00  0.00     0.043 A 
HETATM   23  C   UNL     1      43.243 -15.925   2.726  1.00  0.00     0.030 A 
HETATM   24  C   UNL     1      42.396 -15.511   1.695  1.00  0.00     0.002 A 
HETATM   25  C   UNL     1      41.052 -15.883   1.696  1.00  0.00     0.000 A 
HETATM   26  C   UNL     1      40.550 -16.670   2.730  1.00  0.00     0.002 A 
HETATM   27  C   UNL     1      41.391 -17.087   3.764  1.00  0.00     0.030 A 
ENDBRANCH   1  22
BRANCH   5  28
HETATM   28  C   UNL     1      44.162 -19.558   4.012  1.00  0.00     0.045 A 
HETATM   29  C   UNL     1      44.447 -20.863   4.446  1.00  0.00     0.079 A 
HETATM   30  C   UNL     1      44.470 -21.933   3.552  1.00  0.00     0.037 A 
HETATM   31  C   UNL     1      44.243 -21.707   2.196  1.00  0.00     0.003 A 
HETATM   32  C   UNL     1      43.996 -20.414   1.739  1.00  0.00     0.001 A 
HETATM   33  C   UNL     1      43.962 -19.345   2.639  1.00  0.00     0.018 A 
BRANCH  29  34
HETATM   34  O   UNL     1      44.720 -21.162   5.755  1.00  0.00    -0.360 OA
HETATM   35  H   UNL     1      44.816 -20.320   6.245  1.00  0.00     0.217 HD
ENDBRANCH  29  34
ENDBRANCH   5  28
TORSDOF 7
ENDMDL
MODEL 2
REMARK VINA RESULT:      -9.7      4.578      7.779
REMARK  7 active torsions:
REMARK  status: ('A' for Active; 'I' for Inactive)
REMARK    1  A    between atoms: C_4  and  N_5 
REMARK    2  A    between atoms: C_6  and  S_7 
REMARK    3  A    between atoms: S_7  and  C_8 
REMARK    4  A    between atoms: C_8  and  C_9 
REMARK       I    between atoms: C_9  and  N_10 
REMARK    5  A    between atoms: N_10  and  C_11 
REMARK    6  A    between atoms: C_24  and  C_25 
REMARK    7  A    between atoms: C_26  and  O_27 
ROOT
HETATM    1  N   UNL     1      43.496 -16.735   4.894  1.00  0.00    -0.271 N 
HETATM    2  C   UNL     1      43.600 -15.528   5.572  1.00  0.00     0.197 A 
HETATM    3  N   UNL     1      43.918 -15.739   6.829  1.00  0.00    -0.122 NA
HETATM    4  N   UNL     1      44.068 -17.078   7.008  1.00  0.00    -0.128 NA
HETATM    5  C   UNL     1      43.890 -17.681   5.845  1.00  0.00     0.172 A 
ENDROOT
BRANCH   2   6
HETATM    6  S   UNL     1      43.201 -13.948   4.958  1.00  0.00    -0.080 SA
BRANCH   6   7
HETATM    7  C   UNL     1      41.385 -14.089   4.919  1.00  0.00     0.185 C 
BRANCH   7   8
HETATM    8  C   UNL     1      40.773 -13.485   3.666  1.00  0.00     0.231 C 
HETATM    9  N   UNL     1      40.116 -14.401   2.861  1.00  0.00    -0.326 N 
HETATM   10  H   UNL     1      39.884 -15.285   3.298  1.00  0.00     0.169 HD
HETATM   11  O   UNL     1      40.958 -12.300   3.399  1.00  0.00    -0.272 OA
BRANCH   9  12
HETATM   12  C   UNL     1      39.665 -14.209   1.539  1.00  0.00     0.037 A 
HETATM   13  C   UNL     1      40.505 -14.226   0.422  1.00  0.00     0.069 A 
HETATM   14  C   UNL     1      39.972 -14.087  -0.862  1.00  0.00     0.104 A 
HETATM   15  C   UNL     1      38.601 -13.887  -1.039  1.00  0.00     0.102 A 
HETATM   16  O   UNL     1      40.858 -14.163  -1.908  1.00  0.00    -0.346 OA
HETATM   17  O   UNL     1      38.017 -13.712  -2.267  1.00  0.00    -0.346 OA
HETATM   18  C   UNL     1      37.756 -13.876   0.065  1.00  0.00     0.042 A 
HETATM   19  C   UNL     1      38.996 -13.434  -3.277  1.00  0.00     0.202 C 
HETATM   20  C   UNL     1      40.181 -14.376  -3.150  1.00  0.00     0.202 C 
HETATM   21  C   UNL     1      38.285 -14.043   1.350  1.00  0.00     0.032 A 
ENDBRANCH   9  12
ENDBRANCH   7   8
ENDBRANCH   6   7
ENDBRANCH   2   6
BRANCH   1  22
HETATM   22  C   UNL     1      43.042 -16.985   3.567  1.00  0.00     0.043 A 
HETATM   23  C   UNL     1      43.889 -16.795   2.467  1.00  0.00     0.030 A 
HETATM   24  C   UNL     1      43.430 -17.067   1.175  1.00  0.00     0.002 A 
HETATM   25  C   UNL     1      42.130 -17.527   0.973  1.00  0.00     0.000 A 
HETATM   26  C   UNL     1      41.282 -17.715   2.062  1.00  0.00     0.002 A 
HETATM   27  C   UNL     1      41.734 -17.445   3.356  1.00  0.00     0.030 A 
ENDBRANCH   1  22
BRANCH   5  28
HETATM   28  C   UNL     1      44.139 -19.116   5.662  1.00  0.00     0.045 A 
HETATM   29  C   UNL     1      43.866 -20.020   6.701  1.00  0.00     0.079 A 
HETATM   30  C   UNL     1      44.096 -21.387   6.548  1.00  0.00     0.037 A 
HETATM   31  C   UNL     1      44.637 -21.869   5.359  1.00  0.00     0.003 A 
HETATM   32  C   UNL     1      44.950 -20.985   4.329  1.00  0.00     0.001 A 
HETATM   33  C   UNL     1      44.709 -19.616   4.480  1.00  0.00     0.018 A 
BRANCH  29  34
HETATM   34  O   UNL     1      43.370 -19.621   7.915  1.00  0.00    -0.360 OA
HETATM   35  H   UNL     1      43.735 -20.215   8.602  1.00  0.00     0.217 HD
ENDBRANCH  29  34
ENDBRANCH   5  28
TORSDOF 7
ENDMDL
MODEL 3
REMARK VINA RESULT:      -9.6      3.286      9.729
REMARK  7 active torsions:
REMARK  status: ('A' for Active; 'I' for Inactive)
REMARK    1  A    between atoms: C_4  and  N_5 
REMARK    2  A    between atoms: C_6  and  S_7 
REMARK    3  A    between atoms: S_7  and  C_8 
REMARK    4  A    between atoms: C_8  and  C_9 
REMARK       I    between atoms: C_9  and  N_10 
REMARK    5  A    between atoms: N_10  and  C_11 
REMARK    6  A    between atoms: C_24  and  C_25 
REMARK    7  A    between atoms: C_26  and  O_27 
ROOT
HETATM    1  N   UNL     1      41.926 -13.038   4.911  1.00  0.00    -0.271 N 
HETATM    2  C   UNL     1      42.004 -12.838   3.539  1.00  0.00     0.197 A 
HETATM    3  N   UNL     1      41.225 -11.842   3.180  1.00  0.00    -0.122 NA
HETATM    4  N   UNL     1      40.643 -11.336   4.299  1.00  0.00    -0.128 NA
HETATM    5  C   UNL     1      41.106 -11.992   5.350  1.00  0.00     0.172 A 
ENDROOT
BRANCH   2   6
HETATM    6  S   UNL     1      42.841 -13.836   2.385  1.00  0.00    -0.080 SA
BRANCH   6   7
HETATM    7  C   UNL     1      41.484 -14.956   1.911  1.00  0.00     0.185 C 
BRANCH   7   8
HETATM    8  C   UNL     1      41.627 -16.344   2.513  1.00  0.00     0.231 C 
HETATM    9  N   UNL     1      42.940 -16.753   2.683  1.00  0.00    -0.326 N 
HETATM   10  H   UNL     1      43.638 -16.019   2.646  1.00  0.00     0.169 HD
HETATM   11  O   UNL     1      40.631 -17.031   2.724  1.00  0.00    -0.272 OA
BRANCH   9  12
HETATM   12  C   UNL     1      43.400 -18.051   2.981  1.00  0.00     0.037 A 
HETATM   13  C   UNL     1      43.739 -18.478   4.268  1.00  0.00     0.069 A 
HETATM   14  C   UNL     1      44.131 -19.801   4.491  1.00  0.00     0.104 A 
HETATM   15  C   UNL     1      44.228 -20.697   3.424  1.00  0.00     0.102 A 
HETATM   16  O   UNL     1      44.402 -20.152   5.790  1.00  0.00    -0.346 OA
HETATM   17  O   UNL     1      44.636 -21.998   3.567  1.00  0.00    -0.346 OA
HETATM   18  C   UNL     1      43.885 -20.284   2.142  1.00  0.00     0.042 A 
HETATM   19  C   UNL     1      45.249 -22.217   4.845  1.00  0.00     0.202 C 
HETATM   20  C   UNL     1      44.429 -21.573   5.951  1.00  0.00     0.202 C 
HETATM   21  C   UNL     1      43.466 -18.968   1.921  1.00  0.00     0.032 A 
ENDBRANCH   9  12
ENDBRANCH   7   8
ENDBRANCH   6   7
ENDBRANCH   2   6
BRANCH   1  22
HETATM   22  C   UNL     1      42.486 -14.082   5.701  1.00  0.00     0.043 A 
HETATM   23  C   UNL     1      41.777 -15.267   5.938  1.00  0.00     0.030 A 
HETATM   24  C   UNL     1      42.355 -16.288   6.697  1.00  0.00     0.002 A 
HETATM   25  C   UNL     1      43.636 -16.134   7.224  1.00  0.00     0.000 A 
HETATM   26  C   UNL     1      44.345 -14.957   6.995  1.00  0.00     0.002 A 
HETATM   27  C   UNL     1      43.774 -13.933   6.237  1.00  0.00     0.030 A 
ENDBRANCH   1  22
BRANCH   5  28
HETATM   28  C   UNL     1      40.797 -11.586   6.725  1.00  0.00     0.045 A 
HETATM   29  C   UNL     1      39.586 -11.972   7.322  1.00  0.00     0.079 A 
HETATM   30  C   UNL     1      39.273 -11.597   8.627  1.00  0.00     0.037 A 
HETATM   31  C   UNL     1      40.155 -10.796   9.349  1.00  0.00     0.003 A 
HETATM   32  C   UNL     1      41.345 -10.370   8.762  1.00  0.00     0.001 A 
HETATM   33  C   UNL     1      41.662 -10.757   7.456  1.00  0.00     0.018 A 
BRANCH  29  34
HETATM   34  O   UNL     1      38.648 -12.726   6.666  1.00  0.00    -0.360 OA
HETATM   35  H   UNL     1      38.890 -12.755   5.718  1.00  0.00     0.217 HD
ENDBRANCH  29  34
ENDBRANCH   5  28
TORSDOF 7
ENDMDL
MODEL 4
REMARK VINA RESULT:      -9.5      3.208      4.546
REMARK  7 active torsions:
REMARK  status: ('A' for Active; 'I' for Inactive)
REMARK    1  A    between atoms: C_4  and  N_5 
REMARK    2  A    between atoms: C_6  and  S_7 
REMARK    3  A    between atoms: S_7  and  C_8 
REMARK    4  A    between atoms: C_8  and  C_9 
REMARK       I    between atoms: C_9  and  N_10 
REMARK    5  A    between atoms: N_10  and  C_11 
REMARK    6  A    between atoms: C_24  and  C_25 
REMARK    7  A    between atoms: C_26  and  O_27 
ROOT
HETATM    1  N   UNL     1      41.256 -14.275   4.696  1.00  0.00    -0.271 N 
HETATM    2  C   UNL     1      40.346 -13.242   4.880  1.00  0.00     0.197 A 
HETATM    3  N   UNL     1      39.810 -12.899   3.730  1.00  0.00    -0.122 NA
HETATM    4  N   UNL     1      40.318 -13.712   2.767  1.00  0.00    -0.128 NA
HETATM    5  C   UNL     1      41.129 -14.587   3.339  1.00  0.00     0.172 A 
ENDROOT
BRANCH   2   6
HETATM    6  S   UNL     1      40.049 -12.363   6.352  1.00  0.00    -0.080 SA
BRANCH   6   7
HETATM    7  C   UNL     1      40.881 -10.794   5.941  1.00  0.00     0.185 C 
BRANCH   7   8
HETATM    8  C   UNL     1      41.600 -10.179   7.130  1.00  0.00     0.231 C 
HETATM    9  N   UNL     1      41.788 -11.051   8.190  1.00  0.00    -0.326 N 
HETATM   10  H   UNL     1      41.678 -12.035   7.975  1.00  0.00     0.169 HD
HETATM   11  O   UNL     1      41.883  -8.983   7.128  1.00  0.00    -0.272 OA
BRANCH   9  12
HETATM   12  C   UNL     1      42.192 -10.730   9.501  1.00  0.00     0.037 A 
HETATM   13  C   UNL     1      41.305 -10.563  10.568  1.00  0.00     0.069 A 
HETATM   14  C   UNL     1      41.789 -10.303  11.853  1.00  0.00     0.104 A 
HETATM   15  C   UNL     1      43.161 -10.165  12.075  1.00  0.00     0.102 A 
HETATM   16  O   UNL     1      40.855 -10.199  12.853  1.00  0.00    -0.346 OA
HETATM   17  O   UNL     1      43.702  -9.879  13.302  1.00  0.00    -0.346 OA
HETATM   18  C   UNL     1      44.053 -10.337  11.022  1.00  0.00     0.042 A 
HETATM   19  C   UNL     1      42.700  -9.424  14.221  1.00  0.00     0.202 C 
HETATM   20  C   UNL     1      41.462 -10.302  14.145  1.00  0.00     0.202 C 
HETATM   21  C   UNL     1      43.570 -10.625   9.740  1.00  0.00     0.032 A 
ENDBRANCH   9  12
ENDBRANCH   7   8
ENDBRANCH   6   7
ENDBRANCH   2   6
BRANCH   1  22
HETATM   22  C   UNL     1      42.158 -14.856   5.633  1.00  0.00     0.043 A 
HETATM   23  C   UNL     1      41.871 -16.084   6.243  1.00  0.00     0.030 A 
HETATM   24  C   UNL     1      42.781 -16.647   7.143  1.00  0.00     0.002 A 
HETATM   25  C   UNL     1      43.974 -15.991   7.439  1.00  0.00     0.000 A 
HETATM   26  C   UNL     1      44.264 -14.769   6.838  1.00  0.00     0.002 A 
HETATM   27  C   UNL     1      43.360 -14.200   5.938  1.00  0.00     0.030 A 
ENDBRANCH   1  22
BRANCH   5  28
HETATM   28  C   UNL     1      41.718 -15.708   2.597  1.00  0.00     0.045 A 
HETATM   29  C   UNL     1      40.893 -16.677   2.005  1.00  0.00     0.079 A 
HETATM   30  C   UNL     1      41.432 -17.750   1.296  1.00  0.00     0.037 A 
HETATM   31  C   UNL     1      42.814 -17.891   1.198  1.00  0.00     0.003 A 
HETATM   32  C   UNL     1      43.652 -16.961   1.811  1.00  0.00     0.001 A 
HETATM   33  C   UNL     1      43.109 -15.880   2.512  1.00  0.00     0.018 A 
BRANCH  29  34
HETATM   34  O   UNL     1      39.525 -16.633   2.089  1.00  0.00    -0.360 OA
HETATM   35  H   UNL     1      39.214 -15.860   1.574  1.00  0.00     0.217 HD
ENDBRANCH  29  34
ENDBRANCH   5  28
TORSDOF 7
ENDMDL
MODEL 5
REMARK VINA RESULT:      -9.4      5.857     10.286
REMARK  7 active torsions:
REMARK  status: ('A' for Active; 'I' for Inactive)
REMARK    1  A    between atoms: C_4  and  N_5 
REMARK    2  A    between atoms: C_6  and  S_7 
REMARK    3  A    between atoms: S_7  and  C_8 
REMARK    4  A    between atoms: C_8  and  C_9 
REMARK       I    between atoms: C_9  and  N_10 
REMARK    5  A    between atoms: N_10  and  C_11 
REMARK    6  A    between atoms: C_24  and  C_25 
REMARK    7  A    between atoms: C_26  and  O_27 
ROOT
HETATM    1  N   UNL     1      41.325 -12.954  -0.919  1.00  0.00    -0.271 N 
HETATM    2  C   UNL     1      41.511 -13.114   0.448  1.00  0.00     0.197 A 
HETATM    3  N   UNL     1      42.420 -12.272   0.884  1.00  0.00    -0.122 NA
HETATM    4  N   UNL     1      42.831 -11.511  -0.165  1.00  0.00    -0.128 NA
HETATM    5  C   UNL     1      42.134 -11.858  -1.235  1.00  0.00     0.172 A 
ENDROOT
BRANCH   2   6
HETATM    6  S   UNL     1      40.816 -14.350   1.457  1.00  0.00    -0.080 SA
BRANCH   6   7
HETATM    7  C   UNL     1      42.077 -14.410   2.773  1.00  0.00     0.185 C 
BRANCH   7   8
HETATM    8  C   UNL     1      42.214 -15.790   3.394  1.00  0.00     0.231 C 
HETATM    9  N   UNL     1      43.430 -16.405   3.142  1.00  0.00    -0.326 N 
HETATM   10  H   UNL     1      44.171 -15.797   2.815  1.00  0.00     0.169 HD
HETATM   11  O   UNL     1      41.263 -16.300   3.981  1.00  0.00    -0.272 OA
BRANCH   9  12
HETATM   12  C   UNL     1      43.769 -17.755   3.365  1.00  0.00     0.037 A 
HETATM   13  C   UNL     1      43.959 -18.308   4.635  1.00  0.00     0.069 A 
HETATM   14  C   UNL     1      44.236 -19.670   4.775  1.00  0.00     0.104 A 
HETATM   15  C   UNL     1      44.367 -20.483   3.648  1.00  0.00     0.102 A 
HETATM   16  O   UNL     1      44.362 -20.143   6.058  1.00  0.00    -0.346 OA
HETATM   17  O   UNL     1      44.668 -21.819   3.712  1.00  0.00    -0.346 OA
HETATM   18  C   UNL     1      44.171 -19.945   2.381  1.00  0.00     0.042 A 
HETATM   19  C   UNL     1      45.145 -22.186   5.014  1.00  0.00     0.202 C 
HETATM   20  C   UNL     1      44.275 -21.571   6.098  1.00  0.00     0.202 C 
HETATM   21  C   UNL     1      43.867 -18.586   2.240  1.00  0.00     0.032 A 
ENDBRANCH   9  12
ENDBRANCH   7   8
ENDBRANCH   6   7
ENDBRANCH   2   6
BRANCH   1  22
HETATM   22  C   UNL     1      40.550 -13.740  -1.820  1.00  0.00     0.043 A 
HETATM   23  C   UNL     1      39.264 -13.338  -2.204  1.00  0.00     0.030 A 
HETATM   24  C   UNL     1      38.529 -14.113  -3.105  1.00  0.00     0.002 A 
HETATM   25  C   UNL     1      39.069 -15.288  -3.625  1.00  0.00     0.000 A 
HETATM   26  C   UNL     1      40.346 -15.694  -3.245  1.00  0.00     0.002 A 
HETATM   27  C   UNL     1      41.086 -14.925  -2.345  1.00  0.00     0.030 A 
ENDBRANCH   1  22
BRANCH   5  28
HETATM   28  C   UNL     1      42.223 -11.119  -2.499  1.00  0.00     0.045 A 
HETATM   29  C   UNL     1      42.072  -9.723  -2.515  1.00  0.00     0.079 A 
HETATM   30  C   UNL     1      42.153  -9.001  -3.705  1.00  0.00     0.037 A 
HETATM   31  C   UNL     1      42.352  -9.672  -4.910  1.00  0.00     0.003 A 
HETATM   32  C   UNL     1      42.467 -11.060  -4.921  1.00  0.00     0.001 A 
HETATM   33  C   UNL     1      42.397 -11.781  -3.725  1.00  0.00     0.018 A 
BRANCH  29  34
HETATM   34  O   UNL     1      41.834  -8.993  -1.379  1.00  0.00    -0.360 OA
HETATM   35  H   UNL     1      41.156  -9.464  -0.853  1.00  0.00     0.217 HD
ENDBRANCH  29  34
ENDBRANCH   5  28
TORSDOF 7
ENDMDL
MODEL 6
REMARK VINA RESULT:      -9.2      5.457      8.919
REMARK  7 active torsions:
REMARK  status: ('A' for Active; 'I' for Inactive)
REMARK    1  A    between atoms: C_4  and  N_5 
REMARK    2  A    between atoms: C_6  and  S_7 
REMARK    3  A    between atoms: S_7  and  C_8 
REMARK    4  A    between atoms: C_8  and  C_9 
REMARK       I    between atoms: C_9  and  N_10 
REMARK    5  A    between atoms: N_10  and  C_11 
REMARK    6  A    between atoms: C_24  and  C_25 
REMARK    7  A    between atoms: C_26  and  O_27 
ROOT
HETATM    1  N   UNL     1      43.775 -17.458   3.866  1.00  0.00    -0.271 N 
HETATM    2  C   UNL     1      43.627 -16.438   2.935  1.00  0.00     0.197 A 
HETATM    3  N   UNL     1      44.039 -16.838   1.754  1.00  0.00    -0.122 NA
HETATM    4  N   UNL     1      44.434 -18.134   1.860  1.00  0.00    -0.128 NA
HETATM    5  C   UNL     1      44.215 -18.541   3.100  1.00  0.00     0.172 A 
ENDROOT
BRANCH   2   6
HETATM    6  S   UNL     1      43.148 -14.795   3.254  1.00  0.00    -0.080 SA
BRANCH   6   7
HETATM    7  C   UNL     1      41.346 -15.028   3.401  1.00  0.00     0.185 C 
BRANCH   7   8
HETATM    8  C   UNL     1      40.704 -15.494   2.105  1.00  0.00     0.231 C 
HETATM    9  N   UNL     1      40.987 -14.690   1.013  1.00  0.00    -0.326 N 
HETATM   10  H   UNL     1      41.772 -14.059   1.123  1.00  0.00     0.169 HD
HETATM   11  O   UNL     1      39.938 -16.455   2.107  1.00  0.00    -0.272 OA
BRANCH   9  12
HETATM   12  C   UNL     1      40.361 -14.710  -0.249  1.00  0.00     0.037 A 
HETATM   13  C   UNL     1      39.183 -14.017  -0.543  1.00  0.00     0.069 A 
HETATM   14  C   UNL     1      38.657 -14.039  -1.837  1.00  0.00     0.104 A 
HETATM   15  C   UNL     1      39.278 -14.789  -2.838  1.00  0.00     0.102 A 
HETATM   16  O   UNL     1      37.524 -13.295  -2.054  1.00  0.00    -0.346 OA
HETATM   17  O   UNL     1      38.798 -14.881  -4.120  1.00  0.00    -0.346 OA
HETATM   18  C   UNL     1      40.455 -15.475  -2.558  1.00  0.00     0.042 A 
HETATM   19  C   UNL     1      37.449 -14.404  -4.208  1.00  0.00     0.202 C 
HETATM   20  C   UNL     1      37.291 -13.095  -3.451  1.00  0.00     0.202 C 
HETATM   21  C   UNL     1      40.998 -15.431  -1.270  1.00  0.00     0.032 A 
ENDBRANCH   9  12
ENDBRANCH   7   8
ENDBRANCH   6   7
ENDBRANCH   2   6
BRANCH   1  22
HETATM   22  C   UNL     1      43.589 -17.421   5.278  1.00  0.00     0.043 A 
HETATM   23  C   UNL     1      44.680 -17.288   6.146  1.00  0.00     0.030 A 
HETATM   24  C   UNL     1      44.473 -17.232   7.527  1.00  0.00     0.002 A 
HETATM   25  C   UNL     1      43.182 -17.308   8.048  1.00  0.00     0.000 A 
HETATM   26  C   UNL     1      42.093 -17.443   7.190  1.00  0.00     0.002 A 
HETATM   27  C   UNL     1      42.293 -17.500   5.810  1.00  0.00     0.030 A 
ENDBRANCH   1  22
BRANCH   5  28
HETATM   28  C   UNL     1      44.387 -19.941   3.505  1.00  0.00     0.045 A 
HETATM   29  C   UNL     1      44.101 -20.979   2.604  1.00  0.00     0.079 A 
HETATM   30  C   UNL     1      44.257 -22.316   2.968  1.00  0.00     0.037 A 
HETATM   31  C   UNL     1      44.669 -22.638   4.259  1.00  0.00     0.003 A 
HETATM   32  C   UNL     1      44.921 -21.624   5.181  1.00  0.00     0.001 A 
HETATM   33  C   UNL     1      44.775 -20.284   4.810  1.00  0.00     0.018 A 
BRANCH  29  34
HETATM   34  O   UNL     1      43.653 -20.747   1.329  1.00  0.00    -0.360 OA
HETATM   35  H   UNL     1      42.933 -20.086   1.376  1.00  0.00     0.217 HD
ENDBRANCH  29  34
ENDBRANCH   5  28
TORSDOF 7
ENDMDL
MODEL 7
REMARK VINA RESULT:      -9.1      5.811     10.228
REMARK  7 active torsions:
REMARK  status: ('A' for Active; 'I' for Inactive)
REMARK    1  A    between atoms: C_4  and  N_5 
REMARK    2  A    between atoms: C_6  and  S_7 
REMARK    3  A    between atoms: S_7  and  C_8 
REMARK    4  A    between atoms: C_8  and  C_9 
REMARK       I    between atoms: C_9  and  N_10 
REMARK    5  A    between atoms: N_10  and  C_11 
REMARK    6  A    between atoms: C_24  and  C_25 
REMARK    7  A    between atoms: C_26  and  O_27 
ROOT
HETATM    1  N   UNL     1      41.073 -13.313  -0.712  1.00  0.00    -0.271 N 
HETATM    2  C   UNL     1      41.248 -13.528   0.649  1.00  0.00     0.197 A 
HETATM    3  N   UNL     1      42.169 -12.719   1.122  1.00  0.00    -0.122 NA
HETATM    4  N   UNL     1      42.600 -11.927   0.105  1.00  0.00    -0.128 NA
HETATM    5  C   UNL     1      41.904 -12.221  -0.981  1.00  0.00     0.172 A 
ENDROOT
BRANCH   2   6
HETATM    6  S   UNL     1      40.525 -14.788   1.607  1.00  0.00    -0.080 SA
BRANCH   6   7
HETATM    7  C   UNL     1      41.592 -14.697   3.082  1.00  0.00     0.185 C 
BRANCH   7   8
HETATM    8  C   UNL     1      41.857 -16.058   3.704  1.00  0.00     0.231 C 
HETATM    9  N   UNL     1      43.117 -16.566   3.435  1.00  0.00    -0.326 N 
HETATM   10  H   UNL     1      43.798 -15.897   3.097  1.00  0.00     0.169 HD
HETATM   11  O   UNL     1      40.961 -16.646   4.305  1.00  0.00    -0.272 OA
BRANCH   9  12
HETATM   12  C   UNL     1      43.574 -17.881   3.655  1.00  0.00     0.037 A 
HETATM   13  C   UNL     1      43.423 -18.920   2.732  1.00  0.00     0.069 A 
HETATM   14  C   UNL     1      43.957 -20.183   3.001  1.00  0.00     0.104 A 
HETATM   15  C   UNL     1      44.608 -20.431   4.211  1.00  0.00     0.102 A 
HETATM   16  O   UNL     1      43.807 -21.135   2.023  1.00  0.00    -0.346 OA
HETATM   17  O   UNL     1      45.127 -21.654   4.551  1.00  0.00    -0.346 OA
HETATM   18  C   UNL     1      44.770 -19.402   5.132  1.00  0.00     0.042 A 
HETATM   19  C   UNL     1      44.638 -22.688   3.688  1.00  0.00     0.202 C 
HETATM   20  C   UNL     1      44.686 -22.244   2.235  1.00  0.00     0.202 C 
HETATM   21  C   UNL     1      44.261 -18.130   4.853  1.00  0.00     0.032 A 
ENDBRANCH   9  12
ENDBRANCH   7   8
ENDBRANCH   6   7
ENDBRANCH   2   6
BRANCH   1  22
HETATM   22  C   UNL     1      40.290 -14.050  -1.646  1.00  0.00     0.043 A 
HETATM   23  C   UNL     1      39.001 -13.627  -1.998  1.00  0.00     0.030 A 
HETATM   24  C   UNL     1      38.258 -14.353  -2.933  1.00  0.00     0.002 A 
HETATM   25  C   UNL     1      38.792 -15.501  -3.518  1.00  0.00     0.000 A 
HETATM   26  C   UNL     1      40.071 -15.928  -3.169  1.00  0.00     0.002 A 
HETATM   27  C   UNL     1      40.819 -15.207  -2.236  1.00  0.00     0.030 A 
ENDBRANCH   1  22
BRANCH   5  28
HETATM   28  C   UNL     1      42.014 -11.436  -2.216  1.00  0.00     0.045 A 
HETATM   29  C   UNL     1      42.643 -11.981  -3.348  1.00  0.00     0.079 A 
HETATM   30  C   UNL     1      42.759 -11.253  -4.531  1.00  0.00     0.037 A 
HETATM   31  C   UNL     1      42.275  -9.948  -4.591  1.00  0.00     0.003 A 
HETATM   32  C   UNL     1      41.681  -9.375  -3.469  1.00  0.00     0.001 A 
HETATM   33  C   UNL     1      41.557 -10.111  -2.286  1.00  0.00     0.018 A 
BRANCH  29  34
HETATM   34  O   UNL     1      43.180 -13.242  -3.357  1.00  0.00    -0.360 OA
HETATM   35  H   UNL     1      43.420 -13.477  -2.437  1.00  0.00     0.217 HD
ENDBRANCH  29  34
ENDBRANCH   5  28
TORSDOF 7
ENDMDL
MODEL 8
REMARK VINA RESULT:      -9.1      4.114      6.571
REMARK  7 active torsions:
REMARK  status: ('A' for Active; 'I' for Inactive)
REMARK    1  A    between atoms: C_4  and  N_5 
REMARK    2  A    between atoms: C_6  and  S_7 
REMARK    3  A    between atoms: S_7  and  C_8 
REMARK    4  A    between atoms: C_8  and  C_9 
REMARK       I    between atoms: C_9  and  N_10 
REMARK    5  A    between atoms: N_10  and  C_11 
REMARK    6  A    between atoms: C_24  and  C_25 
REMARK    7  A    between atoms: C_26  and  O_27 
ROOT
HETATM    1  N   UNL     1      43.499 -16.557   4.805  1.00  0.00    -0.271 N 
HETATM    2  C   UNL     1      43.714 -15.331   5.422  1.00  0.00     0.197 A 
HETATM    3  N   UNL     1      44.175 -15.509   6.639  1.00  0.00    -0.122 NA
HETATM    4  N   UNL     1      44.313 -16.845   6.848  1.00  0.00    -0.128 NA
HETATM    5  C   UNL     1      43.982 -17.482   5.737  1.00  0.00     0.172 A 
ENDROOT
BRANCH   2   6
HETATM    6  S   UNL     1      43.283 -13.763   4.803  1.00  0.00    -0.080 SA
BRANCH   6   7
HETATM    7  C   UNL     1      41.931 -13.345   5.951  1.00  0.00     0.185 C 
BRANCH   7   8
HETATM    8  C   UNL     1      40.571 -13.312   5.274  1.00  0.00     0.231 C 
HETATM    9  N   UNL     1      40.629 -13.298   3.890  1.00  0.00    -0.326 N 
HETATM   10  H   UNL     1      41.516 -13.572   3.484  1.00  0.00     0.169 HD
HETATM   11  O   UNL     1      39.548 -13.215   5.948  1.00  0.00    -0.272 OA
BRANCH   9  12
HETATM   12  C   UNL     1      39.577 -13.027   2.992  1.00  0.00     0.037 A 
HETATM   13  C   UNL     1      38.884 -11.814   2.951  1.00  0.00     0.069 A 
HETATM   14  C   UNL     1      37.892 -11.602   1.991  1.00  0.00     0.104 A 
HETATM   15  C   UNL     1      37.553 -12.614   1.091  1.00  0.00     0.102 A 
HETATM   16  O   UNL     1      37.292 -10.366   1.988  1.00  0.00    -0.346 OA
HETATM   17  O   UNL     1      36.569 -12.484   0.145  1.00  0.00    -0.346 OA
HETATM   18  C   UNL     1      38.242 -13.822   1.118  1.00  0.00     0.042 A 
HETATM   19  C   UNL     1      35.737 -11.347   0.409  1.00  0.00     0.202 C 
HETATM   20  C   UNL     1      36.581 -10.135   0.768  1.00  0.00     0.202 C 
HETATM   21  C   UNL     1      39.255 -14.026   2.061  1.00  0.00     0.032 A 
ENDBRANCH   9  12
ENDBRANCH   7   8
ENDBRANCH   6   7
ENDBRANCH   2   6
BRANCH   1  22
HETATM   22  C   UNL     1      42.883 -16.838   3.552  1.00  0.00     0.043 A 
HETATM   23  C   UNL     1      43.644 -16.936   2.380  1.00  0.00     0.030 A 
HETATM   24  C   UNL     1      43.021 -17.234   1.165  1.00  0.00     0.002 A 
HETATM   25  C   UNL     1      41.643 -17.434   1.111  1.00  0.00     0.000 A 
HETATM   26  C   UNL     1      40.880 -17.336   2.272  1.00  0.00     0.002 A 
HETATM   27  C   UNL     1      41.496 -17.038   3.490  1.00  0.00     0.030 A 
ENDBRANCH   1  22
BRANCH   5  28
HETATM   28  C   UNL     1      44.172 -18.928   5.577  1.00  0.00     0.045 A 
HETATM   29  C   UNL     1      43.885 -19.801   6.640  1.00  0.00     0.079 A 
HETATM   30  C   UNL     1      44.058 -21.178   6.510  1.00  0.00     0.037 A 
HETATM   31  C   UNL     1      44.557 -21.705   5.321  1.00  0.00     0.003 A 
HETATM   32  C   UNL     1      44.884 -20.853   4.267  1.00  0.00     0.001 A 
HETATM   33  C   UNL     1      44.699 -19.473   4.396  1.00  0.00     0.018 A 
BRANCH  29  34
HETATM   34  O   UNL     1      43.428 -19.359   7.854  1.00  0.00    -0.360 OA
HETATM   35  H   UNL     1      44.170 -18.916   8.314  1.00  0.00     0.217 HD
ENDBRANCH  29  34
ENDBRANCH   5  28
TORSDOF 7
ENDMDL
MODEL 9
REMARK VINA RESULT:      -9.1      5.662      8.651
REMARK  7 active torsions:
REMARK  status: ('A' for Active; 'I' for Inactive)
REMARK    1  A    between atoms: C_4  and  N_5 
REMARK    2  A    between atoms: C_6  and  S_7 
REMARK    3  A    between atoms: S_7  and  C_8 
REMARK    4  A    between atoms: C_8  and  C_9 
REMARK       I    between atoms: C_9  and  N_10 
REMARK    5  A    between atoms: N_10  and  C_11 
REMARK    6  A    between atoms: C_24  and  C_25 
REMARK    7  A    between atoms: C_26  and  O_27 
ROOT
HETATM    1  N   UNL     1      43.088 -17.785   2.953  1.00  0.00    -0.271 N 
HETATM    2  C   UNL     1      42.912 -17.085   1.766  1.00  0.00     0.197 A 
HETATM    3  N   UNL     1      43.571 -17.669   0.792  1.00  0.00    -0.122 NA
HETATM    4  N   UNL     1      44.167 -18.784   1.292  1.00  0.00    -0.128 NA
HETATM    5  C   UNL     1      43.829 -18.906   2.565  1.00  0.00     0.172 A 
ENDROOT
BRANCH   2   6
HETATM    6  S   UNL     1      42.107 -15.555   1.568  1.00  0.00    -0.080 SA
BRANCH   6   7
HETATM    7  C   UNL     1      41.398 -15.799  -0.094  1.00  0.00     0.185 C 
BRANCH   7   8
HETATM    8  C   UNL     1      41.088 -14.490  -0.800  1.00  0.00     0.231 C 
HETATM    9  N   UNL     1      42.169 -13.941  -1.472  1.00  0.00    -0.326 N 
HETATM   10  H   UNL     1      42.945 -14.568  -1.644  1.00  0.00     0.169 HD
HETATM   11  O   UNL     1      39.983 -13.968  -0.675  1.00  0.00    -0.272 OA
BRANCH   9  12
HETATM   12  C   UNL     1      42.272 -12.641  -2.008  1.00  0.00     0.037 A 
HETATM   13  C   UNL     1      42.523 -11.501  -1.238  1.00  0.00     0.069 A 
HETATM   14  C   UNL     1      42.670 -10.255  -1.852  1.00  0.00     0.104 A 
HETATM   15  C   UNL     1      42.526 -10.129  -3.235  1.00  0.00     0.102 A 
HETATM   16  O   UNL     1      42.962  -9.195  -1.031  1.00  0.00    -0.346 OA
HETATM   17  O   UNL     1      42.627  -8.933  -3.899  1.00  0.00    -0.346 OA
HETATM   18  C   UNL     1      42.285 -11.258  -4.011  1.00  0.00     0.042 A 
HETATM   19  C   UNL     1      42.565  -7.825  -2.991  1.00  0.00     0.202 C 
HETATM   20  C   UNL     1      43.446  -8.074  -1.778  1.00  0.00     0.202 C 
HETATM   21  C   UNL     1      42.164 -12.511  -3.400  1.00  0.00     0.032 A 
ENDBRANCH   9  12
ENDBRANCH   7   8
ENDBRANCH   6   7
ENDBRANCH   2   6
BRANCH   1  22
HETATM   22  C   UNL     1      42.677 -17.439   4.272  1.00  0.00     0.043 A 
HETATM   23  C   UNL     1      41.397 -17.767   4.738  1.00  0.00     0.030 A 
HETATM   24  C   UNL     1      41.022 -17.437   6.042  1.00  0.00     0.002 A 
HETATM   25  C   UNL     1      41.915 -16.778   6.886  1.00  0.00     0.000 A 
HETATM   26  C   UNL     1      43.188 -16.446   6.428  1.00  0.00     0.002 A 
HETATM   27  C   UNL     1      43.570 -16.773   5.125  1.00  0.00     0.030 A 
ENDBRANCH   1  22
BRANCH   5  28
HETATM   28  C   UNL     1      44.178 -20.092   3.356  1.00  0.00     0.045 A 
HETATM   29  C   UNL     1      44.198 -21.362   2.757  1.00  0.00     0.079 A 
HETATM   30  C   UNL     1      44.527 -22.501   3.491  1.00  0.00     0.037 A 
HETATM   31  C   UNL     1      44.808 -22.393   4.850  1.00  0.00     0.003 A 
HETATM   32  C   UNL     1      44.758 -21.147   5.473  1.00  0.00     0.001 A 
HETATM   33  C   UNL     1      44.438 -20.004   4.733  1.00  0.00     0.018 A 
BRANCH  29  34
HETATM   34  O   UNL     1      43.895 -21.559   1.435  1.00  0.00    -0.360 OA
HETATM   35  H   UNL     1      44.735 -21.648   0.941  1.00  0.00     0.217 HD
ENDBRANCH  29  34
ENDBRANCH   5  28
TORSDOF 7
ENDMDL
MODEL 10
REMARK VINA RESULT:      -9.1      4.928      8.314
REMARK  7 active torsions:
REMARK  status: ('A' for Active; 'I' for Inactive)
REMARK    1  A    between atoms: C_4  and  N_5 
REMARK    2  A    between atoms: C_6  and  S_7 
REMARK    3  A    between atoms: S_7  and  C_8 
REMARK    4  A    between atoms: C_8  and  C_9 
REMARK       I    between atoms: C_9  and  N_10 
REMARK    5  A    between atoms: N_10  and  C_11 
REMARK    6  A    between atoms: C_24  and  C_25 
REMARK    7  A    between atoms: C_26  and  O_27 
ROOT
HETATM    1  N   UNL     1      40.966 -13.777   0.707  1.00  0.00    -0.271 N 
HETATM    2  C   UNL     1      41.320 -12.666   1.463  1.00  0.00     0.197 A 
HETATM    3  N   UNL     1      41.144 -11.568   0.764  1.00  0.00    -0.122 NA
HETATM    4  N   UNL     1      40.639 -11.914  -0.450  1.00  0.00    -0.128 NA
HETATM    5  C   UNL     1      40.459 -13.224  -0.473  1.00  0.00     0.172 A 
ENDROOT
BRANCH   2   6
HETATM    6  S   UNL     1      42.065 -12.668   3.035  1.00  0.00    -0.080 SA
BRANCH   6   7
HETATM    7  C   UNL     1      40.604 -13.033   4.062  1.00  0.00     0.185 C 
BRANCH   7   8
HETATM    8  C   UNL     1      40.765 -14.299   4.888  1.00  0.00     0.231 C 
HETATM    9  N   UNL     1      42.066 -14.770   4.951  1.00  0.00    -0.326 N 
HETATM   10  H   UNL     1      42.786 -14.111   4.682  1.00  0.00     0.169 HD
HETATM   11  O   UNL     1      39.777 -14.858   5.358  1.00  0.00    -0.272 OA
BRANCH   9  12
HETATM   12  C   UNL     1      42.498 -16.026   5.422  1.00  0.00     0.037 A 
HETATM   13  C   UNL     1      43.041 -17.019   4.600  1.00  0.00     0.069 A 
HETATM   14  C   UNL     1      43.501 -18.216   5.152  1.00  0.00     0.104 A 
HETATM   15  C   UNL     1      43.386 -18.451   6.523  1.00  0.00     0.102 A 
HETATM   16  O   UNL     1      44.063 -19.119   4.283  1.00  0.00    -0.346 OA
HETATM   17  O   UNL     1      43.788 -19.616   7.126  1.00  0.00    -0.346 OA
HETATM   18  C   UNL     1      42.855 -17.468   7.351  1.00  0.00     0.042 A 
HETATM   19  C   UNL     1      44.020 -20.650   6.161  1.00  0.00     0.202 C 
HETATM   20  C   UNL     1      44.815 -20.116   4.981  1.00  0.00     0.202 C 
HETATM   21  C   UNL     1      42.419 -16.257   6.803  1.00  0.00     0.032 A 
ENDBRANCH   9  12
ENDBRANCH   7   8
ENDBRANCH   6   7
ENDBRANCH   2   6
BRANCH   1  22
HETATM   22  C   UNL     1      41.126 -15.159   1.012  1.00  0.00     0.043 A 
HETATM   23  C   UNL     1      40.129 -15.866   1.698  1.00  0.00     0.030 A 
HETATM   24  C   UNL     1      40.297 -17.227   1.968  1.00  0.00     0.002 A 
HETATM   25  C   UNL     1      41.454 -17.888   1.558  1.00  0.00     0.000 A 
HETATM   26  C   UNL     1      42.449 -17.190   0.878  1.00  0.00     0.002 A 
HETATM   27  C   UNL     1      42.289 -15.830   0.605  1.00  0.00     0.030 A 
ENDBRANCH   1  22
BRANCH   5  28
HETATM   28  C   UNL     1      39.779 -13.901  -1.583  1.00  0.00     0.045 A 
HETATM   29  C   UNL     1      40.526 -14.520  -2.598  1.00  0.00     0.079 A 
HETATM   30  C   UNL     1      39.900 -15.169  -3.662  1.00  0.00     0.037 A 
HETATM   31  C   UNL     1      38.510 -15.178  -3.747  1.00  0.00     0.003 A 
HETATM   32  C   UNL     1      37.751 -14.537  -2.770  1.00  0.00     0.001 A 
HETATM   33  C   UNL     1      38.380 -13.896  -1.698  1.00  0.00     0.018 A 
BRANCH  29  34
HETATM   34  O   UNL     1      41.897 -14.522  -2.610  1.00  0.00    -0.360 OA
HETATM   35  H   UNL     1      42.206 -15.129  -1.906  1.00  0.00     0.217 HD
ENDBRANCH  29  34
ENDBRANCH   5  28
TORSDOF 7
ENDMDL
