MODEL 1
REMARK VINA RESULT:      -8.3      0.000      0.000
REMARK  14 active torsions:
REMARK  status: ('A' for Active; 'I' for Inactive)
REMARK    1  A    between atoms: C_2  and  O_3 
REMARK    2  A    between atoms: O_3  and  C_4 
REMARK    3  A    between atoms: C_5  and  O_6 
REMARK    4  A    between atoms: C_9  and  C_10 
REMARK    5  A    between atoms: N_11  and  C_12 
REMARK    6  A    between atoms: C_12  and  C_13 
REMARK    7  A    between atoms: C_13  and  C_14 
REMARK    8  A    between atoms: C_14  and  N_15 
REMARK    9  A    between atoms: C_21  and  O_22 
REMARK   10  A    between atoms: C_23  and  C_24 
REMARK   11  A    between atoms: C_24  and  C_25 
REMARK   12  A    between atoms: C_29  and  O_30 
REMARK   13  A    between atoms: O_30  and  C_31 
REMARK   14  A    between atoms: C_31  and  C_32 
ROOT
HETATM    1  C   UNL     1      39.591 -13.421  -0.415  1.00  0.00     0.161 A 
HETATM    2  N   UNL     1      40.398 -12.241  -0.723  1.00  0.00    -0.333 N 
HETATM    3  C   UNL     1      41.539 -12.203   0.057  1.00  0.00     0.278 A 
HETATM    4  O   UNL     1      42.420 -11.363   0.064  1.00  0.00    -0.265 OA
HETATM    5  C   UNL     1      41.513 -13.380   0.951  1.00  0.00     0.146 A 
HETATM    6  C   UNL     1      40.366 -14.022   0.712  1.00  0.00     0.059 A 
ENDROOT
BRANCH   6   7
HETATM    7  C   UNL     1      39.814 -15.171   1.455  1.00  0.00     0.193 C 
HETATM    8  O   UNL     1      38.635 -15.157   1.792  1.00  0.00    -0.287 OA
BRANCH   7   9
HETATM    9  C   UNL     1      40.700 -16.293   1.879  1.00  0.00     0.015 A 
HETATM   10  C   UNL     1      40.880 -16.510   3.251  1.00  0.00     0.025 A 
HETATM   11  C   UNL     1      41.745 -17.516   3.716  1.00  0.00    -0.028 A 
HETATM   12  C   UNL     1      41.929 -17.716   5.196  1.00  0.00     0.051 C 
HETATM   13  C   UNL     1      42.439 -18.318   2.794  1.00  0.00     0.074 A 
HETATM   14  C   UNL     1      42.273 -18.088   1.426  1.00  0.00     0.038 A 
HETATM   15  C   UNL     1      41.420 -17.076   0.971  1.00  0.00     0.018 A 
BRANCH  13  16
HETATM   16  O   UNL     1      43.258 -19.274   3.332  1.00  0.00    -0.350 OA
BRANCH  16  17
HETATM   17  C   UNL     1      44.485 -19.553   2.656  1.00  0.00     0.179 C 
BRANCH  17  18
HETATM   18  C   UNL     1      44.731 -21.069   2.668  1.00  0.00     0.002 C 
HETATM   19  C   UNL     1      44.668 -21.634   4.089  1.00  0.00     0.011 C 
HETATM   20  C   UNL     1      43.719 -21.778   1.770  1.00  0.00     0.011 C 
ENDBRANCH  17  18
ENDBRANCH  16  17
ENDBRANCH  13  16
ENDBRANCH   7   9
ENDBRANCH   6   7
BRANCH   1  21
HETATM   21  C   UNL     1      39.451 -14.284  -1.657  1.00  0.00    -0.028 A 
HETATM   22  C   UNL     1      40.516 -15.057  -2.154  1.00  0.00     0.012 A 
HETATM   23  C   UNL     1      40.365 -15.819  -3.316  1.00  0.00     0.040 A 
HETATM   24  C   UNL     1      39.141 -15.834  -3.984  1.00  0.00     0.099 A 
HETATM   25  C   UNL     1      38.056 -15.110  -3.484  1.00  0.00     0.102 A 
HETATM   26  C   UNL     1      38.225 -14.323  -2.339  1.00  0.00     0.049 A 
BRANCH  24  27
HETATM   27  O   UNL     1      39.028 -16.546  -5.146  1.00  0.00    -0.358 OA
HETATM   28  H   UNL     1      39.035 -15.937  -5.901  1.00  0.00     0.218 HD
ENDBRANCH  24  27
BRANCH  25  29
HETATM   29  O   UNL     1      36.800 -15.057  -4.028  1.00  0.00    -0.349 OA
BRANCH  29  30
HETATM   30  C   UNL     1      36.367 -13.751  -4.422  1.00  0.00     0.171 C 
HETATM   31  C   UNL     1      35.015 -13.887  -5.100  1.00  0.00     0.034 C 
ENDBRANCH  29  30
ENDBRANCH  25  29
ENDBRANCH   1  21
BRANCH   5  32
HETATM   32  O   UNL     1      42.463 -13.641   1.890  1.00  0.00    -0.355 OA
HETATM   33  H   UNL     1      43.301 -13.791   1.410  1.00  0.00     0.218 HD
ENDBRANCH   5  32
BRANCH   2  34
HETATM   34  C   UNL     1      39.788 -11.068  -1.333  1.00  0.00     0.129 C 
BRANCH  34  35
HETATM   35  C   UNL     1      40.168 -10.826  -2.794  1.00  0.00     0.048 C 
BRANCH  35  36
HETATM   36  C   UNL     1      41.366  -9.893  -2.919  1.00  0.00     0.235 C 
BRANCH  36  37
HETATM   37  N   UNL     1      42.458 -10.545  -3.749  1.00  0.00    -0.079 N 
HETATM   38  H   UNL     1      43.365 -10.220  -3.388  1.00  0.00     0.278 HD
HETATM   39  C   UNL     1      42.449 -12.048  -3.637  1.00  0.00     0.269 C 
HETATM   40  C   UNL     1      42.393 -10.108  -5.188  1.00  0.00     0.269 C 
ENDBRANCH  36  37
ENDBRANCH  35  36
ENDBRANCH  34  35
ENDBRANCH   2  34
TORSDOF 14
ENDMDL
MODEL 2
REMARK VINA RESULT:      -8.2      1.216      2.329
REMARK  14 active torsions:
REMARK  status: ('A' for Active; 'I' for Inactive)
REMARK    1  A    between atoms: C_2  and  O_3 
REMARK    2  A    between atoms: O_3  and  C_4 
REMARK    3  A    between atoms: C_5  and  O_6 
REMARK    4  A    between atoms: C_9  and  C_10 
REMARK    5  A    between atoms: N_11  and  C_12 
REMARK    6  A    between atoms: C_12  and  C_13 
REMARK    7  A    between atoms: C_13  and  C_14 
REMARK    8  A    between atoms: C_14  and  N_15 
REMARK    9  A    between atoms: C_21  and  O_22 
REMARK   10  A    between atoms: C_23  and  C_24 
REMARK   11  A    between atoms: C_24  and  C_25 
REMARK   12  A    between atoms: C_29  and  O_30 
REMARK   13  A    between atoms: O_30  and  C_31 
REMARK   14  A    between atoms: C_31  and  C_32 
ROOT
HETATM    1  C   UNL     1      39.669 -13.382  -0.531  1.00  0.00     0.161 A 
HETATM    2  N   UNL     1      40.504 -12.234  -0.880  1.00  0.00    -0.333 N 
HETATM    3  C   UNL     1      41.647 -12.198  -0.103  1.00  0.00     0.278 A 
HETATM    4  O   UNL     1      42.549 -11.380  -0.126  1.00  0.00    -0.265 OA
HETATM    5  C   UNL     1      41.594 -13.342   0.831  1.00  0.00     0.146 A 
HETATM    6  C   UNL     1      40.431 -13.964   0.616  1.00  0.00     0.059 A 
ENDROOT
BRANCH   6   7
HETATM    7  C   UNL     1      39.852 -15.072   1.398  1.00  0.00     0.193 C 
HETATM    8  O   UNL     1      38.683 -15.002   1.763  1.00  0.00    -0.287 OA
BRANCH   7   9
HETATM    9  C   UNL     1      40.702 -16.219   1.827  1.00  0.00     0.015 A 
HETATM   10  C   UNL     1      40.866 -16.444   3.200  1.00  0.00     0.025 A 
HETATM   11  C   UNL     1      41.699 -17.474   3.670  1.00  0.00    -0.028 A 
HETATM   12  C   UNL     1      41.866 -17.682   5.150  1.00  0.00     0.051 C 
HETATM   13  C   UNL     1      42.375 -18.294   2.750  1.00  0.00     0.074 A 
HETATM   14  C   UNL     1      42.226 -18.058   1.382  1.00  0.00     0.038 A 
HETATM   15  C   UNL     1      41.406 -17.021   0.923  1.00  0.00     0.018 A 
BRANCH  13  16
HETATM   16  O   UNL     1      43.163 -19.275   3.293  1.00  0.00    -0.350 OA
BRANCH  16  17
HETATM   17  C   UNL     1      44.446 -19.497   2.704  1.00  0.00     0.179 C 
BRANCH  17  18
HETATM   18  C   UNL     1      44.714 -21.007   2.643  1.00  0.00     0.002 C 
HETATM   19  C   UNL     1      44.689 -21.637   4.037  1.00  0.00     0.011 C 
HETATM   20  C   UNL     1      43.696 -21.691   1.733  1.00  0.00     0.011 C 
ENDBRANCH  17  18
ENDBRANCH  16  17
ENDBRANCH  13  16
ENDBRANCH   7   9
ENDBRANCH   6   7
BRANCH   1  21
HETATM   21  C   UNL     1      39.505 -14.284  -1.742  1.00  0.00    -0.028 A 
HETATM   22  C   UNL     1      40.546 -15.106  -2.208  1.00  0.00     0.012 A 
HETATM   23  C   UNL     1      40.374 -15.903  -3.343  1.00  0.00     0.040 A 
HETATM   24  C   UNL     1      39.151 -15.905  -4.014  1.00  0.00     0.099 A 
HETATM   25  C   UNL     1      38.089 -15.131  -3.542  1.00  0.00     0.102 A 
HETATM   26  C   UNL     1      38.280 -14.309  -2.426  1.00  0.00     0.049 A 
BRANCH  24  27
HETATM   27  O   UNL     1      39.019 -16.653  -5.150  1.00  0.00    -0.358 OA
HETATM   28  H   UNL     1      39.321 -16.138  -5.915  1.00  0.00     0.218 HD
ENDBRANCH  24  27
BRANCH  25  29
HETATM   29  O   UNL     1      36.836 -15.058  -4.093  1.00  0.00    -0.349 OA
BRANCH  29  30
HETATM   30  C   UNL     1      36.407 -13.740  -4.449  1.00  0.00     0.171 C 
HETATM   31  C   UNL     1      34.966 -13.824  -4.919  1.00  0.00     0.034 C 
ENDBRANCH  29  30
ENDBRANCH  25  29
ENDBRANCH   1  21
BRANCH   5  32
HETATM   32  O   UNL     1      42.539 -13.594   1.777  1.00  0.00    -0.355 OA
HETATM   33  H   UNL     1      42.214 -13.205   2.612  1.00  0.00     0.218 HD
ENDBRANCH   5  32
BRANCH   2  34
HETATM   34  C   UNL     1      39.922 -11.068  -1.529  1.00  0.00     0.129 C 
BRANCH  34  35
HETATM   35  C   UNL     1      38.593 -10.595  -0.939  1.00  0.00     0.048 C 
BRANCH  35  36
HETATM   36  C   UNL     1      38.765 -10.044   0.471  1.00  0.00     0.235 C 
BRANCH  36  37
HETATM   37  N   UNL     1      37.782 -10.708   1.420  1.00  0.00    -0.079 N 
HETATM   38  H   UNL     1      37.259  -9.966   1.904  1.00  0.00     0.278 HD
HETATM   39  C   UNL     1      36.772 -11.565   0.700  1.00  0.00     0.269 C 
HETATM   40  C   UNL     1      38.492 -11.492   2.491  1.00  0.00     0.269 C 
ENDBRANCH  36  37
ENDBRANCH  35  36
ENDBRANCH  34  35
ENDBRANCH   2  34
TORSDOF 14
ENDMDL
MODEL 3
REMARK VINA RESULT:      -7.9      2.323      3.846
REMARK  14 active torsions:
REMARK  status: ('A' for Active; 'I' for Inactive)
REMARK    1  A    between atoms: C_2  and  O_3 
REMARK    2  A    between atoms: O_3  and  C_4 
REMARK    3  A    between atoms: C_5  and  O_6 
REMARK    4  A    between atoms: C_9  and  C_10 
REMARK    5  A    between atoms: N_11  and  C_12 
REMARK    6  A    between atoms: C_12  and  C_13 
REMARK    7  A    between atoms: C_13  and  C_14 
REMARK    8  A    between atoms: C_14  and  N_15 
REMARK    9  A    between atoms: C_21  and  O_22 
REMARK   10  A    between atoms: C_23  and  C_24 
REMARK   11  A    between atoms: C_24  and  C_25 
REMARK   12  A    between atoms: C_29  and  O_30 
REMARK   13  A    between atoms: O_30  and  C_31 
REMARK   14  A    between atoms: C_31  and  C_32 
ROOT
HETATM    1  C   UNL     1      40.786 -14.221   1.866  1.00  0.00     0.161 A 
HETATM    2  N   UNL     1      39.610 -13.367   2.022  1.00  0.00    -0.333 N 
HETATM    3  C   UNL     1      39.892 -12.277   2.825  1.00  0.00     0.278 A 
HETATM    4  O   UNL     1      39.145 -11.376   3.164  1.00  0.00    -0.265 OA
HETATM    5  C   UNL     1      41.300 -12.389   3.260  1.00  0.00     0.146 A 
HETATM    6  C   UNL     1      41.770 -13.535   2.758  1.00  0.00     0.059 A 
ENDROOT
BRANCH   6   7
HETATM    7  C   UNL     1      43.076 -14.161   3.034  1.00  0.00     0.193 C 
HETATM    8  O   UNL     1      44.058 -13.448   3.216  1.00  0.00    -0.287 OA
BRANCH   7   9
HETATM    9  C   UNL     1      43.226 -15.645   2.996  1.00  0.00     0.015 A 
HETATM   10  C   UNL     1      42.880 -16.373   4.141  1.00  0.00     0.025 A 
HETATM   11  C   UNL     1      43.050 -17.768   4.189  1.00  0.00    -0.028 A 
HETATM   12  C   UNL     1      42.684 -18.522   5.439  1.00  0.00     0.051 C 
HETATM   13  C   UNL     1      43.571 -18.443   3.072  1.00  0.00     0.074 A 
HETATM   14  C   UNL     1      43.932 -17.713   1.937  1.00  0.00     0.038 A 
HETATM   15  C   UNL     1      43.773 -16.324   1.903  1.00  0.00     0.018 A 
BRANCH  13  16
HETATM   16  O   UNL     1      43.702 -19.800   3.203  1.00  0.00    -0.350 OA
BRANCH  16  17
HETATM   17  C   UNL     1      44.935 -20.392   2.790  1.00  0.00     0.179 C 
BRANCH  17  18
HETATM   18  C   UNL     1      44.686 -21.859   2.414  1.00  0.00     0.002 C 
HETATM   19  C   UNL     1      44.546 -22.740   3.658  1.00  0.00     0.011 C 
HETATM   20  C   UNL     1      43.442 -21.979   1.536  1.00  0.00     0.011 C 
ENDBRANCH  17  18
ENDBRANCH  16  17
ENDBRANCH  13  16
ENDBRANCH   7   9
ENDBRANCH   6   7
BRANCH   1  21
HETATM   21  C   UNL     1      41.168 -14.304   0.399  1.00  0.00    -0.028 A 
HETATM   22  C   UNL     1      40.934 -15.458  -0.370  1.00  0.00     0.012 A 
HETATM   23  C   UNL     1      41.322 -15.514  -1.711  1.00  0.00     0.040 A 
HETATM   24  C   UNL     1      41.932 -14.410  -2.307  1.00  0.00     0.099 A 
HETATM   25  C   UNL     1      42.133 -13.237  -1.575  1.00  0.00     0.102 A 
HETATM   26  C   UNL     1      41.773 -13.201  -0.223  1.00  0.00     0.049 A 
BRANCH  24  27
HETATM   27  O   UNL     1      42.349 -14.502  -3.604  1.00  0.00    -0.358 OA
HETATM   28  H   UNL     1      42.268 -15.420  -3.907  1.00  0.00     0.218 HD
ENDBRANCH  24  27
BRANCH  25  29
HETATM   29  O   UNL     1      42.698 -12.080  -2.043  1.00  0.00    -0.349 OA
BRANCH  29  30
HETATM   30  C   UNL     1      41.779 -11.156  -2.635  1.00  0.00     0.171 C 
HETATM   31  C   UNL     1      42.403 -10.626  -3.914  1.00  0.00     0.034 C 
ENDBRANCH  29  30
ENDBRANCH  25  29
ENDBRANCH   1  21
BRANCH   5  32
HETATM   32  O   UNL     1      41.907 -11.507   4.100  1.00  0.00    -0.355 OA
HETATM   33  H   UNL     1      41.215 -11.165   4.699  1.00  0.00     0.218 HD
ENDBRANCH   5  32
BRANCH   2  34
HETATM   34  C   UNL     1      38.273 -13.907   1.821  1.00  0.00     0.129 C 
BRANCH  34  35
HETATM   35  C   UNL     1      37.452 -13.214   0.733  1.00  0.00     0.048 C 
BRANCH  35  36
HETATM   36  C   UNL     1      37.767 -13.767  -0.652  1.00  0.00     0.235 C 
BRANCH  36  37
HETATM   37  N   UNL     1      38.535 -12.743  -1.467  1.00  0.00    -0.079 N 
HETATM   38  H   UNL     1      39.516 -12.764  -1.159  1.00  0.00     0.278 HD
HETATM   39  C   UNL     1      38.528 -13.053  -2.943  1.00  0.00     0.269 C 
HETATM   40  C   UNL     1      38.040 -11.345  -1.206  1.00  0.00     0.269 C 
ENDBRANCH  36  37
ENDBRANCH  35  36
ENDBRANCH  34  35
ENDBRANCH   2  34
TORSDOF 14
ENDMDL
MODEL 4
REMARK VINA RESULT:      -7.8      2.365      3.547
REMARK  14 active torsions:
REMARK  status: ('A' for Active; 'I' for Inactive)
REMARK    1  A    between atoms: C_2  and  O_3 
REMARK    2  A    between atoms: O_3  and  C_4 
REMARK    3  A    between atoms: C_5  and  O_6 
REMARK    4  A    between atoms: C_9  and  C_10 
REMARK    5  A    between atoms: N_11  and  C_12 
REMARK    6  A    between atoms: C_12  and  C_13 
REMARK    7  A    between atoms: C_13  and  C_14 
REMARK    8  A    between atoms: C_14  and  N_15 
REMARK    9  A    between atoms: C_21  and  O_22 
REMARK   10  A    between atoms: C_23  and  C_24 
REMARK   11  A    between atoms: C_24  and  C_25 
REMARK   12  A    between atoms: C_29  and  O_30 
REMARK   13  A    between atoms: O_30  and  C_31 
REMARK   14  A    between atoms: C_31  and  C_32 
ROOT
HETATM    1  C   UNL     1      40.716 -14.094   1.440  1.00  0.00     0.161 A 
HETATM    2  N   UNL     1      39.442 -13.403   1.639  1.00  0.00    -0.333 N 
HETATM    3  C   UNL     1      39.502 -12.558   2.732  1.00  0.00     0.278 A 
HETATM    4  O   UNL     1      38.625 -11.842   3.181  1.00  0.00    -0.265 OA
HETATM    5  C   UNL     1      40.850 -12.682   3.325  1.00  0.00     0.146 A 
HETATM    6  C   UNL     1      41.501 -13.609   2.616  1.00  0.00     0.059 A 
ENDROOT
BRANCH   6   7
HETATM    7  C   UNL     1      42.825 -14.191   2.908  1.00  0.00     0.193 C 
HETATM    8  O   UNL     1      43.785 -13.445   3.074  1.00  0.00    -0.287 OA
BRANCH   7   9
HETATM    9  C   UNL     1      43.018 -15.669   2.904  1.00  0.00     0.015 A 
HETATM   10  C   UNL     1      42.738 -16.375   4.081  1.00  0.00     0.025 A 
HETATM   11  C   UNL     1      42.953 -17.762   4.160  1.00  0.00    -0.028 A 
HETATM   12  C   UNL     1      42.658 -18.491   5.443  1.00  0.00     0.051 C 
HETATM   13  C   UNL     1      43.450 -18.453   3.042  1.00  0.00     0.074 A 
HETATM   14  C   UNL     1      43.745 -17.746   1.875  1.00  0.00     0.038 A 
HETATM   15  C   UNL     1      43.543 -16.363   1.809  1.00  0.00     0.018 A 
BRANCH  13  16
HETATM   16  O   UNL     1      43.627 -19.802   3.204  1.00  0.00    -0.350 OA
BRANCH  16  17
HETATM   17  C   UNL     1      44.926 -20.337   2.949  1.00  0.00     0.179 C 
BRANCH  17  18
HETATM   18  C   UNL     1      44.785 -21.792   2.478  1.00  0.00     0.002 C 
HETATM   19  C   UNL     1      44.615 -22.748   3.660  1.00  0.00     0.011 C 
HETATM   20  C   UNL     1      43.610 -21.926   1.513  1.00  0.00     0.011 C 
ENDBRANCH  17  18
ENDBRANCH  16  17
ENDBRANCH  13  16
ENDBRANCH   7   9
ENDBRANCH   6   7
BRANCH   1  21
HETATM   21  C   UNL     1      41.281 -13.742   0.076  1.00  0.00    -0.028 A 
HETATM   22  C   UNL     1      41.934 -12.522  -0.172  1.00  0.00     0.012 A 
HETATM   23  C   UNL     1      42.419 -12.215  -1.446  1.00  0.00     0.040 A 
HETATM   24  C   UNL     1      42.276 -13.135  -2.485  1.00  0.00     0.099 A 
HETATM   25  C   UNL     1      41.672 -14.372  -2.252  1.00  0.00     0.102 A 
HETATM   26  C   UNL     1      41.158 -14.657  -0.982  1.00  0.00     0.049 A 
BRANCH  24  27
HETATM   27  O   UNL     1      42.712 -12.796  -3.735  1.00  0.00    -0.358 OA
HETATM   28  H   UNL     1      43.506 -13.309  -3.952  1.00  0.00     0.218 HD
ENDBRANCH  24  27
BRANCH  25  29
HETATM   29  O   UNL     1      41.489 -15.368  -3.175  1.00  0.00    -0.349 OA
BRANCH  29  30
HETATM   30  C   UNL     1      40.203 -15.996  -3.140  1.00  0.00     0.171 C 
HETATM   31  C   UNL     1      39.212 -15.081  -3.837  1.00  0.00     0.034 C 
ENDBRANCH  29  30
ENDBRANCH  25  29
ENDBRANCH   1  21
BRANCH   5  32
HETATM   32  O   UNL     1      41.250 -12.023   4.447  1.00  0.00    -0.355 OA
HETATM   33  H   UNL     1      42.183 -12.268   4.601  1.00  0.00     0.218 HD
ENDBRANCH   5  32
BRANCH   2  34
HETATM   34  C   UNL     1      38.208 -13.962   1.108  1.00  0.00     0.129 C 
BRANCH  34  35
HETATM   35  C   UNL     1      37.768 -13.395  -0.242  1.00  0.00     0.048 C 
BRANCH  35  36
HETATM   36  C   UNL     1      37.235 -11.973  -0.111  1.00  0.00     0.235 C 
BRANCH  36  37
HETATM   37  N   UNL     1      38.049 -11.023  -0.972  1.00  0.00    -0.079 N 
HETATM   38  H   UNL     1      37.396 -10.378  -1.436  1.00  0.00     0.278 HD
HETATM   39  C   UNL     1      39.004 -10.182  -0.163  1.00  0.00     0.269 C 
HETATM   40  C   UNL     1      38.771 -11.756  -2.071  1.00  0.00     0.269 C 
ENDBRANCH  36  37
ENDBRANCH  35  36
ENDBRANCH  34  35
ENDBRANCH   2  34
TORSDOF 14
ENDMDL
MODEL 5
REMARK VINA RESULT:      -7.7      5.716      9.715
REMARK  14 active torsions:
REMARK  status: ('A' for Active; 'I' for Inactive)
REMARK    1  A    between atoms: C_2  and  O_3 
REMARK    2  A    between atoms: O_3  and  C_4 
REMARK    3  A    between atoms: C_5  and  O_6 
REMARK    4  A    between atoms: C_9  and  C_10 
REMARK    5  A    between atoms: N_11  and  C_12 
REMARK    6  A    between atoms: C_12  and  C_13 
REMARK    7  A    between atoms: C_13  and  C_14 
REMARK    8  A    between atoms: C_14  and  N_15 
REMARK    9  A    between atoms: C_21  and  O_22 
REMARK   10  A    between atoms: C_23  and  C_24 
REMARK   11  A    between atoms: C_24  and  C_25 
REMARK   12  A    between atoms: C_29  and  O_30 
REMARK   13  A    between atoms: O_30  and  C_31 
REMARK   14  A    between atoms: C_31  and  C_32 
ROOT
HETATM    1  C   UNL     1      40.722 -14.210   4.292  1.00  0.00     0.161 A 
HETATM    2  N   UNL     1      41.481 -14.218   3.041  1.00  0.00    -0.333 N 
HETATM    3  C   UNL     1      41.914 -12.945   2.716  1.00  0.00     0.278 A 
HETATM    4  O   UNL     1      42.562 -12.594   1.747  1.00  0.00    -0.265 OA
HETATM    5  C   UNL     1      41.422 -12.021   3.760  1.00  0.00     0.146 A 
HETATM    6  C   UNL     1      40.692 -12.749   4.609  1.00  0.00     0.059 A 
ENDROOT
BRANCH   6   7
HETATM    7  C   UNL     1      39.871 -12.257   5.731  1.00  0.00     0.193 C 
HETATM    8  O   UNL     1      38.649 -12.244   5.621  1.00  0.00    -0.287 OA
BRANCH   7   9
HETATM    9  C   UNL     1      40.518 -11.689   6.948  1.00  0.00     0.015 A 
HETATM   10  C   UNL     1      39.694 -11.277   8.003  1.00  0.00     0.025 A 
HETATM   11  C   UNL     1      40.237 -10.682   9.155  1.00  0.00    -0.028 A 
HETATM   12  C   UNL     1      39.326 -10.235  10.266  1.00  0.00     0.051 C 
HETATM   13  C   UNL     1      41.628 -10.501   9.254  1.00  0.00     0.074 A 
HETATM   14  C   UNL     1      42.447 -10.896   8.194  1.00  0.00     0.038 A 
HETATM   15  C   UNL     1      41.897 -11.474   7.045  1.00  0.00     0.018 A 
BRANCH  13  16
HETATM   16  O   UNL     1      42.073  -9.917  10.410  1.00  0.00    -0.350 OA
BRANCH  16  17
HETATM   17  C   UNL     1      43.480  -9.921  10.657  1.00  0.00     0.179 C 
BRANCH  17  18
HETATM   18  C   UNL     1      43.774 -10.820  11.867  1.00  0.00     0.002 C 
HETATM   19  C   UNL     1      42.612 -10.814  12.863  1.00  0.00     0.011 C 
HETATM   20  C   UNL     1      44.073 -12.246  11.409  1.00  0.00     0.011 C 
ENDBRANCH  17  18
ENDBRANCH  16  17
ENDBRANCH  13  16
ENDBRANCH   7   9
ENDBRANCH   6   7
BRANCH   1  21
HETATM   21  C   UNL     1      41.412 -15.095   5.314  1.00  0.00    -0.028 A 
HETATM   22  C   UNL     1      40.772 -16.205   5.895  1.00  0.00     0.012 A 
HETATM   23  C   UNL     1      41.422 -16.985   6.854  1.00  0.00     0.040 A 
HETATM   24  C   UNL     1      42.730 -16.678   7.232  1.00  0.00     0.099 A 
HETATM   25  C   UNL     1      43.401 -15.608   6.635  1.00  0.00     0.102 A 
HETATM   26  C   UNL     1      42.731 -14.811   5.701  1.00  0.00     0.049 A 
BRANCH  24  27
HETATM   27  O   UNL     1      43.330 -17.422   8.208  1.00  0.00    -0.358 OA
HETATM   28  H   UNL     1      42.661 -17.944   8.677  1.00  0.00     0.218 HD
ENDBRANCH  24  27
BRANCH  25  29
HETATM   29  O   UNL     1      44.687 -15.214   6.898  1.00  0.00    -0.349 OA
BRANCH  29  30
HETATM   30  C   UNL     1      44.956 -13.829   6.657  1.00  0.00     0.171 C 
HETATM   31  C   UNL     1      45.240 -13.164   7.992  1.00  0.00     0.034 C 
ENDBRANCH  29  30
ENDBRANCH  25  29
ENDBRANCH   1  21
BRANCH   5  32
HETATM   32  O   UNL     1      41.625 -10.676   3.738  1.00  0.00    -0.355 OA
HETATM   33  H   UNL     1      40.742 -10.257   3.712  1.00  0.00     0.218 HD
ENDBRANCH   5  32
BRANCH   2  34
HETATM   34  C   UNL     1      41.297 -15.288   2.073  1.00  0.00     0.129 C 
BRANCH  34  35
HETATM   35  C   UNL     1      42.491 -16.229   1.911  1.00  0.00     0.048 C 
BRANCH  35  36
HETATM   36  C   UNL     1      42.050 -17.669   1.682  1.00  0.00     0.235 C 
BRANCH  36  37
HETATM   37  N   UNL     1      42.675 -18.584   2.720  1.00  0.00    -0.079 N 
HETATM   38  H   UNL     1      41.922 -18.937   3.325  1.00  0.00     0.278 HD
HETATM   39  C   UNL     1      43.347 -19.785   2.103  1.00  0.00     0.269 C 
HETATM   40  C   UNL     1      43.624 -17.835   3.617  1.00  0.00     0.269 C 
ENDBRANCH  36  37
ENDBRANCH  35  36
ENDBRANCH  34  35
ENDBRANCH   2  34
TORSDOF 14
ENDMDL
MODEL 6
REMARK VINA RESULT:      -7.6      2.800      5.392
REMARK  14 active torsions:
REMARK  status: ('A' for Active; 'I' for Inactive)
REMARK    1  A    between atoms: C_2  and  O_3 
REMARK    2  A    between atoms: O_3  and  C_4 
REMARK    3  A    between atoms: C_5  and  O_6 
REMARK    4  A    between atoms: C_9  and  C_10 
REMARK    5  A    between atoms: N_11  and  C_12 
REMARK    6  A    between atoms: C_12  and  C_13 
REMARK    7  A    between atoms: C_13  and  C_14 
REMARK    8  A    between atoms: C_14  and  N_15 
REMARK    9  A    between atoms: C_21  and  O_22 
REMARK   10  A    between atoms: C_23  and  C_24 
REMARK   11  A    between atoms: C_24  and  C_25 
REMARK   12  A    between atoms: C_29  and  O_30 
REMARK   13  A    between atoms: O_30  and  C_31 
REMARK   14  A    between atoms: C_31  and  C_32 
ROOT
HETATM    1  C   UNL     1      41.641 -13.359   1.280  1.00  0.00     0.161 A 
HETATM    2  N   UNL     1      40.748 -12.201   1.280  1.00  0.00    -0.333 N 
HETATM    3  C   UNL     1      39.511 -12.529   0.756  1.00  0.00     0.278 A 
HETATM    4  O   UNL     1      38.542 -11.808   0.604  1.00  0.00    -0.265 OA
HETATM    5  C   UNL     1      39.552 -13.952   0.359  1.00  0.00     0.146 A 
HETATM    6  C   UNL     1      40.791 -14.387   0.604  1.00  0.00     0.059 A 
ENDROOT
BRANCH   6   7
HETATM    7  C   UNL     1      41.368 -15.695   0.241  1.00  0.00     0.193 C 
HETATM    8  O   UNL     1      41.195 -16.133  -0.891  1.00  0.00    -0.287 OA
BRANCH   7   9
HETATM    9  C   UNL     1      42.068 -16.523   1.265  1.00  0.00     0.015 A 
HETATM   10  C   UNL     1      41.377 -16.844   2.440  1.00  0.00     0.025 A 
HETATM   11  C   UNL     1      41.999 -17.573   3.468  1.00  0.00    -0.028 A 
HETATM   12  C   UNL     1      41.237 -17.890   4.726  1.00  0.00     0.051 C 
HETATM   13  C   UNL     1      43.333 -17.991   3.315  1.00  0.00     0.074 A 
HETATM   14  C   UNL     1      44.026 -17.656   2.149  1.00  0.00     0.038 A 
HETATM   15  C   UNL     1      43.404 -16.917   1.137  1.00  0.00     0.018 A 
BRANCH  13  16
HETATM   16  O   UNL     1      43.860 -18.699   4.362  1.00  0.00    -0.350 OA
BRANCH  16  17
HETATM   17  C   UNL     1      44.446 -19.970   4.076  1.00  0.00     0.179 C 
BRANCH  17  18
HETATM   18  C   UNL     1      44.788 -20.673   5.397  1.00  0.00     0.002 C 
HETATM   19  C   UNL     1      43.759 -20.353   6.483  1.00  0.00     0.011 C 
HETATM   20  C   UNL     1      44.885 -22.183   5.186  1.00  0.00     0.011 C 
ENDBRANCH  17  18
ENDBRANCH  16  17
ENDBRANCH  13  16
ENDBRANCH   7   9
ENDBRANCH   6   7
BRANCH   1  21
HETATM   21  C   UNL     1      42.063 -13.680   2.703  1.00  0.00    -0.028 A 
HETATM   22  C   UNL     1      43.409 -13.878   3.058  1.00  0.00     0.012 A 
HETATM   23  C   UNL     1      43.764 -14.200   4.370  1.00  0.00     0.040 A 
HETATM   24  C   UNL     1      42.777 -14.308   5.351  1.00  0.00     0.099 A 
HETATM   25  C   UNL     1      41.438 -14.072   5.032  1.00  0.00     0.102 A 
HETATM   26  C   UNL     1      41.088 -13.784   3.708  1.00  0.00     0.049 A 
BRANCH  24  27
HETATM   27  O   UNL     1      43.139 -14.673   6.617  1.00  0.00    -0.358 OA
HETATM   28  H   UNL     1      44.062 -14.971   6.619  1.00  0.00     0.218 HD
ENDBRANCH  24  27
BRANCH  25  29
HETATM   29  O   UNL     1      40.380 -14.125   5.900  1.00  0.00    -0.349 OA
BRANCH  29  30
HETATM   30  C   UNL     1      39.383 -13.117   5.700  1.00  0.00     0.171 C 
HETATM   31  C   UNL     1      39.419 -12.177   6.892  1.00  0.00     0.034 C 
ENDBRANCH  29  30
ENDBRANCH  25  29
ENDBRANCH   1  21
BRANCH   5  32
HETATM   32  O   UNL     1      38.516 -14.604  -0.235  1.00  0.00    -0.355 OA
HETATM   33  H   UNL     1      38.542 -14.370  -1.184  1.00  0.00     0.218 HD
ENDBRANCH   5  32
BRANCH   2  34
HETATM   34  C   UNL     1      41.291 -10.851   1.304  1.00  0.00     0.129 C 
BRANCH  34  35
HETATM   35  C   UNL     1      42.368 -10.566   0.256  1.00  0.00     0.048 C 
BRANCH  35  36
HETATM   36  C   UNL     1      41.773 -10.417  -1.139  1.00  0.00     0.235 C 
BRANCH  36  37
HETATM   37  N   UNL     1      42.684 -11.056  -2.172  1.00  0.00    -0.079 N 
HETATM   38  H   UNL     1      43.657 -10.855  -1.903  1.00  0.00     0.278 HD
HETATM   39  C   UNL     1      42.539 -12.556  -2.224  1.00  0.00     0.269 C 
HETATM   40  C   UNL     1      42.487 -10.446  -3.534  1.00  0.00     0.269 C 
ENDBRANCH  36  37
ENDBRANCH  35  36
ENDBRANCH  34  35
ENDBRANCH   2  34
TORSDOF 14
ENDMDL
MODEL 7
REMARK VINA RESULT:      -7.5      3.532      9.235
REMARK  14 active torsions:
REMARK  status: ('A' for Active; 'I' for Inactive)
REMARK    1  A    between atoms: C_2  and  O_3 
REMARK    2  A    between atoms: O_3  and  C_4 
REMARK    3  A    between atoms: C_5  and  O_6 
REMARK    4  A    between atoms: C_9  and  C_10 
REMARK    5  A    between atoms: N_11  and  C_12 
REMARK    6  A    between atoms: C_12  and  C_13 
REMARK    7  A    between atoms: C_13  and  C_14 
REMARK    8  A    between atoms: C_14  and  N_15 
REMARK    9  A    between atoms: C_21  and  O_22 
REMARK   10  A    between atoms: C_23  and  C_24 
REMARK   11  A    between atoms: C_24  and  C_25 
REMARK   12  A    between atoms: C_29  and  O_30 
REMARK   13  A    between atoms: O_30  and  C_31 
REMARK   14  A    between atoms: C_31  and  C_32 
ROOT
HETATM    1  C   UNL     1      42.899 -15.647   3.984  1.00  0.00     0.161 A 
HETATM    2  N   UNL     1      42.822 -14.751   5.137  1.00  0.00    -0.333 N 
HETATM    3  C   UNL     1      41.554 -14.215   5.265  1.00  0.00     0.278 A 
HETATM    4  O   UNL     1      41.147 -13.433   6.105  1.00  0.00    -0.265 OA
HETATM    5  C   UNL     1      40.730 -14.736   4.154  1.00  0.00     0.146 A 
HETATM    6  C   UNL     1      41.531 -15.495   3.400  1.00  0.00     0.059 A 
ENDROOT
BRANCH   6   7
HETATM    7  C   UNL     1      41.212 -16.113   2.100  1.00  0.00     0.193 C 
HETATM    8  O   UNL     1      40.968 -17.314   2.050  1.00  0.00    -0.287 OA
BRANCH   7   9
HETATM    9  C   UNL     1      41.283 -15.311   0.845  1.00  0.00     0.015 A 
HETATM   10  C   UNL     1      40.966 -15.946  -0.363  1.00  0.00     0.025 A 
HETATM   11  C   UNL     1      41.066 -15.262  -1.588  1.00  0.00    -0.028 A 
HETATM   12  C   UNL     1      40.734 -15.975  -2.870  1.00  0.00     0.051 C 
HETATM   13  C   UNL     1      41.486 -13.921  -1.602  1.00  0.00     0.074 A 
HETATM   14  C   UNL     1      41.819 -13.294  -0.398  1.00  0.00     0.038 A 
HETATM   15  C   UNL     1      41.730 -13.987   0.814  1.00  0.00     0.018 A 
BRANCH  13  16
HETATM   16  O   UNL     1      41.554 -13.330  -2.835  1.00  0.00    -0.350 OA
BRANCH  16  17
HETATM   17  C   UNL     1      42.617 -12.406  -3.072  1.00  0.00     0.179 C 
BRANCH  17  18
HETATM   18  C   UNL     1      42.022 -11.027  -3.391  1.00  0.00     0.002 C 
HETATM   19  C   UNL     1      42.295 -10.025  -2.267  1.00  0.00     0.011 C 
HETATM   20  C   UNL     1      42.576 -10.503  -4.715  1.00  0.00     0.011 C 
ENDBRANCH  17  18
ENDBRANCH  16  17
ENDBRANCH  13  16
ENDBRANCH   7   9
ENDBRANCH   6   7
BRANCH   1  21
HETATM   21  C   UNL     1      43.270 -17.045   4.445  1.00  0.00    -0.028 A 
HETATM   22  C   UNL     1      43.018 -17.492   5.754  1.00  0.00     0.012 A 
HETATM   23  C   UNL     1      43.398 -18.775   6.158  1.00  0.00     0.040 A 
HETATM   24  C   UNL     1      44.015 -19.636   5.250  1.00  0.00     0.099 A 
HETATM   25  C   UNL     1      44.234 -19.230   3.932  1.00  0.00     0.102 A 
HETATM   26  C   UNL     1      43.882 -17.932   3.546  1.00  0.00     0.049 A 
BRANCH  24  27
HETATM   27  O   UNL     1      44.423 -20.868   5.678  1.00  0.00    -0.358 OA
HETATM   28  H   UNL     1      43.762 -21.237   6.284  1.00  0.00     0.218 HD
ENDBRANCH  24  27
BRANCH  25  29
HETATM   29  O   UNL     1      44.808 -19.981   2.940  1.00  0.00    -0.349 OA
BRANCH  29  30
HETATM   30  C   UNL     1      43.904 -20.441   1.930  1.00  0.00     0.171 C 
HETATM   31  C   UNL     1      43.941 -21.959   1.920  1.00  0.00     0.034 C 
ENDBRANCH  29  30
ENDBRANCH  25  29
ENDBRANCH   1  21
BRANCH   5  32
HETATM   32  O   UNL     1      39.433 -14.383   3.941  1.00  0.00    -0.355 OA
HETATM   33  H   UNL     1      39.344 -13.451   4.221  1.00  0.00     0.218 HD
ENDBRANCH   5  32
BRANCH   2  34
HETATM   34  C   UNL     1      44.026 -14.133   5.673  1.00  0.00     0.129 C 
BRANCH  34  35
HETATM   35  C   UNL     1      44.290 -14.407   7.154  1.00  0.00     0.048 C 
BRANCH  35  36
HETATM   36  C   UNL     1      45.063 -13.269   7.810  1.00  0.00     0.235 C 
BRANCH  36  37
HETATM   37  N   UNL     1      44.269 -12.692   8.969  1.00  0.00    -0.079 N 
HETATM   38  H   UNL     1      43.677 -13.441   9.351  1.00  0.00     0.278 HD
HETATM   39  C   UNL     1      45.152 -12.209  10.092  1.00  0.00     0.269 C 
HETATM   40  C   UNL     1      43.334 -11.606   8.511  1.00  0.00     0.269 C 
ENDBRANCH  36  37
ENDBRANCH  35  36
ENDBRANCH  34  35
ENDBRANCH   2  34
TORSDOF 14
ENDMDL
MODEL 8
REMARK VINA RESULT:      -7.4      6.185      9.968
REMARK  14 active torsions:
REMARK  status: ('A' for Active; 'I' for Inactive)
REMARK    1  A    between atoms: C_2  and  O_3 
REMARK    2  A    between atoms: O_3  and  C_4 
REMARK    3  A    between atoms: C_5  and  O_6 
REMARK    4  A    between atoms: C_9  and  C_10 
REMARK    5  A    between atoms: N_11  and  C_12 
REMARK    6  A    between atoms: C_12  and  C_13 
REMARK    7  A    between atoms: C_13  and  C_14 
REMARK    8  A    between atoms: C_14  and  N_15 
REMARK    9  A    between atoms: C_21  and  O_22 
REMARK   10  A    between atoms: C_23  and  C_24 
REMARK   11  A    between atoms: C_24  and  C_25 
REMARK   12  A    between atoms: C_29  and  O_30 
REMARK   13  A    between atoms: O_30  and  C_31 
REMARK   14  A    between atoms: C_31  and  C_32 
ROOT
HETATM    1  C   UNL     1      43.565 -15.231   5.151  1.00  0.00     0.161 A 
HETATM    2  N   UNL     1      42.849 -16.489   5.364  1.00  0.00    -0.333 N 
HETATM    3  C   UNL     1      42.814 -16.818   6.707  1.00  0.00     0.278 A 
HETATM    4  O   UNL     1      42.308 -17.794   7.231  1.00  0.00    -0.265 OA
HETATM    5  C   UNL     1      43.548 -15.770   7.447  1.00  0.00     0.146 A 
HETATM    6  C   UNL     1      44.023 -14.914   6.538  1.00  0.00     0.059 A 
ENDROOT
BRANCH   6   7
HETATM    7  C   UNL     1      44.942 -13.784   6.770  1.00  0.00     0.193 C 
HETATM    8  O   UNL     1      45.935 -13.663   6.060  1.00  0.00    -0.287 OA
BRANCH   7   9
HETATM    9  C   UNL     1      44.725 -12.855   7.916  1.00  0.00     0.015 A 
HETATM   10  C   UNL     1      43.534 -12.119   7.952  1.00  0.00     0.025 A 
HETATM   11  C   UNL     1      43.292 -11.185   8.974  1.00  0.00    -0.028 A 
HETATM   12  C   UNL     1      42.010 -10.397   8.978  1.00  0.00     0.051 C 
HETATM   13  C   UNL     1      44.256 -10.988   9.978  1.00  0.00     0.074 A 
HETATM   14  C   UNL     1      45.451 -11.710   9.931  1.00  0.00     0.038 A 
HETATM   15  C   UNL     1      45.690 -12.627   8.902  1.00  0.00     0.018 A 
BRANCH  13  16
HETATM   16  O   UNL     1      43.940 -10.063  10.936  1.00  0.00    -0.350 OA
BRANCH  16  17
HETATM   17  C   UNL     1      43.602 -10.544  12.238  1.00  0.00     0.179 C 
BRANCH  17  18
HETATM   18  C   UNL     1      43.259  -9.350  13.141  1.00  0.00     0.002 C 
HETATM   19  C   UNL     1      42.450  -8.293  12.387  1.00  0.00     0.011 C 
HETATM   20  C   UNL     1      42.495  -9.821  14.377  1.00  0.00     0.011 C 
ENDBRANCH  17  18
ENDBRANCH  16  17
ENDBRANCH  13  16
ENDBRANCH   7   9
ENDBRANCH   6   7
BRANCH   1  21
HETATM   21  C   UNL     1      42.636 -14.215   4.512  1.00  0.00    -0.028 A 
HETATM   22  C   UNL     1      41.501 -13.717   5.176  1.00  0.00     0.012 A 
HETATM   23  C   UNL     1      40.649 -12.803   4.550  1.00  0.00     0.040 A 
HETATM   24  C   UNL     1      40.933 -12.359   3.258  1.00  0.00     0.099 A 
HETATM   25  C   UNL     1      42.079 -12.805   2.597  1.00  0.00     0.102 A 
HETATM   26  C   UNL     1      42.908 -13.746   3.217  1.00  0.00     0.049 A 
BRANCH  24  27
HETATM   27  O   UNL     1      40.061 -11.504   2.645  1.00  0.00    -0.358 OA
HETATM   28  H   UNL     1      40.541 -10.952   2.008  1.00  0.00     0.218 HD
ENDBRANCH  24  27
BRANCH  25  29
HETATM   29  O   UNL     1      42.483 -12.432   1.342  1.00  0.00    -0.349 OA
BRANCH  29  30
HETATM   30  C   UNL     1      41.907 -13.189   0.272  1.00  0.00     0.171 C 
HETATM   31  C   UNL     1      41.384 -12.213  -0.767  1.00  0.00     0.034 C 
ENDBRANCH  29  30
ENDBRANCH  25  29
ENDBRANCH   1  21
BRANCH   5  32
HETATM   32  O   UNL     1      43.751 -15.794   8.793  1.00  0.00    -0.355 OA
HETATM   33  H   UNL     1      43.924 -14.872   9.069  1.00  0.00     0.218 HD
ENDBRANCH   5  32
BRANCH   2  34
HETATM   34  C   UNL     1      42.718 -17.455   4.284  1.00  0.00     0.129 C 
BRANCH  34  35
HETATM   35  C   UNL     1      44.010 -18.178   3.901  1.00  0.00     0.048 C 
BRANCH  35  36
HETATM   36  C   UNL     1      43.810 -19.096   2.701  1.00  0.00     0.235 C 
BRANCH  36  37
HETATM   37  N   UNL     1      44.652 -20.351   2.850  1.00  0.00    -0.079 N 
HETATM   38  H   UNL     1      45.574 -20.165   2.433  1.00  0.00     0.278 HD
HETATM   39  C   UNL     1      44.886 -20.722   4.293  1.00  0.00     0.269 C 
HETATM   40  C   UNL     1      44.064 -21.505   2.083  1.00  0.00     0.269 C 
ENDBRANCH  36  37
ENDBRANCH  35  36
ENDBRANCH  34  35
ENDBRANCH   2  34
TORSDOF 14
ENDMDL
MODEL 9
REMARK VINA RESULT:      -7.3      6.071      9.592
REMARK  14 active torsions:
REMARK  status: ('A' for Active; 'I' for Inactive)
REMARK    1  A    between atoms: C_2  and  O_3 
REMARK    2  A    between atoms: O_3  and  C_4 
REMARK    3  A    between atoms: C_5  and  O_6 
REMARK    4  A    between atoms: C_9  and  C_10 
REMARK    5  A    between atoms: N_11  and  C_12 
REMARK    6  A    between atoms: C_12  and  C_13 
REMARK    7  A    between atoms: C_13  and  C_14 
REMARK    8  A    between atoms: C_14  and  N_15 
REMARK    9  A    between atoms: C_21  and  O_22 
REMARK   10  A    between atoms: C_23  and  C_24 
REMARK   11  A    between atoms: C_24  and  C_25 
REMARK   12  A    between atoms: C_29  and  O_30 
REMARK   13  A    between atoms: O_30  and  C_31 
REMARK   14  A    between atoms: C_31  and  C_32 
ROOT
HETATM    1  C   UNL     1      43.525 -15.209   5.105  1.00  0.00     0.161 A 
HETATM    2  N   UNL     1      42.809 -16.464   5.336  1.00  0.00    -0.333 N 
HETATM    3  C   UNL     1      42.799 -16.789   6.679  1.00  0.00     0.278 A 
HETATM    4  O   UNL     1      42.300 -17.762   7.216  1.00  0.00    -0.265 OA
HETATM    5  C   UNL     1      43.551 -15.742   7.402  1.00  0.00     0.146 A 
HETATM    6  C   UNL     1      44.010 -14.890   6.482  1.00  0.00     0.059 A 
ENDROOT
BRANCH   6   7
HETATM    7  C   UNL     1      44.938 -13.762   6.692  1.00  0.00     0.193 C 
HETATM    8  O   UNL     1      45.924 -13.654   5.970  1.00  0.00    -0.287 OA
BRANCH   7   9
HETATM    9  C   UNL     1      44.736 -12.819   7.829  1.00  0.00     0.015 A 
HETATM   10  C   UNL     1      43.522 -12.125   7.904  1.00  0.00     0.025 A 
HETATM   11  C   UNL     1      43.292 -11.180   8.919  1.00  0.00    -0.028 A 
HETATM   12  C   UNL     1      41.983 -10.439   8.965  1.00  0.00     0.051 C 
HETATM   13  C   UNL     1      44.290 -10.931   9.876  1.00  0.00     0.074 A 
HETATM   14  C   UNL     1      45.507 -11.611   9.790  1.00  0.00     0.038 A 
HETATM   15  C   UNL     1      45.734 -12.539   8.768  1.00  0.00     0.018 A 
BRANCH  13  16
HETATM   16  O   UNL     1      43.982  -9.999  10.831  1.00  0.00    -0.350 OA
BRANCH  16  17
HETATM   17  C   UNL     1      43.953 -10.428  12.194  1.00  0.00     0.179 C 
BRANCH  17  18
HETATM   18  C   UNL     1      42.567 -10.132  12.783  1.00  0.00     0.002 C 
HETATM   19  C   UNL     1      41.615 -11.316  12.597  1.00  0.00     0.011 C 
HETATM   20  C   UNL     1      42.684  -9.773  14.263  1.00  0.00     0.011 C 
ENDBRANCH  17  18
ENDBRANCH  16  17
ENDBRANCH  13  16
ENDBRANCH   7   9
ENDBRANCH   6   7
BRANCH   1  21
HETATM   21  C   UNL     1      42.586 -14.192   4.481  1.00  0.00    -0.028 A 
HETATM   22  C   UNL     1      42.862 -13.579   3.246  1.00  0.00     0.012 A 
HETATM   23  C   UNL     1      41.993 -12.625   2.710  1.00  0.00     0.040 A 
HETATM   24  C   UNL     1      40.825 -12.286   3.393  1.00  0.00     0.099 A 
HETATM   25  C   UNL     1      40.508 -12.915   4.599  1.00  0.00     0.102 A 
HETATM   26  C   UNL     1      41.400 -13.844   5.145  1.00  0.00     0.049 A 
BRANCH  24  27
HETATM   27  O   UNL     1      40.014 -11.315   2.878  1.00  0.00    -0.358 OA
HETATM   28  H   UNL     1      39.481 -10.926   3.589  1.00  0.00     0.218 HD
ENDBRANCH  24  27
BRANCH  25  29
HETATM   29  O   UNL     1      39.388 -12.691   5.356  1.00  0.00    -0.349 OA
BRANCH  29  30
HETATM   30  C   UNL     1      39.619 -12.002   6.589  1.00  0.00     0.171 C 
HETATM   31  C   UNL     1      39.525 -10.510   6.320  1.00  0.00     0.034 C 
ENDBRANCH  29  30
ENDBRANCH  25  29
ENDBRANCH   1  21
BRANCH   5  32
HETATM   32  O   UNL     1      43.781 -15.762   8.743  1.00  0.00    -0.355 OA
HETATM   33  H   UNL     1      43.133 -16.382   9.132  1.00  0.00     0.218 HD
ENDBRANCH   5  32
BRANCH   2  34
HETATM   34  C   UNL     1      42.653 -17.433   4.261  1.00  0.00     0.129 C 
BRANCH  34  35
HETATM   35  C   UNL     1      41.413 -17.238   3.387  1.00  0.00     0.048 C 
BRANCH  35  36
HETATM   36  C   UNL     1      41.782 -17.012   1.926  1.00  0.00     0.235 C 
BRANCH  36  37
HETATM   37  N   UNL     1      40.638 -16.335   1.192  1.00  0.00    -0.079 N 
HETATM   38  H   UNL     1      40.092 -17.065   0.715  1.00  0.00     0.278 HD
HETATM   39  C   UNL     1      39.697 -15.616   2.125  1.00  0.00     0.269 C 
HETATM   40  C   UNL     1      41.143 -15.412   0.115  1.00  0.00     0.269 C 
ENDBRANCH  36  37
ENDBRANCH  35  36
ENDBRANCH  34  35
ENDBRANCH   2  34
TORSDOF 14
ENDMDL
MODEL 10
REMARK VINA RESULT:      -7.2      2.714      5.067
REMARK  14 active torsions:
REMARK  status: ('A' for Active; 'I' for Inactive)
REMARK    1  A    between atoms: C_2  and  O_3 
REMARK    2  A    between atoms: O_3  and  C_4 
REMARK    3  A    between atoms: C_5  and  O_6 
REMARK    4  A    between atoms: C_9  and  C_10 
REMARK    5  A    between atoms: N_11  and  C_12 
REMARK    6  A    between atoms: C_12  and  C_13 
REMARK    7  A    between atoms: C_13  and  C_14 
REMARK    8  A    between atoms: C_14  and  N_15 
REMARK    9  A    between atoms: C_21  and  O_22 
REMARK   10  A    between atoms: C_23  and  C_24 
REMARK   11  A    between atoms: C_24  and  C_25 
REMARK   12  A    between atoms: C_29  and  O_30 
REMARK   13  A    between atoms: O_30  and  C_31 
REMARK   14  A    between atoms: C_31  and  C_32 
ROOT
HETATM    1  C   UNL     1      41.337 -13.596   1.065  1.00  0.00     0.161 A 
HETATM    2  N   UNL     1      41.674 -12.889  -0.170  1.00  0.00    -0.333 N 
HETATM    3  C   UNL     1      41.360 -13.653  -1.279  1.00  0.00     0.278 A 
HETATM    4  O   UNL     1      41.514 -13.374  -2.455  1.00  0.00    -0.265 OA
HETATM    5  C   UNL     1      40.810 -14.938  -0.801  1.00  0.00     0.146 A 
HETATM    6  C   UNL     1      40.868 -14.912   0.533  1.00  0.00     0.059 A 
ENDROOT
BRANCH   6   7
HETATM    7  C   UNL     1      40.573 -16.018   1.463  1.00  0.00     0.193 C 
HETATM    8  O   UNL     1      39.427 -16.167   1.875  1.00  0.00    -0.287 OA
BRANCH   7   9
HETATM    9  C   UNL     1      41.670 -16.888   1.975  1.00  0.00     0.015 A 
HETATM   10  C   UNL     1      41.614 -17.304   3.311  1.00  0.00     0.025 A 
HETATM   11  C   UNL     1      42.645 -18.078   3.871  1.00  0.00    -0.028 A 
HETATM   12  C   UNL     1      42.565 -18.497   5.314  1.00  0.00     0.051 C 
HETATM   13  C   UNL     1      43.747 -18.445   3.080  1.00  0.00     0.074 A 
HETATM   14  C   UNL     1      43.811 -18.014   1.752  1.00  0.00     0.038 A 
HETATM   15  C   UNL     1      42.787 -17.232   1.207  1.00  0.00     0.018 A 
BRANCH  13  16
HETATM   16  O   UNL     1      44.704 -19.201   3.702  1.00  0.00    -0.350 OA
BRANCH  16  17
HETATM   17  C   UNL     1      45.235 -20.319   2.989  1.00  0.00     0.179 C 
BRANCH  17  18
HETATM   18  C   UNL     1      44.175 -21.429   2.936  1.00  0.00     0.002 C 
HETATM   19  C   UNL     1      43.886 -21.860   1.497  1.00  0.00     0.011 C 
HETATM   20  C   UNL     1      44.620 -22.629   3.770  1.00  0.00     0.011 C 
ENDBRANCH  17  18
ENDBRANCH  16  17
ENDBRANCH  13  16
ENDBRANCH   7   9
ENDBRANCH   6   7
BRANCH   1  21
HETATM   21  C   UNL     1      40.314 -12.796   1.850  1.00  0.00    -0.028 A 
HETATM   22  C   UNL     1      39.016 -12.560   1.364  1.00  0.00     0.012 A 
HETATM   23  C   UNL     1      38.105 -11.795   2.097  1.00  0.00     0.040 A 
HETATM   24  C   UNL     1      38.473 -11.273   3.337  1.00  0.00     0.099 A 
HETATM   25  C   UNL     1      39.742 -11.532   3.861  1.00  0.00     0.102 A 
HETATM   26  C   UNL     1      40.660 -12.270   3.105  1.00  0.00     0.049 A 
BRANCH  24  27
HETATM   27  O   UNL     1      37.586 -10.486   4.015  1.00  0.00    -0.358 OA
HETATM   28  H   UNL     1      36.695 -10.615   3.653  1.00  0.00     0.218 HD
ENDBRANCH  24  27
BRANCH  25  29
HETATM   29  O   UNL     1      40.220 -11.100   5.070  1.00  0.00    -0.349 OA
BRANCH  29  30
HETATM   30  C   UNL     1      40.584 -12.140   5.983  1.00  0.00     0.171 C 
HETATM   31  C   UNL     1      39.343 -12.541   6.759  1.00  0.00     0.034 C 
ENDBRANCH  29  30
ENDBRANCH  25  29
ENDBRANCH   1  21
BRANCH   5  32
HETATM   32  O   UNL     1      40.433 -15.955  -1.623  1.00  0.00    -0.355 OA
HETATM   33  H   UNL     1      40.520 -16.782  -1.109  1.00  0.00     0.218 HD
ENDBRANCH   5  32
BRANCH   2  34
HETATM   34  C   UNL     1      42.672 -11.830  -0.166  1.00  0.00     0.129 C 
BRANCH  34  35
HETATM   35  C   UNL     1      42.167 -10.462  -0.626  1.00  0.00     0.048 C 
BRANCH  35  36
HETATM   36  C   UNL     1      43.099  -9.831  -1.653  1.00  0.00     0.235 C 
BRANCH  36  37
HETATM   37  N   UNL     1      43.029  -8.316  -1.569  1.00  0.00    -0.079 N 
HETATM   38  H   UNL     1      42.266  -8.070  -0.924  1.00  0.00     0.278 HD
HETATM   39  C   UNL     1      44.292  -7.708  -1.012  1.00  0.00     0.269 C 
HETATM   40  C   UNL     1      42.674  -7.705  -2.898  1.00  0.00     0.269 C 
ENDBRANCH  36  37
ENDBRANCH  35  36
ENDBRANCH  34  35
ENDBRANCH   2  34
TORSDOF 14
ENDMDL
