MODEL 1
REMARK VINA RESULT:     -10.1      0.000      0.000
REMARK  6 active torsions:
REMARK  status: ('A' for Active; 'I' for Inactive)
REMARK    1  A    between atoms: C_5  and  C_6 
REMARK    2  A    between atoms: C_6  and  N_7 
REMARK       I    between atoms: N_7  and  C_8 
REMARK    3  A    between atoms: C_8  and  C_9 
REMARK    4  A    between atoms: C_10  and  N_11 
REMARK    5  A    between atoms: N_12  and  C_13 
REMARK    6  A    between atoms: C_16  and  N_17 
REMARK       I    between atoms: N_17  and  C_18 
ROOT
HETATM    1  C   UNL     1      41.290 -16.666   2.919  1.00  0.00     0.103 C 
HETATM    2  C   UNL     1      41.189 -16.213   4.233  1.00  0.00     0.105 C 
HETATM    3  N   UNL     1      42.409 -16.548   4.831  1.00  0.00    -0.284 N 
HETATM    4  C   UNL     1      42.766 -17.763   4.257  1.00  0.00     0.166 A 
HETATM    5  C   UNL     1      42.162 -17.783   2.997  1.00  0.00     0.123 A 
HETATM    6  N   UNL     1      42.467 -18.748   2.093  1.00  0.00    -0.242 NA
HETATM    7  C   UNL     1      43.296 -19.702   2.540  1.00  0.00     0.086 A 
HETATM    8  C   UNL     1      43.856 -19.686   3.845  1.00  0.00     0.088 A 
HETATM    9  N   UNL     1      43.626 -18.696   4.724  1.00  0.00    -0.226 NA
HETATM   10  C   UNL     1      43.611 -20.754   1.690  1.00  0.00     0.034 A 
HETATM   11  C   UNL     1      44.445 -21.799   2.093  1.00  0.00     0.002 A 
HETATM   12  C   UNL     1      44.977 -21.791   3.375  1.00  0.00     0.002 A 
HETATM   13  C   UNL     1      44.681 -20.733   4.235  1.00  0.00     0.034 A 
ENDROOT
BRANCH   1  14
HETATM   14  C   UNL     1      40.638 -16.082   1.754  1.00  0.00     0.257 C 
HETATM   15  N   UNL     1      41.480 -16.005   0.660  1.00  0.00    -0.352 N 
HETATM   16  H   UNL     1      42.418 -16.356   0.808  1.00  0.00     0.163 HD
HETATM   17  O   UNL     1      39.445 -15.813   1.694  1.00  0.00    -0.267 OA
BRANCH  15  18
HETATM   18  C   UNL     1      40.975 -16.090  -0.689  1.00  0.00     0.161 C 
BRANCH  18  19
HETATM   19  C   UNL     1      41.302 -14.830  -1.459  1.00  0.00    -0.041 A 
HETATM   20  C   UNL     1      41.085 -14.753  -2.845  1.00  0.00     0.009 A 
HETATM   21  C   UNL     1      41.441 -13.609  -3.564  1.00  0.00     0.007 A 
HETATM   22  C   UNL     1      42.002 -12.510  -2.909  1.00  0.00    -0.062 A 
HETATM   23  C   UNL     1      42.375 -11.281  -3.684  1.00  0.00     0.048 C 
HETATM   24  C   UNL     1      42.167 -12.560  -1.520  1.00  0.00     0.007 A 
HETATM   25  C   UNL     1      41.827 -13.711  -0.803  1.00  0.00     0.009 A 
ENDBRANCH  18  19
ENDBRANCH  15  18
ENDBRANCH   1  14
BRANCH   2  26
HETATM   26  N   UNL     1      40.227 -15.455   4.835  1.00  0.00    -0.287 NA
HETATM   27  H   UNL     1      39.642 -15.908   5.543  1.00  0.00     0.125 HD
HETATM   28  H   UNL     1      40.493 -14.524   5.165  1.00  0.00     0.125 HD
ENDBRANCH   2  26
BRANCH   3  29
HETATM   29  C   UNL     1      43.239 -15.673   5.613  1.00  0.00     0.042 A 
HETATM   30  C   UNL     1      43.568 -16.011   6.936  1.00  0.00     0.032 A 
HETATM   31  C   UNL     1      44.113 -15.068   7.813  1.00  0.00     0.032 A 
HETATM   32  C   UNL     1      44.327 -13.759   7.400  1.00  0.00     0.034 A 
HETATM   33  C   UNL     1      44.086 -13.436   6.060  1.00  0.00     0.032 A 
HETATM   34  C   UNL     1      43.549 -14.381   5.173  1.00  0.00     0.032 A 
BRANCH  32  35
HETATM   35  N   UNL     1      44.691 -12.716   8.275  1.00  0.00    -0.328 N 
HETATM   36  C   UNL     1      45.956 -12.184   8.456  1.00  0.00     0.218 C 
HETATM   37  C   UNL     1      46.027 -11.275   9.656  1.00  0.00     0.117 C 
HETATM   38  O   UNL     1      46.950 -12.382   7.763  1.00  0.00    -0.274 OA
HETATM   39  H   UNL     1      43.964 -12.388   8.900  1.00  0.00     0.169 HD
ENDBRANCH  32  35
ENDBRANCH   3  29
TORSDOF 6
ENDMDL
MODEL 2
REMARK VINA RESULT:      -9.8      2.261      2.838
REMARK  6 active torsions:
REMARK  status: ('A' for Active; 'I' for Inactive)
REMARK    1  A    between atoms: C_5  and  C_6 
REMARK    2  A    between atoms: C_6  and  N_7 
REMARK       I    between atoms: N_7  and  C_8 
REMARK    3  A    between atoms: C_8  and  C_9 
REMARK    4  A    between atoms: C_10  and  N_11 
REMARK    5  A    between atoms: N_12  and  C_13 
REMARK    6  A    between atoms: C_16  and  N_17 
REMARK       I    between atoms: N_17  and  C_18 
ROOT
HETATM    1  C   UNL     1      41.581 -17.006   2.469  1.00  0.00     0.103 C 
HETATM    2  C   UNL     1      41.349 -16.499   3.747  1.00  0.00     0.105 C 
HETATM    3  N   UNL     1      42.478 -16.855   4.492  1.00  0.00    -0.284 N 
HETATM    4  C   UNL     1      42.848 -18.104   4.006  1.00  0.00     0.166 A 
HETATM    5  C   UNL     1      42.392 -18.150   2.686  1.00  0.00     0.123 A 
HETATM    6  N   UNL     1      42.758 -19.160   1.856  1.00  0.00    -0.242 NA
HETATM    7  C   UNL     1      43.491 -20.127   2.429  1.00  0.00     0.086 A 
HETATM    8  C   UNL     1      43.897 -20.081   3.788  1.00  0.00     0.088 A 
HETATM    9  N   UNL     1      43.610 -19.050   4.600  1.00  0.00    -0.226 NA
HETATM   10  C   UNL     1      43.857 -21.221   1.657  1.00  0.00     0.034 A 
HETATM   11  C   UNL     1      44.595 -22.280   2.190  1.00  0.00     0.002 A 
HETATM   12  C   UNL     1      44.978 -22.242   3.524  1.00  0.00     0.002 A 
HETATM   13  C   UNL     1      44.629 -21.142   4.307  1.00  0.00     0.034 A 
ENDROOT
BRANCH   1  14
HETATM   14  C   UNL     1      41.092 -16.443   1.217  1.00  0.00     0.257 C 
HETATM   15  N   UNL     1      39.886 -15.785   1.368  1.00  0.00    -0.352 N 
HETATM   16  H   UNL     1      39.508 -15.781   2.308  1.00  0.00     0.163 HD
HETATM   17  O   UNL     1      41.731 -16.427   0.172  1.00  0.00    -0.267 OA
BRANCH  15  18
HETATM   18  C   UNL     1      39.527 -14.664   0.533  1.00  0.00     0.161 C 
BRANCH  18  19
HETATM   19  C   UNL     1      39.348 -13.416   1.368  1.00  0.00    -0.041 A 
HETATM   20  C   UNL     1      40.398 -12.916   2.156  1.00  0.00     0.009 A 
HETATM   21  C   UNL     1      40.214 -11.796   2.970  1.00  0.00     0.007 A 
HETATM   22  C   UNL     1      38.981 -11.138   2.997  1.00  0.00    -0.062 A 
HETATM   23  C   UNL     1      38.791  -9.931   3.867  1.00  0.00     0.048 C 
HETATM   24  C   UNL     1      37.950 -11.597   2.170  1.00  0.00     0.007 A 
HETATM   25  C   UNL     1      38.129 -12.728   1.367  1.00  0.00     0.009 A 
ENDBRANCH  18  19
ENDBRANCH  15  18
ENDBRANCH   1  14
BRANCH   2  26
HETATM   26  N   UNL     1      40.357 -15.683   4.207  1.00  0.00    -0.287 NA
HETATM   27  H   UNL     1      39.996 -14.969   3.567  1.00  0.00     0.125 HD
HETATM   28  H   UNL     1      39.574 -16.119   4.699  1.00  0.00     0.125 HD
ENDBRANCH   2  26
BRANCH   3  29
HETATM   29  C   UNL     1      43.249 -15.982   5.336  1.00  0.00     0.042 A 
HETATM   30  C   UNL     1      43.545 -16.359   6.655  1.00  0.00     0.032 A 
HETATM   31  C   UNL     1      44.025 -15.432   7.586  1.00  0.00     0.032 A 
HETATM   32  C   UNL     1      44.204 -14.101   7.229  1.00  0.00     0.034 A 
HETATM   33  C   UNL     1      43.996 -13.736   5.894  1.00  0.00     0.032 A 
HETATM   34  C   UNL     1      43.525 -14.664   4.955  1.00  0.00     0.032 A 
BRANCH  32  35
HETATM   35  N   UNL     1      44.499 -13.080   8.155  1.00  0.00    -0.328 N 
HETATM   36  C   UNL     1      45.725 -12.469   8.358  1.00  0.00     0.218 C 
HETATM   37  C   UNL     1      45.740 -11.619   9.602  1.00  0.00     0.117 C 
HETATM   38  O   UNL     1      46.725 -12.560   7.652  1.00  0.00    -0.274 OA
HETATM   39  H   UNL     1      43.756 -12.837   8.799  1.00  0.00     0.169 HD
ENDBRANCH  32  35
ENDBRANCH   3  29
TORSDOF 6
ENDMDL
MODEL 3
REMARK VINA RESULT:      -9.7      3.780      7.295
REMARK  6 active torsions:
REMARK  status: ('A' for Active; 'I' for Inactive)
REMARK    1  A    between atoms: C_5  and  C_6 
REMARK    2  A    between atoms: C_6  and  N_7 
REMARK       I    between atoms: N_7  and  C_8 
REMARK    3  A    between atoms: C_8  and  C_9 
REMARK    4  A    between atoms: C_10  and  N_11 
REMARK    5  A    between atoms: N_12  and  C_13 
REMARK    6  A    between atoms: C_16  and  N_17 
REMARK       I    between atoms: N_17  and  C_18 
ROOT
HETATM    1  C   UNL     1      41.214 -14.699   4.887  1.00  0.00     0.103 C 
HETATM    2  C   UNL     1      41.806 -13.596   5.499  1.00  0.00     0.105 C 
HETATM    3  N   UNL     1      40.831 -12.593   5.468  1.00  0.00    -0.284 N 
HETATM    4  C   UNL     1      40.164 -12.781   4.263  1.00  0.00     0.166 A 
HETATM    5  C   UNL     1      40.298 -14.138   3.960  1.00  0.00     0.123 A 
HETATM    6  N   UNL     1      39.595 -14.698   2.942  1.00  0.00    -0.242 NA
HETATM    7  C   UNL     1      38.863 -13.839   2.219  1.00  0.00     0.086 A 
HETATM    8  C   UNL     1      38.785 -12.453   2.518  1.00  0.00     0.088 A 
HETATM    9  N   UNL     1      39.411 -11.898   3.568  1.00  0.00    -0.226 NA
HETATM   10  C   UNL     1      38.160 -14.328   1.126  1.00  0.00     0.034 A 
HETATM   11  C   UNL     1      37.398 -13.491   0.309  1.00  0.00     0.002 A 
HETATM   12  C   UNL     1      37.336 -12.133   0.592  1.00  0.00     0.002 A 
HETATM   13  C   UNL     1      38.026 -11.630   1.695  1.00  0.00     0.034 A 
ENDROOT
BRANCH   1  14
HETATM   14  C   UNL     1      41.495 -16.099   5.177  1.00  0.00     0.257 C 
HETATM   15  N   UNL     1      42.687 -16.526   4.624  1.00  0.00    -0.352 N 
HETATM   16  H   UNL     1      43.198 -15.826   4.100  1.00  0.00     0.163 HD
HETATM   17  O   UNL     1      40.831 -16.792   5.938  1.00  0.00    -0.267 OA
BRANCH  15  18
HETATM   18  C   UNL     1      43.480 -17.561   5.242  1.00  0.00     0.161 C 
BRANCH  18  19
HETATM   19  C   UNL     1      43.723 -18.695   4.271  1.00  0.00    -0.041 A 
HETATM   20  C   UNL     1      43.147 -18.686   2.989  1.00  0.00     0.009 A 
HETATM   21  C   UNL     1      43.326 -19.761   2.115  1.00  0.00     0.007 A 
HETATM   22  C   UNL     1      44.102 -20.859   2.496  1.00  0.00    -0.062 A 
HETATM   23  C   UNL     1      44.298 -22.008   1.551  1.00  0.00     0.048 C 
HETATM   24  C   UNL     1      44.725 -20.847   3.749  1.00  0.00     0.007 A 
HETATM   25  C   UNL     1      44.533 -19.779   4.631  1.00  0.00     0.009 A 
ENDBRANCH  18  19
ENDBRANCH  15  18
ENDBRANCH   1  14
BRANCH   2  26
HETATM   26  N   UNL     1      42.996 -13.484   6.158  1.00  0.00    -0.287 NA
HETATM   27  H   UNL     1      43.852 -13.524   5.599  1.00  0.00     0.125 HD
HETATM   28  H   UNL     1      43.084 -12.741   6.855  1.00  0.00     0.125 HD
ENDBRANCH   2  26
BRANCH   3  29
HETATM   29  C   UNL     1      40.422 -11.773   6.576  1.00  0.00     0.042 A 
HETATM   30  C   UNL     1      41.171 -10.638   6.925  1.00  0.00     0.032 A 
HETATM   31  C   UNL     1      40.985  -9.994   8.153  1.00  0.00     0.032 A 
HETATM   32  C   UNL     1      40.059 -10.476   9.071  1.00  0.00     0.034 A 
HETATM   33  C   UNL     1      39.247 -11.551   8.694  1.00  0.00     0.032 A 
HETATM   34  C   UNL     1      39.423 -12.194   7.460  1.00  0.00     0.032 A 
BRANCH  32  35
HETATM   35  N   UNL     1      39.952  -9.998  10.392  1.00  0.00    -0.328 N 
HETATM   36  C   UNL     1      40.661 -10.438  11.497  1.00  0.00     0.218 C 
HETATM   37  C   UNL     1      40.103  -9.895  12.787  1.00  0.00     0.117 C 
HETATM   38  O   UNL     1      41.638 -11.181  11.503  1.00  0.00    -0.274 OA
HETATM   39  H   UNL     1      39.214  -9.325  10.562  1.00  0.00     0.169 HD
ENDBRANCH  32  35
ENDBRANCH   3  29
TORSDOF 6
ENDMDL
MODEL 4
REMARK VINA RESULT:      -9.5      2.550      8.661
REMARK  6 active torsions:
REMARK  status: ('A' for Active; 'I' for Inactive)
REMARK    1  A    between atoms: C_5  and  C_6 
REMARK    2  A    between atoms: C_6  and  N_7 
REMARK       I    between atoms: N_7  and  C_8 
REMARK    3  A    between atoms: C_8  and  C_9 
REMARK    4  A    between atoms: C_10  and  N_11 
REMARK    5  A    between atoms: N_12  and  C_13 
REMARK    6  A    between atoms: C_16  and  N_17 
REMARK       I    between atoms: N_17  and  C_18 
ROOT
HETATM    1  C   UNL     1      42.188 -15.518   5.695  1.00  0.00     0.103 C 
HETATM    2  C   UNL     1      41.177 -16.161   4.984  1.00  0.00     0.105 C 
HETATM    3  N   UNL     1      40.688 -15.200   4.093  1.00  0.00    -0.284 N 
HETATM    4  C   UNL     1      40.759 -13.998   4.790  1.00  0.00     0.166 A 
HETATM    5  C   UNL     1      41.793 -14.155   5.717  1.00  0.00     0.123 A 
HETATM    6  N   UNL     1      42.257 -13.098   6.430  1.00  0.00    -0.242 NA
HETATM    7  C   UNL     1      41.590 -11.950   6.241  1.00  0.00     0.086 A 
HETATM    8  C   UNL     1      40.508 -11.830   5.330  1.00  0.00     0.088 A 
HETATM    9  N   UNL     1      40.088 -12.847   4.559  1.00  0.00    -0.226 NA
HETATM   10  C   UNL     1      41.971 -10.837   6.978  1.00  0.00     0.034 A 
HETATM   11  C   UNL     1      41.306  -9.615   6.857  1.00  0.00     0.002 A 
HETATM   12  C   UNL     1      40.238  -9.503   5.978  1.00  0.00     0.002 A 
HETATM   13  C   UNL     1      39.853 -10.610   5.221  1.00  0.00     0.034 A 
ENDROOT
BRANCH   1  14
HETATM   14  C   UNL     1      43.377 -16.145   6.260  1.00  0.00     0.257 C 
HETATM   15  N   UNL     1      43.308 -17.526   6.239  1.00  0.00    -0.352 N 
HETATM   16  H   UNL     1      42.459 -17.912   5.844  1.00  0.00     0.163 HD
HETATM   17  O   UNL     1      44.386 -15.536   6.590  1.00  0.00    -0.267 OA
BRANCH  15  18
HETATM   18  C   UNL     1      44.493 -18.340   6.120  1.00  0.00     0.161 C 
BRANCH  18  19
HETATM   19  C   UNL     1      44.383 -19.267   4.930  1.00  0.00    -0.041 A 
HETATM   20  C   UNL     1      44.737 -20.623   5.035  1.00  0.00     0.009 A 
HETATM   21  C   UNL     1      44.689 -21.465   3.921  1.00  0.00     0.007 A 
HETATM   22  C   UNL     1      44.265 -20.973   2.683  1.00  0.00    -0.062 A 
HETATM   23  C   UNL     1      44.208 -21.884   1.491  1.00  0.00     0.048 C 
HETATM   24  C   UNL     1      43.857 -19.639   2.587  1.00  0.00     0.007 A 
HETATM   25  C   UNL     1      43.921 -18.791   3.698  1.00  0.00     0.009 A 
ENDBRANCH  18  19
ENDBRANCH  15  18
ENDBRANCH   1  14
BRANCH   2  26
HETATM   26  N   UNL     1      40.800 -17.473   4.973  1.00  0.00    -0.287 NA
HETATM   27  H   UNL     1      41.105 -18.059   5.756  1.00  0.00     0.125 HD
HETATM   28  H   UNL     1      39.824 -17.685   4.756  1.00  0.00     0.125 HD
ENDBRANCH   2  26
BRANCH   3  29
HETATM   29  C   UNL     1      40.469 -15.382   2.683  1.00  0.00     0.042 A 
HETATM   30  C   UNL     1      41.375 -16.136   1.922  1.00  0.00     0.032 A 
HETATM   31  C   UNL     1      41.365 -16.091   0.524  1.00  0.00     0.032 A 
HETATM   32  C   UNL     1      40.461 -15.277  -0.149  1.00  0.00     0.034 A 
HETATM   33  C   UNL     1      39.497 -14.592   0.598  1.00  0.00     0.032 A 
HETATM   34  C   UNL     1      39.497 -14.642   2.000  1.00  0.00     0.032 A 
BRANCH  32  35
HETATM   35  N   UNL     1      40.516 -15.036  -1.537  1.00  0.00    -0.328 N 
HETATM   36  C   UNL     1      41.215 -14.029  -2.180  1.00  0.00     0.218 C 
HETATM   37  C   UNL     1      40.833 -13.908  -3.633  1.00  0.00     0.117 C 
HETATM   38  O   UNL     1      42.060 -13.285  -1.692  1.00  0.00    -0.274 OA
HETATM   39  H   UNL     1      39.906 -15.607  -2.110  1.00  0.00     0.169 HD
ENDBRANCH  32  35
ENDBRANCH   3  29
TORSDOF 6
ENDMDL
MODEL 5
REMARK VINA RESULT:      -9.2      3.560      9.082
REMARK  6 active torsions:
REMARK  status: ('A' for Active; 'I' for Inactive)
REMARK    1  A    between atoms: C_5  and  C_6 
REMARK    2  A    between atoms: C_6  and  N_7 
REMARK       I    between atoms: N_7  and  C_8 
REMARK    3  A    between atoms: C_8  and  C_9 
REMARK    4  A    between atoms: C_10  and  N_11 
REMARK    5  A    between atoms: N_12  and  C_13 
REMARK    6  A    between atoms: C_16  and  N_17 
REMARK       I    between atoms: N_17  and  C_18 
ROOT
HETATM    1  C   UNL     1      40.236 -14.764   3.804  1.00  0.00     0.103 C 
HETATM    2  C   UNL     1      39.668 -15.161   2.595  1.00  0.00     0.105 C 
HETATM    3  N   UNL     1      39.648 -14.008   1.803  1.00  0.00    -0.284 N 
HETATM    4  C   UNL     1      39.391 -12.970   2.691  1.00  0.00     0.166 A 
HETATM    5  C   UNL     1      39.878 -13.396   3.929  1.00  0.00     0.123 A 
HETATM    6  N   UNL     1      39.960 -12.539   4.979  1.00  0.00    -0.242 NA
HETATM    7  C   UNL     1      39.458 -11.317   4.753  1.00  0.00     0.086 A 
HETATM    8  C   UNL     1      38.921 -10.925   3.499  1.00  0.00     0.088 A 
HETATM    9  N   UNL     1      38.905 -11.735   2.428  1.00  0.00    -0.226 NA
HETATM   10  C   UNL     1      39.456 -10.401   5.798  1.00  0.00     0.034 A 
HETATM   11  C   UNL     1      38.925  -9.119   5.648  1.00  0.00     0.002 A 
HETATM   12  C   UNL     1      38.385  -8.742   4.426  1.00  0.00     0.002 A 
HETATM   13  C   UNL     1      38.393  -9.647   3.364  1.00  0.00     0.034 A 
ENDROOT
BRANCH   1  14
HETATM   14  C   UNL     1      41.027 -15.597   4.700  1.00  0.00     0.257 C 
HETATM   15  N   UNL     1      41.759 -16.556   4.023  1.00  0.00    -0.352 N 
HETATM   16  H   UNL     1      41.651 -16.554   3.017  1.00  0.00     0.163 HD
HETATM   17  O   UNL     1      41.149 -15.396   5.902  1.00  0.00    -0.267 OA
BRANCH  15  18
HETATM   18  C   UNL     1      43.023 -17.036   4.526  1.00  0.00     0.161 C 
BRANCH  18  19
HETATM   19  C   UNL     1      43.399 -18.340   3.859  1.00  0.00    -0.041 A 
HETATM   20  C   UNL     1      44.317 -19.220   4.456  1.00  0.00     0.009 A 
HETATM   21  C   UNL     1      44.707 -20.396   3.811  1.00  0.00     0.007 A 
HETATM   22  C   UNL     1      44.170 -20.729   2.564  1.00  0.00    -0.062 A 
HETATM   23  C   UNL     1      44.586 -21.997   1.880  1.00  0.00     0.048 C 
HETATM   24  C   UNL     1      43.212 -19.885   1.992  1.00  0.00     0.007 A 
HETATM   25  C   UNL     1      42.834 -18.699   2.629  1.00  0.00     0.009 A 
ENDBRANCH  18  19
ENDBRANCH  15  18
ENDBRANCH   1  14
BRANCH   2  26
HETATM   26  N   UNL     1      39.337 -16.405   2.141  1.00  0.00    -0.287 NA
HETATM   27  H   UNL     1      38.747 -16.987   2.743  1.00  0.00     0.125 HD
HETATM   28  H   UNL     1      39.015 -16.487   1.174  1.00  0.00     0.125 HD
ENDBRANCH   2  26
BRANCH   3  29
HETATM   29  C   UNL     1      40.107 -13.904   0.444  1.00  0.00     0.042 A 
HETATM   30  C   UNL     1      41.480 -13.953   0.159  1.00  0.00     0.032 A 
HETATM   31  C   UNL     1      41.978 -13.564  -1.089  1.00  0.00     0.032 A 
HETATM   32  C   UNL     1      41.119 -13.099  -2.078  1.00  0.00     0.034 A 
HETATM   33  C   UNL     1      39.742 -13.131  -1.834  1.00  0.00     0.032 A 
HETATM   34  C   UNL     1      39.237 -13.530  -0.587  1.00  0.00     0.032 A 
BRANCH  32  35
HETATM   35  N   UNL     1      41.563 -12.515  -3.282  1.00  0.00    -0.328 N 
HETATM   36  C   UNL     1      42.222 -11.306  -3.427  1.00  0.00     0.218 C 
HETATM   37  C   UNL     1      42.304 -10.871  -4.868  1.00  0.00     0.117 C 
HETATM   38  O   UNL     1      42.710 -10.615  -2.538  1.00  0.00    -0.274 OA
HETATM   39  H   UNL     1      41.288 -12.990  -4.133  1.00  0.00     0.169 HD
ENDBRANCH  32  35
ENDBRANCH   3  29
TORSDOF 6
ENDMDL
MODEL 6
REMARK VINA RESULT:      -9.2      3.215      4.143
REMARK  6 active torsions:
REMARK  status: ('A' for Active; 'I' for Inactive)
REMARK    1  A    between atoms: C_5  and  C_6 
REMARK    2  A    between atoms: C_6  and  N_7 
REMARK       I    between atoms: N_7  and  C_8 
REMARK    3  A    between atoms: C_8  and  C_9 
REMARK    4  A    between atoms: C_10  and  N_11 
REMARK    5  A    between atoms: N_12  and  C_13 
REMARK    6  A    between atoms: C_16  and  N_17 
REMARK       I    between atoms: N_17  and  C_18 
ROOT
HETATM    1  C   UNL     1      41.258 -14.382   0.625  1.00  0.00     0.103 C 
HETATM    2  C   UNL     1      40.162 -14.000   1.395  1.00  0.00     0.105 C 
HETATM    3  N   UNL     1      40.511 -14.319   2.712  1.00  0.00    -0.284 N 
HETATM    4  C   UNL     1      41.254 -15.490   2.610  1.00  0.00     0.166 A 
HETATM    5  C   UNL     1      41.829 -15.468   1.337  1.00  0.00     0.123 A 
HETATM    6  N   UNL     1      42.776 -16.374   0.984  1.00  0.00    -0.242 NA
HETATM    7  C   UNL     1      43.028 -17.318   1.902  1.00  0.00     0.086 A 
HETATM    8  C   UNL     1      42.390 -17.347   3.170  1.00  0.00     0.088 A 
HETATM    9  N   UNL     1      41.510 -16.413   3.565  1.00  0.00    -0.226 NA
HETATM   10  C   UNL     1      43.945 -18.314   1.591  1.00  0.00     0.034 A 
HETATM   11  C   UNL     1      44.238 -19.346   2.484  1.00  0.00     0.002 A 
HETATM   12  C   UNL     1      43.602 -19.383   3.717  1.00  0.00     0.002 A 
HETATM   13  C   UNL     1      42.689 -18.382   4.049  1.00  0.00     0.034 A 
ENDROOT
BRANCH   1  14
HETATM   14  C   UNL     1      41.692 -13.764  -0.622  1.00  0.00     0.257 C 
HETATM   15  N   UNL     1      41.794 -14.675  -1.657  1.00  0.00    -0.352 N 
HETATM   16  H   UNL     1      41.560 -15.631  -1.419  1.00  0.00     0.163 HD
HETATM   17  O   UNL     1      41.821 -12.557  -0.785  1.00  0.00    -0.267 OA
BRANCH  15  18
HETATM   18  C   UNL     1      41.569 -14.289  -3.029  1.00  0.00     0.161 C 
BRANCH  18  19
HETATM   19  C   UNL     1      40.093 -14.319  -3.354  1.00  0.00    -0.041 A 
HETATM   20  C   UNL     1      39.454 -15.520  -3.707  1.00  0.00     0.009 A 
HETATM   21  C   UNL     1      38.103 -15.536  -4.063  1.00  0.00     0.007 A 
HETATM   22  C   UNL     1      37.356 -14.355  -4.052  1.00  0.00    -0.062 A 
HETATM   23  C   UNL     1      35.904 -14.380  -4.427  1.00  0.00     0.048 C 
HETATM   24  C   UNL     1      37.972 -13.167  -3.645  1.00  0.00     0.007 A 
HETATM   25  C   UNL     1      39.329 -13.147  -3.305  1.00  0.00     0.009 A 
ENDBRANCH  18  19
ENDBRANCH  15  18
ENDBRANCH   1  14
BRANCH   2  26
HETATM   26  N   UNL     1      39.036 -13.309   1.050  1.00  0.00    -0.287 NA
HETATM   27  H   UNL     1      38.594 -12.734   1.773  1.00  0.00     0.125 HD
HETATM   28  H   UNL     1      39.049 -12.790   0.169  1.00  0.00     0.125 HD
ENDBRANCH   2  26
BRANCH   3  29
HETATM   29  C   UNL     1      40.393 -13.454   3.855  1.00  0.00     0.042 A 
HETATM   30  C   UNL     1      41.211 -12.319   3.966  1.00  0.00     0.032 A 
HETATM   31  C   UNL     1      41.337 -11.630   5.177  1.00  0.00     0.032 A 
HETATM   32  C   UNL     1      40.665 -12.067   6.312  1.00  0.00     0.034 A 
HETATM   33  C   UNL     1      39.779 -13.143   6.188  1.00  0.00     0.032 A 
HETATM   34  C   UNL     1      39.641 -13.831   4.973  1.00  0.00     0.032 A 
BRANCH  32  35
HETATM   35  N   UNL     1      40.890 -11.541   7.600  1.00  0.00    -0.328 N 
HETATM   36  C   UNL     1      40.065 -10.682   8.305  1.00  0.00     0.218 C 
HETATM   37  C   UNL     1      40.741 -10.116   9.527  1.00  0.00     0.117 C 
HETATM   38  O   UNL     1      38.910 -10.372   8.030  1.00  0.00    -0.274 OA
HETATM   39  H   UNL     1      41.794 -11.745   8.010  1.00  0.00     0.169 HD
ENDBRANCH  32  35
ENDBRANCH   3  29
TORSDOF 6
ENDMDL
MODEL 7
REMARK VINA RESULT:      -9.2      2.634      8.713
REMARK  6 active torsions:
REMARK  status: ('A' for Active; 'I' for Inactive)
REMARK    1  A    between atoms: C_5  and  C_6 
REMARK    2  A    between atoms: C_6  and  N_7 
REMARK       I    between atoms: N_7  and  C_8 
REMARK    3  A    between atoms: C_8  and  C_9 
REMARK    4  A    between atoms: C_10  and  N_11 
REMARK    5  A    between atoms: N_12  and  C_13 
REMARK    6  A    between atoms: C_16  and  N_17 
REMARK       I    between atoms: N_17  and  C_18 
ROOT
HETATM    1  C   UNL     1      43.499 -14.424   5.843  1.00  0.00     0.103 C 
HETATM    2  C   UNL     1      43.517 -14.325   4.453  1.00  0.00     0.105 C 
HETATM    3  N   UNL     1      42.857 -15.471   3.997  1.00  0.00    -0.284 N 
HETATM    4  C   UNL     1      43.213 -16.471   4.895  1.00  0.00     0.166 A 
HETATM    5  C   UNL     1      43.497 -15.820   6.098  1.00  0.00     0.123 A 
HETATM    6  N   UNL     1      43.691 -16.523   7.243  1.00  0.00    -0.242 NA
HETATM    7  C   UNL     1      43.685 -17.856   7.097  1.00  0.00     0.086 A 
HETATM    8  C   UNL     1      43.445 -18.493   5.850  1.00  0.00     0.088 A 
HETATM    9  N   UNL     1      43.172 -17.812   4.725  1.00  0.00    -0.226 NA
HETATM   10  C   UNL     1      43.932 -18.643   8.214  1.00  0.00     0.034 A 
HETATM   11  C   UNL     1      43.969 -20.037   8.135  1.00  0.00     0.002 A 
HETATM   12  C   UNL     1      43.751 -20.658   6.913  1.00  0.00     0.002 A 
HETATM   13  C   UNL     1      43.487 -19.880   5.785  1.00  0.00     0.034 A 
ENDROOT
BRANCH   1  14
HETATM   14  C   UNL     1      43.474 -13.312   6.786  1.00  0.00     0.257 C 
HETATM   15  N   UNL     1      44.381 -13.471   7.817  1.00  0.00    -0.352 N 
HETATM   16  H   UNL     1      44.931 -14.321   7.784  1.00  0.00     0.163 HD
HETATM   17  O   UNL     1      42.829 -12.284   6.622  1.00  0.00    -0.267 OA
BRANCH  15  18
HETATM   18  C   UNL     1      44.999 -12.338   8.461  1.00  0.00     0.161 C 
BRANCH  18  19
HETATM   19  C   UNL     1      44.235 -11.954   9.708  1.00  0.00    -0.041 A 
HETATM   20  C   UNL     1      44.472 -12.605  10.931  1.00  0.00     0.009 A 
HETATM   21  C   UNL     1      43.725 -12.289  12.069  1.00  0.00     0.007 A 
HETATM   22  C   UNL     1      42.740 -11.299  12.013  1.00  0.00    -0.062 A 
HETATM   23  C   UNL     1      41.946 -10.957  13.240  1.00  0.00     0.048 C 
HETATM   24  C   UNL     1      42.540 -10.608  10.813  1.00  0.00     0.007 A 
HETATM   25  C   UNL     1      43.276 -10.936   9.670  1.00  0.00     0.009 A 
ENDBRANCH  18  19
ENDBRANCH  15  18
ENDBRANCH   1  14
BRANCH   2  26
HETATM   26  N   UNL     1      43.914 -13.300   3.645  1.00  0.00    -0.287 NA
HETATM   27  H   UNL     1      44.918 -13.114   3.575  1.00  0.00     0.125 HD
HETATM   28  H   UNL     1      43.495 -13.240   2.714  1.00  0.00     0.125 HD
ENDBRANCH   2  26
BRANCH   3  29
HETATM   29  C   UNL     1      41.806 -15.511   3.016  1.00  0.00     0.042 A 
HETATM   30  C   UNL     1      42.098 -15.851   1.686  1.00  0.00     0.032 A 
HETATM   31  C   UNL     1      41.180 -15.616   0.657  1.00  0.00     0.032 A 
HETATM   32  C   UNL     1      39.954 -15.020   0.926  1.00  0.00     0.034 A 
HETATM   33  C   UNL     1      39.619 -14.760   2.260  1.00  0.00     0.032 A 
HETATM   34  C   UNL     1      40.533 -15.003   3.296  1.00  0.00     0.032 A 
BRANCH  32  35
HETATM   35  N   UNL     1      39.065 -14.582  -0.076  1.00  0.00    -0.328 N 
HETATM   36  C   UNL     1      39.076 -13.357  -0.722  1.00  0.00     0.218 C 
HETATM   37  C   UNL     1      37.827 -13.130  -1.535  1.00  0.00     0.117 C 
HETATM   38  O   UNL     1      39.960 -12.508  -0.685  1.00  0.00    -0.274 OA
HETATM   39  H   UNL     1      38.285 -15.196  -0.275  1.00  0.00     0.169 HD
ENDBRANCH  32  35
ENDBRANCH   3  29
TORSDOF 6
ENDMDL
MODEL 8
REMARK VINA RESULT:      -9.1      3.507      8.891
REMARK  6 active torsions:
REMARK  status: ('A' for Active; 'I' for Inactive)
REMARK    1  A    between atoms: C_5  and  C_6 
REMARK    2  A    between atoms: C_6  and  N_7 
REMARK       I    between atoms: N_7  and  C_8 
REMARK    3  A    between atoms: C_8  and  C_9 
REMARK    4  A    between atoms: C_10  and  N_11 
REMARK    5  A    between atoms: N_12  and  C_13 
REMARK    6  A    between atoms: C_16  and  N_17 
REMARK       I    between atoms: N_17  and  C_18 
ROOT
HETATM    1  C   UNL     1      40.352 -14.701   4.384  1.00  0.00     0.103 C 
HETATM    2  C   UNL     1      39.797 -14.726   3.106  1.00  0.00     0.105 C 
HETATM    3  N   UNL     1      39.889 -13.409   2.642  1.00  0.00    -0.284 N 
HETATM    4  C   UNL     1      39.680 -12.618   3.767  1.00  0.00     0.166 A 
HETATM    5  C   UNL     1      40.092 -13.389   4.857  1.00  0.00     0.123 A 
HETATM    6  N   UNL     1      40.204 -12.842   6.095  1.00  0.00    -0.242 NA
HETATM    7  C   UNL     1      39.801 -11.567   6.190  1.00  0.00     0.086 A 
HETATM    8  C   UNL     1      39.337 -10.821   5.074  1.00  0.00     0.088 A 
HETATM    9  N   UNL     1      39.296 -11.323   3.829  1.00  0.00    -0.226 NA
HETATM   10  C   UNL     1      39.833 -10.956   7.436  1.00  0.00     0.034 A 
HETATM   11  C   UNL     1      39.404  -9.640   7.619  1.00  0.00     0.002 A 
HETATM   12  C   UNL     1      38.934  -8.918   6.531  1.00  0.00     0.002 A 
HETATM   13  C   UNL     1      38.910  -9.514   5.270  1.00  0.00     0.034 A 
ENDROOT
BRANCH   1  14
HETATM   14  C   UNL     1      41.049 -15.800   5.042  1.00  0.00     0.257 C 
HETATM   15  N   UNL     1      41.937 -16.443   4.200  1.00  0.00    -0.352 N 
HETATM   16  H   UNL     1      41.985 -16.077   3.257  1.00  0.00     0.163 HD
HETATM   17  O   UNL     1      40.971 -16.047   6.239  1.00  0.00    -0.267 OA
BRANCH  15  18
HETATM   18  C   UNL     1      43.137 -17.067   4.701  1.00  0.00     0.161 C 
BRANCH  18  19
HETATM   19  C   UNL     1      43.464 -18.309   3.902  1.00  0.00    -0.041 A 
HETATM   20  C   UNL     1      42.901 -18.520   2.632  1.00  0.00     0.009 A 
HETATM   21  C   UNL     1      43.160 -19.694   1.920  1.00  0.00     0.007 A 
HETATM   22  C   UNL     1      44.004 -20.672   2.453  1.00  0.00    -0.062 A 
HETATM   23  C   UNL     1      44.285 -21.927   1.680  1.00  0.00     0.048 C 
HETATM   24  C   UNL     1      44.613 -20.440   3.691  1.00  0.00     0.007 A 
HETATM   25  C   UNL     1      44.342 -19.272   4.412  1.00  0.00     0.009 A 
ENDBRANCH  18  19
ENDBRANCH  15  18
ENDBRANCH   1  14
BRANCH   2  26
HETATM   26  N   UNL     1      39.389 -15.779   2.340  1.00  0.00    -0.287 NA
HETATM   27  H   UNL     1      39.382 -15.650   1.324  1.00  0.00     0.125 HD
HETATM   28  H   UNL     1      39.772 -16.701   2.559  1.00  0.00     0.125 HD
ENDBRANCH   2  26
BRANCH   3  29
HETATM   29  C   UNL     1      40.398 -12.994   1.363  1.00  0.00     0.042 A 
HETATM   30  C   UNL     1      41.687 -12.447   1.263  1.00  0.00     0.032 A 
HETATM   31  C   UNL     1      42.101 -11.768   0.112  1.00  0.00     0.032 A 
HETATM   32  C   UNL     1      41.233 -11.601  -0.960  1.00  0.00     0.034 A 
HETATM   33  C   UNL     1      39.979 -12.220  -0.905  1.00  0.00     0.032 A 
HETATM   34  C   UNL     1      39.563 -12.911   0.243  1.00  0.00     0.032 A 
BRANCH  32  35
HETATM   35  N   UNL     1      41.513 -10.772  -2.066  1.00  0.00    -0.328 N 
HETATM   36  C   UNL     1      42.195 -11.124  -3.218  1.00  0.00     0.218 C 
HETATM   37  C   UNL     1      42.542  -9.925  -4.063  1.00  0.00     0.117 C 
HETATM   38  O   UNL     1      42.512 -12.253  -3.577  1.00  0.00    -0.274 OA
HETATM   39  H   UNL     1      41.267  -9.796  -1.960  1.00  0.00     0.169 HD
ENDBRANCH  32  35
ENDBRANCH   3  29
TORSDOF 6
ENDMDL
MODEL 9
REMARK VINA RESULT:      -9.1      2.581      3.113
REMARK  6 active torsions:
REMARK  status: ('A' for Active; 'I' for Inactive)
REMARK    1  A    between atoms: C_5  and  C_6 
REMARK    2  A    between atoms: C_6  and  N_7 
REMARK       I    between atoms: N_7  and  C_8 
REMARK    3  A    between atoms: C_8  and  C_9 
REMARK    4  A    between atoms: C_10  and  N_11 
REMARK    5  A    between atoms: N_12  and  C_13 
REMARK    6  A    between atoms: C_16  and  N_17 
REMARK       I    between atoms: N_17  and  C_18 
ROOT
HETATM    1  C   UNL     1      40.807 -16.060   1.387  1.00  0.00     0.103 C 
HETATM    2  C   UNL     1      40.019 -15.455   2.364  1.00  0.00     0.105 C 
HETATM    3  N   UNL     1      40.831 -15.395   3.502  1.00  0.00    -0.284 N 
HETATM    4  C   UNL     1      41.589 -16.560   3.463  1.00  0.00     0.166 A 
HETATM    5  C   UNL     1      41.680 -16.910   2.113  1.00  0.00     0.123 A 
HETATM    6  N   UNL     1      42.518 -17.897   1.704  1.00  0.00    -0.242 NA
HETATM    7  C   UNL     1      43.153 -18.547   2.690  1.00  0.00     0.086 A 
HETATM    8  C   UNL     1      43.002 -18.204   4.060  1.00  0.00     0.088 A 
HETATM    9  N   UNL     1      42.238 -17.179   4.474  1.00  0.00    -0.226 NA
HETATM   10  C   UNL     1      43.985 -19.606   2.353  1.00  0.00     0.034 A 
HETATM   11  C   UNL     1      44.658 -20.348   3.326  1.00  0.00     0.002 A 
HETATM   12  C   UNL     1      44.496 -20.023   4.666  1.00  0.00     0.002 A 
HETATM   13  C   UNL     1      43.674 -18.952   5.018  1.00  0.00     0.034 A 
ENDROOT
BRANCH   1  14
HETATM   14  C   UNL     1      40.725 -15.829  -0.050  1.00  0.00     0.257 C 
HETATM   15  N   UNL     1      39.773 -14.883  -0.381  1.00  0.00    -0.352 N 
HETATM   16  H   UNL     1      39.267 -14.484   0.400  1.00  0.00     0.163 HD
HETATM   17  O   UNL     1      41.499 -16.306  -0.870  1.00  0.00    -0.267 OA
BRANCH  15  18
HETATM   18  C   UNL     1      39.918 -14.039  -1.542  1.00  0.00     0.161 C 
BRANCH  18  19
HETATM   19  C   UNL     1      40.890 -12.914  -1.263  1.00  0.00    -0.041 A 
HETATM   20  C   UNL     1      40.729 -12.080  -0.144  1.00  0.00     0.009 A 
HETATM   21  C   UNL     1      41.595 -11.006   0.081  1.00  0.00     0.007 A 
HETATM   22  C   UNL     1      42.654 -10.758  -0.798  1.00  0.00    -0.062 A 
HETATM   23  C   UNL     1      43.585  -9.609  -0.547  1.00  0.00     0.048 C 
HETATM   24  C   UNL     1      42.853 -11.621  -1.881  1.00  0.00     0.007 A 
HETATM   25  C   UNL     1      41.976 -12.685  -2.116  1.00  0.00     0.009 A 
ENDBRANCH  18  19
ENDBRANCH  15  18
ENDBRANCH   1  14
BRANCH   2  26
HETATM   26  N   UNL     1      38.790 -14.870   2.272  1.00  0.00    -0.287 NA
HETATM   27  H   UNL     1      38.270 -14.997   1.398  1.00  0.00     0.125 HD
HETATM   28  H   UNL     1      38.150 -14.982   3.062  1.00  0.00     0.125 HD
ENDBRANCH   2  26
BRANCH   3  29
HETATM   29  C   UNL     1      41.045 -14.240   4.332  1.00  0.00     0.042 A 
HETATM   30  C   UNL     1      40.277 -14.056   5.493  1.00  0.00     0.032 A 
HETATM   31  C   UNL     1      40.244 -12.824   6.154  1.00  0.00     0.032 A 
HETATM   32  C   UNL     1      40.962 -11.739   5.664  1.00  0.00     0.034 A 
HETATM   33  C   UNL     1      41.799 -11.939   4.561  1.00  0.00     0.032 A 
HETATM   34  C   UNL     1      41.843 -13.175   3.900  1.00  0.00     0.032 A 
BRANCH  32  35
HETATM   35  N   UNL     1      40.829 -10.428   6.164  1.00  0.00    -0.328 N 
HETATM   36  C   UNL     1      41.489  -9.880   7.251  1.00  0.00     0.218 C 
HETATM   37  C   UNL     1      40.907  -8.552   7.661  1.00  0.00     0.117 C 
HETATM   38  O   UNL     1      42.441 -10.359   7.858  1.00  0.00    -0.274 OA
HETATM   39  H   UNL     1      40.107  -9.862   5.735  1.00  0.00     0.169 HD
ENDBRANCH  32  35
ENDBRANCH   3  29
TORSDOF 6
ENDMDL
MODEL 10
REMARK VINA RESULT:      -8.9      3.143      8.711
REMARK  6 active torsions:
REMARK  status: ('A' for Active; 'I' for Inactive)
REMARK    1  A    between atoms: C_5  and  C_6 
REMARK    2  A    between atoms: C_6  and  N_7 
REMARK       I    between atoms: N_7  and  C_8 
REMARK    3  A    between atoms: C_8  and  C_9 
REMARK    4  A    between atoms: C_10  and  N_11 
REMARK    5  A    between atoms: N_12  and  C_13 
REMARK    6  A    between atoms: C_16  and  N_17 
REMARK       I    between atoms: N_17  and  C_18 
ROOT
HETATM    1  C   UNL     1      40.706 -13.392   5.106  1.00  0.00     0.103 C 
HETATM    2  C   UNL     1      40.536 -14.775   5.083  1.00  0.00     0.105 C 
HETATM    3  N   UNL     1      41.391 -15.233   4.074  1.00  0.00    -0.284 N 
HETATM    4  C   UNL     1      41.355 -14.243   3.099  1.00  0.00     0.166 A 
HETATM    5  C   UNL     1      41.047 -13.056   3.769  1.00  0.00     0.123 A 
HETATM    6  N   UNL     1      41.124 -11.858   3.138  1.00  0.00    -0.242 NA
HETATM    7  C   UNL     1      41.417 -11.923   1.831  1.00  0.00     0.086 A 
HETATM    8  C   UNL     1      41.675 -13.149   1.161  1.00  0.00     0.088 A 
HETATM    9  N   UNL     1      41.680 -14.336   1.789  1.00  0.00    -0.226 NA
HETATM   10  C   UNL     1      41.460 -10.741   1.104  1.00  0.00     0.034 A 
HETATM   11  C   UNL     1      41.730 -10.732  -0.266  1.00  0.00     0.002 A 
HETATM   12  C   UNL     1      41.965 -11.932  -0.923  1.00  0.00     0.002 A 
HETATM   13  C   UNL     1      41.940 -13.126  -0.203  1.00  0.00     0.034 A 
ENDROOT
BRANCH   1  14
HETATM   14  C   UNL     1      40.570 -12.527   6.270  1.00  0.00     0.257 C 
HETATM   15  N   UNL     1      41.658 -11.692   6.440  1.00  0.00    -0.352 N 
HETATM   16  H   UNL     1      42.392 -11.789   5.749  1.00  0.00     0.163 HD
HETATM   17  O   UNL     1      39.554 -12.439   6.949  1.00  0.00    -0.267 OA
BRANCH  15  18
HETATM   18  C   UNL     1      41.525 -10.389   7.046  1.00  0.00     0.161 C 
BRANCH  18  19
HETATM   19  C   UNL     1      42.016 -10.415   8.476  1.00  0.00    -0.041 A 
HETATM   20  C   UNL     1      41.239  -9.880   9.517  1.00  0.00     0.009 A 
HETATM   21  C   UNL     1      41.718  -9.853  10.829  1.00  0.00     0.007 A 
HETATM   22  C   UNL     1      42.976 -10.382  11.131  1.00  0.00    -0.062 A 
HETATM   23  C   UNL     1      43.483 -10.359  12.543  1.00  0.00     0.048 C 
HETATM   24  C   UNL     1      43.729 -10.969  10.108  1.00  0.00     0.007 A 
HETATM   25  C   UNL     1      43.256 -10.980   8.792  1.00  0.00     0.009 A 
ENDBRANCH  18  19
ENDBRANCH  15  18
ENDBRANCH   1  14
BRANCH   2  26
HETATM   26  N   UNL     1      39.844 -15.594   5.927  1.00  0.00    -0.287 NA
HETATM   27  H   UNL     1      38.861 -15.779   5.707  1.00  0.00     0.125 HD
HETATM   28  H   UNL     1      40.293 -16.467   6.216  1.00  0.00     0.125 HD
ENDBRANCH   2  26
BRANCH   3  29
HETATM   29  C   UNL     1      42.326 -16.320   4.183  1.00  0.00     0.042 A 
HETATM   30  C   UNL     1      42.185 -17.454   3.368  1.00  0.00     0.032 A 
HETATM   31  C   UNL     1      42.878 -18.637   3.642  1.00  0.00     0.032 A 
HETATM   32  C   UNL     1      43.716 -18.725   4.747  1.00  0.00     0.034 A 
HETATM   33  C   UNL     1      43.931 -17.574   5.512  1.00  0.00     0.032 A 
HETATM   34  C   UNL     1      43.246 -16.382   5.235  1.00  0.00     0.032 A 
BRANCH  32  35
HETATM   35  N   UNL     1      44.294 -19.932   5.191  1.00  0.00    -0.328 N 
HETATM   36  C   UNL     1      44.836 -20.934   4.404  1.00  0.00     0.218 C 
HETATM   37  C   UNL     1      45.115 -22.189   5.191  1.00  0.00     0.117 C 
HETATM   38  O   UNL     1      45.088 -20.881   3.204  1.00  0.00    -0.274 OA
HETATM   39  H   UNL     1      44.220 -20.120   6.183  1.00  0.00     0.169 HD
ENDBRANCH  32  35
ENDBRANCH   3  29
TORSDOF 6
ENDMDL
