MODEL 1
REMARK VINA RESULT:      -9.0      0.000      0.000
REMARK  8 active torsions:
REMARK  status: ('A' for Active; 'I' for Inactive)
REMARK    1  A    between atoms: C_5  and  C_6 
REMARK    2  A    between atoms: C_6  and  N_7 
REMARK       I    between atoms: N_7  and  C_8 
REMARK    3  A    between atoms: N_7  and  C_20 
REMARK    4  A    between atoms: C_8  and  C_9 
REMARK    5  A    between atoms: C_9  and  N_10 
REMARK    6  A    between atoms: C_20  and  C_21 
REMARK       I    between atoms: C_21  and  N_22 
REMARK    7  A    between atoms: N_22  and  C_23 
REMARK    8  A    between atoms: C_26  and  O_27 
ROOT
HETATM    1  N   UNL     1      42.477 -14.887   2.392  1.00  0.00    -0.338 N 
HETATM    2  C   UNL     1      42.482 -13.491   2.490  1.00  0.00     0.239 C 
HETATM    3  O   UNL     1      43.339 -12.904   3.163  1.00  0.00    -0.271 OA
ENDROOT
BRANCH   1   4
HETATM    4  C   UNL     1      43.648 -15.558   2.968  1.00  0.00     0.165 C 
BRANCH   4   5
HETATM    5  C   UNL     1      43.701 -17.043   2.683  1.00  0.00    -0.040 A 
HETATM    6  C   UNL     1      43.737 -17.966   3.737  1.00  0.00     0.009 A 
HETATM    7  C   UNL     1      43.740 -19.338   3.478  1.00  0.00     0.007 A 
HETATM    8  C   UNL     1      43.712 -19.813   2.162  1.00  0.00    -0.062 A 
HETATM    9  C   UNL     1      43.697 -21.290   1.899  1.00  0.00     0.048 C 
HETATM   10  C   UNL     1      43.707 -18.895   1.108  1.00  0.00     0.007 A 
HETATM   11  C   UNL     1      43.708 -17.522   1.366  1.00  0.00     0.009 A 
ENDBRANCH   4   5
ENDBRANCH   1   4
BRANCH   1  12
HETATM   12  C   UNL     1      41.208 -15.642   2.439  1.00  0.00     0.229 C 
BRANCH  12  13
HETATM   13  C   UNL     1      40.123 -15.055   3.338  1.00  0.00     0.240 C 
HETATM   14  N   UNL     1      40.266 -15.045   4.697  1.00  0.00    -0.326 N 
HETATM   15  H   UNL     1      39.543 -14.478   5.126  1.00  0.00     0.169 HD
HETATM   16  O   UNL     1      39.114 -14.519   2.864  1.00  0.00    -0.271 OA
BRANCH  14  17
HETATM   17  C   UNL     1      41.216 -15.595   5.580  1.00  0.00     0.034 A 
HETATM   18  C   UNL     1      40.964 -16.899   6.028  1.00  0.00     0.032 A 
HETATM   19  C   UNL     1      41.840 -17.538   6.913  1.00  0.00     0.039 A 
HETATM   20  C   UNL     1      42.989 -16.893   7.363  1.00  0.00     0.068 A 
HETATM   21  C   UNL     1      43.269 -15.615   6.890  1.00  0.00     0.039 A 
HETATM   22  C   UNL     1      42.388 -14.974   6.005  1.00  0.00     0.032 A 
BRANCH  20  23
HETATM   23  O   UNL     1      43.760 -17.611   8.233  1.00  0.00    -0.356 OA
HETATM   24  C   UNL     1      44.047 -18.955   7.863  1.00  0.00     0.210 C 
ENDBRANCH  20  23
ENDBRANCH  14  17
ENDBRANCH  12  13
ENDBRANCH   1  12
BRANCH   2  25
HETATM   25  C   UNL     1      41.579 -12.681   1.584  1.00  0.00     0.250 C 
BRANCH  25  26
HETATM   26  N   UNL     1      41.990 -12.532   0.208  1.00  0.00    -0.263 N 
HETATM   27  N   UNL     1      42.837 -11.559  -0.180  1.00  0.00     0.006 NA
HETATM   28  N   UNL     1      43.025 -11.689  -1.487  1.00  0.00    -0.158 NA
HETATM   29  C   UNL     1      42.336 -12.795  -1.911  1.00  0.00     0.102 A 
HETATM   30  C   UNL     1      41.668 -13.365  -0.835  1.00  0.00     0.079 A 
HETATM   31  C   UNL     1      42.235 -13.385  -3.179  1.00  0.00     0.035 A 
HETATM   32  C   UNL     1      40.890 -14.523  -0.947  1.00  0.00     0.033 A 
HETATM   33  C   UNL     1      40.808 -15.107  -2.216  1.00  0.00     0.002 A 
HETATM   34  C   UNL     1      41.466 -14.549  -3.315  1.00  0.00     0.002 A 
ENDBRANCH  25  26
ENDBRANCH   2  25
TORSDOF 8
ENDMDL
MODEL 2
REMARK VINA RESULT:      -8.8      1.779      2.272
REMARK  8 active torsions:
REMARK  status: ('A' for Active; 'I' for Inactive)
REMARK    1  A    between atoms: C_5  and  C_6 
REMARK    2  A    between atoms: C_6  and  N_7 
REMARK       I    between atoms: N_7  and  C_8 
REMARK    3  A    between atoms: N_7  and  C_20 
REMARK    4  A    between atoms: C_8  and  C_9 
REMARK    5  A    between atoms: C_9  and  N_10 
REMARK    6  A    between atoms: C_20  and  C_21 
REMARK       I    between atoms: C_21  and  N_22 
REMARK    7  A    between atoms: N_22  and  C_23 
REMARK    8  A    between atoms: C_26  and  O_27 
ROOT
HETATM    1  N   UNL     1      41.576 -14.735   1.917  1.00  0.00    -0.338 N 
HETATM    2  C   UNL     1      41.528 -13.652   1.031  1.00  0.00     0.239 C 
HETATM    3  O   UNL     1      42.511 -12.916   0.875  1.00  0.00    -0.271 OA
ENDROOT
BRANCH   1   4
HETATM    4  C   UNL     1      42.901 -15.031   2.472  1.00  0.00     0.165 C 
BRANCH   4   5
HETATM    5  C   UNL     1      43.269 -16.498   2.423  1.00  0.00    -0.040 A 
HETATM    6  C   UNL     1      43.454 -17.222   3.608  1.00  0.00     0.009 A 
HETATM    7  C   UNL     1      43.748 -18.586   3.567  1.00  0.00     0.007 A 
HETATM    8  C   UNL     1      43.869 -19.250   2.341  1.00  0.00    -0.062 A 
HETATM    9  C   UNL     1      44.168 -20.720   2.311  1.00  0.00     0.048 C 
HETATM   10  C   UNL     1      43.716 -18.524   1.156  1.00  0.00     0.007 A 
HETATM   11  C   UNL     1      43.425 -17.158   1.197  1.00  0.00     0.009 A 
ENDBRANCH   4   5
ENDBRANCH   1   4
BRANCH   1  12
HETATM   12  C   UNL     1      40.423 -15.048   2.787  1.00  0.00     0.229 C 
BRANCH  12  13
HETATM   13  C   UNL     1      40.082 -13.995   3.837  1.00  0.00     0.240 C 
HETATM   14  N   UNL     1      40.587 -14.078   5.105  1.00  0.00    -0.326 N 
HETATM   15  H   UNL     1      40.399 -13.222   5.618  1.00  0.00     0.169 HD
HETATM   16  O   UNL     1      39.390 -13.008   3.559  1.00  0.00    -0.271 OA
BRANCH  14  17
HETATM   17  C   UNL     1      41.338 -15.051   5.792  1.00  0.00     0.034 A 
HETATM   18  C   UNL     1      42.659 -14.706   6.107  1.00  0.00     0.032 A 
HETATM   19  C   UNL     1      43.496 -15.602   6.783  1.00  0.00     0.039 A 
HETATM   20  C   UNL     1      43.029 -16.858   7.163  1.00  0.00     0.068 A 
HETATM   21  C   UNL     1      41.707 -17.193   6.892  1.00  0.00     0.039 A 
HETATM   22  C   UNL     1      40.870 -16.295   6.212  1.00  0.00     0.032 A 
BRANCH  20  23
HETATM   23  O   UNL     1      43.940 -17.651   7.804  1.00  0.00    -0.356 OA
HETATM   24  C   UNL     1      43.887 -19.042   7.507  1.00  0.00     0.210 C 
ENDBRANCH  20  23
ENDBRANCH  14  17
ENDBRANCH  12  13
ENDBRANCH   1  12
BRANCH   2  25
HETATM   25  C   UNL     1      40.353 -13.517   0.087  1.00  0.00     0.250 C 
BRANCH  25  26
HETATM   26  N   UNL     1      40.371 -14.329  -1.107  1.00  0.00    -0.263 N 
HETATM   27  N   UNL     1      41.406 -15.140  -1.399  1.00  0.00     0.006 NA
HETATM   28  N   UNL     1      41.125 -15.752  -2.543  1.00  0.00    -0.158 NA
HETATM   29  C   UNL     1      39.872 -15.364  -2.939  1.00  0.00     0.102 A 
HETATM   30  C   UNL     1      39.358 -14.454  -2.025  1.00  0.00     0.079 A 
HETATM   31  C   UNL     1      39.101 -15.742  -4.047  1.00  0.00     0.035 A 
HETATM   32  C   UNL     1      38.083 -13.889  -2.147  1.00  0.00     0.033 A 
HETATM   33  C   UNL     1      37.321 -14.284  -3.251  1.00  0.00     0.002 A 
HETATM   34  C   UNL     1      37.818 -15.193  -4.187  1.00  0.00     0.002 A 
ENDBRANCH  25  26
ENDBRANCH   2  25
TORSDOF 8
ENDMDL
MODEL 3
REMARK VINA RESULT:      -8.8      2.081      6.108
REMARK  8 active torsions:
REMARK  status: ('A' for Active; 'I' for Inactive)
REMARK    1  A    between atoms: C_5  and  C_6 
REMARK    2  A    between atoms: C_6  and  N_7 
REMARK       I    between atoms: N_7  and  C_8 
REMARK    3  A    between atoms: N_7  and  C_20 
REMARK    4  A    between atoms: C_8  and  C_9 
REMARK    5  A    between atoms: C_9  and  N_10 
REMARK    6  A    between atoms: C_20  and  C_21 
REMARK       I    between atoms: C_21  and  N_22 
REMARK    7  A    between atoms: N_22  and  C_23 
REMARK    8  A    between atoms: C_26  and  O_27 
ROOT
HETATM    1  N   UNL     1      41.766 -15.307   2.274  1.00  0.00    -0.338 N 
HETATM    2  C   UNL     1      42.022 -16.643   2.602  1.00  0.00     0.239 C 
HETATM    3  O   UNL     1      41.118 -17.379   3.018  1.00  0.00    -0.271 OA
ENDROOT
BRANCH   1   4
HETATM    4  C   UNL     1      40.351 -14.923   2.274  1.00  0.00     0.165 C 
BRANCH   4   5
HETATM    5  C   UNL     1      39.807 -14.599   0.900  1.00  0.00    -0.040 A 
HETATM    6  C   UNL     1      38.497 -14.126   0.749  1.00  0.00     0.009 A 
HETATM    7  C   UNL     1      38.007 -13.783  -0.513  1.00  0.00     0.007 A 
HETATM    8  C   UNL     1      38.816 -13.912  -1.648  1.00  0.00    -0.062 A 
HETATM    9  C   UNL     1      38.283 -13.523  -2.995  1.00  0.00     0.048 C 
HETATM   10  C   UNL     1      40.113 -14.413  -1.505  1.00  0.00     0.007 A 
HETATM   11  C   UNL     1      40.602 -14.760  -0.243  1.00  0.00     0.009 A 
ENDBRANCH   4   5
ENDBRANCH   1   4
BRANCH   1  12
HETATM   12  C   UNL     1      42.727 -14.245   2.637  1.00  0.00     0.229 C 
BRANCH  12  13
HETATM   13  C   UNL     1      42.208 -13.187   3.607  1.00  0.00     0.240 C 
HETATM   14  N   UNL     1      42.223 -13.404   4.958  1.00  0.00    -0.326 N 
HETATM   15  H   UNL     1      42.003 -12.549   5.456  1.00  0.00     0.169 HD
HETATM   16  O   UNL     1      41.814 -12.084   3.208  1.00  0.00    -0.271 OA
BRANCH  14  17
HETATM   17  C   UNL     1      42.532 -14.519   5.760  1.00  0.00     0.034 A 
HETATM   18  C   UNL     1      41.516 -15.471   5.916  1.00  0.00     0.032 A 
HETATM   19  C   UNL     1      41.714 -16.615   6.698  1.00  0.00     0.039 A 
HETATM   20  C   UNL     1      42.932 -16.835   7.336  1.00  0.00     0.068 A 
HETATM   21  C   UNL     1      43.960 -15.917   7.154  1.00  0.00     0.039 A 
HETATM   22  C   UNL     1      43.760 -14.768   6.371  1.00  0.00     0.032 A 
BRANCH  20  23
HETATM   23  O   UNL     1      43.003 -17.978   8.083  1.00  0.00    -0.356 OA
HETATM   24  C   UNL     1      44.310 -18.451   8.390  1.00  0.00     0.210 C 
ENDBRANCH  20  23
ENDBRANCH  14  17
ENDBRANCH  12  13
ENDBRANCH   1  12
BRANCH   2  25
HETATM   25  C   UNL     1      43.354 -17.257   2.229  1.00  0.00     0.250 C 
BRANCH  25  26
HETATM   26  N   UNL     1      43.880 -18.274   3.109  1.00  0.00    -0.263 N 
HETATM   27  N   UNL     1      44.260 -17.994   4.371  1.00  0.00     0.006 NA
HETATM   28  N   UNL     1      44.686 -19.124   4.921  1.00  0.00    -0.158 NA
HETATM   29  C   UNL     1      44.512 -20.135   4.012  1.00  0.00     0.102 A 
HETATM   30  C   UNL     1      43.983 -19.616   2.838  1.00  0.00     0.079 A 
HETATM   31  C   UNL     1      44.766 -21.511   4.107  1.00  0.00     0.035 A 
HETATM   32  C   UNL     1      43.676 -20.407   1.725  1.00  0.00     0.033 A 
HETATM   33  C   UNL     1      43.923 -21.779   1.839  1.00  0.00     0.002 A 
HETATM   34  C   UNL     1      44.460 -22.325   3.007  1.00  0.00     0.002 A 
ENDBRANCH  25  26
ENDBRANCH   2  25
TORSDOF 8
ENDMDL
MODEL 4
REMARK VINA RESULT:      -8.7      2.191      3.730
REMARK  8 active torsions:
REMARK  status: ('A' for Active; 'I' for Inactive)
REMARK    1  A    between atoms: C_5  and  C_6 
REMARK    2  A    between atoms: C_6  and  N_7 
REMARK       I    between atoms: N_7  and  C_8 
REMARK    3  A    between atoms: N_7  and  C_20 
REMARK    4  A    between atoms: C_8  and  C_9 
REMARK    5  A    between atoms: C_9  and  N_10 
REMARK    6  A    between atoms: C_20  and  C_21 
REMARK       I    between atoms: C_21  and  N_22 
REMARK    7  A    between atoms: N_22  and  C_23 
REMARK    8  A    between atoms: C_26  and  O_27 
ROOT
HETATM    1  N   UNL     1      42.144 -15.433   3.442  1.00  0.00    -0.338 N 
HETATM    2  C   UNL     1      42.337 -14.132   2.962  1.00  0.00     0.239 C 
HETATM    3  O   UNL     1      43.417 -13.550   3.120  1.00  0.00    -0.271 OA
ENDROOT
BRANCH   1   4
HETATM    4  C   UNL     1      43.350 -16.096   3.951  1.00  0.00     0.165 C 
BRANCH   4   5
HETATM    5  C   UNL     1      43.520 -17.515   3.454  1.00  0.00    -0.040 A 
HETATM    6  C   UNL     1      43.197 -17.847   2.132  1.00  0.00     0.009 A 
HETATM    7  C   UNL     1      43.396 -19.145   1.657  1.00  0.00     0.007 A 
HETATM    8  C   UNL     1      43.915 -20.137   2.497  1.00  0.00    -0.062 A 
HETATM    9  C   UNL     1      44.141 -21.523   1.969  1.00  0.00     0.048 C 
HETATM   10  C   UNL     1      44.209 -19.817   3.826  1.00  0.00     0.007 A 
HETATM   11  C   UNL     1      44.007 -18.519   4.302  1.00  0.00     0.009 A 
ENDBRANCH   4   5
ENDBRANCH   1   4
BRANCH   1  12
HETATM   12  C   UNL     1      40.871 -15.818   4.085  1.00  0.00     0.229 C 
BRANCH  12  13
HETATM   13  C   UNL     1      40.863 -15.780   5.611  1.00  0.00     0.240 C 
HETATM   14  N   UNL     1      40.591 -14.621   6.284  1.00  0.00    -0.326 N 
HETATM   15  H   UNL     1      40.463 -14.807   7.273  1.00  0.00     0.169 HD
HETATM   16  O   UNL     1      41.043 -16.804   6.282  1.00  0.00    -0.271 OA
BRANCH  14  17
HETATM   17  C   UNL     1      40.400 -13.285   5.882  1.00  0.00     0.034 A 
HETATM   18  C   UNL     1      41.524 -12.452   5.944  1.00  0.00     0.032 A 
HETATM   19  C   UNL     1      41.444 -11.104   5.574  1.00  0.00     0.039 A 
HETATM   20  C   UNL     1      40.242 -10.562   5.128  1.00  0.00     0.068 A 
HETATM   21  C   UNL     1      39.131 -11.391   5.023  1.00  0.00     0.039 A 
HETATM   22  C   UNL     1      39.211 -12.742   5.397  1.00  0.00     0.032 A 
BRANCH  20  23
HETATM   23  O   UNL     1      40.282  -9.234   4.809  1.00  0.00    -0.356 OA
HETATM   24  C   UNL     1      41.501  -8.553   5.089  1.00  0.00     0.210 C 
ENDBRANCH  20  23
ENDBRANCH  14  17
ENDBRANCH  12  13
ENDBRANCH   1  12
BRANCH   2  25
HETATM   25  C   UNL     1      41.301 -13.519   2.044  1.00  0.00     0.250 C 
BRANCH  25  26
HETATM   26  N   UNL     1      41.753 -13.079   0.745  1.00  0.00    -0.263 N 
HETATM   27  N   UNL     1      42.509 -11.975   0.591  1.00  0.00     0.006 NA
HETATM   28  N   UNL     1      42.765 -11.842  -0.704  1.00  0.00    -0.158 NA
HETATM   29  C   UNL     1      42.214 -12.910  -1.362  1.00  0.00     0.102 A 
HETATM   30  C   UNL     1      41.563 -13.730  -0.450  1.00  0.00     0.079 A 
HETATM   31  C   UNL     1      42.228 -13.260  -2.719  1.00  0.00     0.035 A 
HETATM   32  C   UNL     1      40.916 -14.916  -0.816  1.00  0.00     0.033 A 
HETATM   33  C   UNL     1      40.949 -15.258  -2.172  1.00  0.00     0.002 A 
HETATM   34  C   UNL     1      41.591 -14.446  -3.110  1.00  0.00     0.002 A 
ENDBRANCH  25  26
ENDBRANCH   2  25
TORSDOF 8
ENDMDL
MODEL 5
REMARK VINA RESULT:      -8.7      2.773      7.477
REMARK  8 active torsions:
REMARK  status: ('A' for Active; 'I' for Inactive)
REMARK    1  A    between atoms: C_5  and  C_6 
REMARK    2  A    between atoms: C_6  and  N_7 
REMARK       I    between atoms: N_7  and  C_8 
REMARK    3  A    between atoms: N_7  and  C_20 
REMARK    4  A    between atoms: C_8  and  C_9 
REMARK    5  A    between atoms: C_9  and  N_10 
REMARK    6  A    between atoms: C_20  and  C_21 
REMARK       I    between atoms: C_21  and  N_22 
REMARK    7  A    between atoms: N_22  and  C_23 
REMARK    8  A    between atoms: C_26  and  O_27 
ROOT
HETATM    1  N   UNL     1      41.334 -15.478   3.238  1.00  0.00    -0.338 N 
HETATM    2  C   UNL     1      41.796 -16.795   3.134  1.00  0.00     0.239 C 
HETATM    3  O   UNL     1      41.004 -17.739   3.028  1.00  0.00    -0.271 OA
ENDROOT
BRANCH   1   4
HETATM    4  C   UNL     1      39.895 -15.301   3.015  1.00  0.00     0.165 C 
BRANCH   4   5
HETATM    5  C   UNL     1      39.547 -14.817   1.624  1.00  0.00    -0.040 A 
HETATM    6  C   UNL     1      38.240 -14.416   1.319  1.00  0.00     0.009 A 
HETATM    7  C   UNL     1      37.927 -13.926   0.050  1.00  0.00     0.007 A 
HETATM    8  C   UNL     1      38.912 -13.834  -0.940  1.00  0.00    -0.062 A 
HETATM    9  C   UNL     1      38.566 -13.289  -2.294  1.00  0.00     0.048 C 
HETATM   10  C   UNL     1      40.211 -14.263  -0.648  1.00  0.00     0.007 A 
HETATM   11  C   UNL     1      40.524 -14.756   0.621  1.00  0.00     0.009 A 
ENDBRANCH   4   5
ENDBRANCH   1   4
BRANCH   1  12
HETATM   12  C   UNL     1      41.968 -14.528   4.175  1.00  0.00     0.229 C 
BRANCH  12  13
HETATM   13  C   UNL     1      42.813 -13.431   3.534  1.00  0.00     0.240 C 
HETATM   14  N   UNL     1      42.244 -12.260   3.116  1.00  0.00    -0.326 N 
HETATM   15  H   UNL     1      42.961 -11.585   2.871  1.00  0.00     0.169 HD
HETATM   16  O   UNL     1      44.040 -13.542   3.428  1.00  0.00    -0.271 OA
BRANCH  14  17
HETATM   17  C   UNL     1      40.916 -11.803   3.020  1.00  0.00     0.034 A 
HETATM   18  C   UNL     1      40.518 -11.312   1.769  1.00  0.00     0.032 A 
HETATM   19  C   UNL     1      39.221 -10.826   1.565  1.00  0.00     0.039 A 
HETATM   20  C   UNL     1      38.292 -10.829   2.602  1.00  0.00     0.068 A 
HETATM   21  C   UNL     1      38.664 -11.354   3.835  1.00  0.00     0.039 A 
HETATM   22  C   UNL     1      39.966 -11.838   4.039  1.00  0.00     0.032 A 
BRANCH  20  23
HETATM   23  O   UNL     1      37.063 -10.319   2.288  1.00  0.00    -0.356 OA
HETATM   24  C   UNL     1      36.738 -10.261   0.904  1.00  0.00     0.210 C 
ENDBRANCH  20  23
ENDBRANCH  14  17
ENDBRANCH  12  13
ENDBRANCH   1  12
BRANCH   2  25
HETATM   25  C   UNL     1      43.272 -17.048   2.918  1.00  0.00     0.250 C 
BRANCH  25  26
HETATM   26  N   UNL     1      43.854 -18.176   3.606  1.00  0.00    -0.263 N 
HETATM   27  N   UNL     1      44.308 -18.081   4.871  1.00  0.00     0.006 NA
HETATM   28  N   UNL     1      44.770 -19.274   5.222  1.00  0.00    -0.158 NA
HETATM   29  C   UNL     1      44.547 -20.142   4.186  1.00  0.00     0.102 A 
HETATM   30  C   UNL     1      43.946 -19.463   3.134  1.00  0.00     0.079 A 
HETATM   31  C   UNL     1      44.811 -21.513   4.062  1.00  0.00     0.035 A 
HETATM   32  C   UNL     1      43.576 -20.086   1.936  1.00  0.00     0.033 A 
HETATM   33  C   UNL     1      43.836 -21.456   1.832  1.00  0.00     0.002 A 
HETATM   34  C   UNL     1      44.444 -22.160   2.874  1.00  0.00     0.002 A 
ENDBRANCH  25  26
ENDBRANCH   2  25
TORSDOF 8
ENDMDL
MODEL 6
REMARK VINA RESULT:      -8.6      2.079      6.029
REMARK  8 active torsions:
REMARK  status: ('A' for Active; 'I' for Inactive)
REMARK    1  A    between atoms: C_5  and  C_6 
REMARK    2  A    between atoms: C_6  and  N_7 
REMARK       I    between atoms: N_7  and  C_8 
REMARK    3  A    between atoms: N_7  and  C_20 
REMARK    4  A    between atoms: C_8  and  C_9 
REMARK    5  A    between atoms: C_9  and  N_10 
REMARK    6  A    between atoms: C_20  and  C_21 
REMARK       I    between atoms: C_21  and  N_22 
REMARK    7  A    between atoms: N_22  and  C_23 
REMARK    8  A    between atoms: C_26  and  O_27 
ROOT
HETATM    1  N   UNL     1      41.746 -14.109   0.407  1.00  0.00    -0.338 N 
HETATM    2  C   UNL     1      42.087 -12.992   1.177  1.00  0.00     0.239 C 
HETATM    3  O   UNL     1      42.601 -11.994   0.656  1.00  0.00    -0.271 OA
ENDROOT
BRANCH   1   4
HETATM    4  C   UNL     1      41.861 -13.927  -1.044  1.00  0.00     0.165 C 
BRANCH   4   5
HETATM    5  C   UNL     1      40.583 -14.222  -1.799  1.00  0.00    -0.040 A 
HETATM    6  C   UNL     1      39.370 -13.654  -1.388  1.00  0.00     0.009 A 
HETATM    7  C   UNL     1      38.197 -13.888  -2.110  1.00  0.00     0.007 A 
HETATM    8  C   UNL     1      38.214 -14.699  -3.250  1.00  0.00    -0.062 A 
HETATM    9  C   UNL     1      36.951 -14.927  -4.026  1.00  0.00     0.048 C 
HETATM   10  C   UNL     1      39.417 -15.293  -3.644  1.00  0.00     0.007 A 
HETATM   11  C   UNL     1      40.590 -15.062  -2.921  1.00  0.00     0.009 A 
ENDBRANCH   4   5
ENDBRANCH   1   4
BRANCH   1  12
HETATM   12  C   UNL     1      41.992 -15.476   0.912  1.00  0.00     0.229 C 
BRANCH  12  13
HETATM   13  C   UNL     1      40.789 -16.177   1.535  1.00  0.00     0.240 C 
HETATM   14  N   UNL     1      40.948 -17.297   2.303  1.00  0.00    -0.326 N 
HETATM   15  H   UNL     1      40.078 -17.534   2.769  1.00  0.00     0.169 HD
HETATM   16  O   UNL     1      39.644 -15.722   1.415  1.00  0.00    -0.271 OA
BRANCH  14  17
HETATM   17  C   UNL     1      42.050 -18.117   2.610  1.00  0.00     0.034 A 
HETATM   18  C   UNL     1      42.447 -18.146   3.953  1.00  0.00     0.032 A 
HETATM   19  C   UNL     1      43.536 -18.923   4.367  1.00  0.00     0.039 A 
HETATM   20  C   UNL     1      44.246 -19.693   3.449  1.00  0.00     0.068 A 
HETATM   21  C   UNL     1      43.833 -19.705   2.121  1.00  0.00     0.039 A 
HETATM   22  C   UNL     1      42.743 -18.923   1.707  1.00  0.00     0.032 A 
BRANCH  20  23
HETATM   23  O   UNL     1      45.296 -20.399   3.966  1.00  0.00    -0.356 OA
HETATM   24  C   UNL     1      44.976 -21.626   4.613  1.00  0.00     0.210 C 
ENDBRANCH  20  23
ENDBRANCH  14  17
ENDBRANCH  12  13
ENDBRANCH   1  12
BRANCH   2  25
HETATM   25  C   UNL     1      41.613 -12.907   2.612  1.00  0.00     0.250 C 
BRANCH  25  26
HETATM   26  N   UNL     1      42.437 -13.539   3.616  1.00  0.00    -0.263 N 
HETATM   27  N   UNL     1      43.751 -13.264   3.733  1.00  0.00     0.006 NA
HETATM   28  N   UNL     1      44.223 -13.989   4.740  1.00  0.00    -0.158 NA
HETATM   29  C   UNL     1      43.179 -14.678   5.298  1.00  0.00     0.102 A 
HETATM   30  C   UNL     1      42.012 -14.398   4.599  1.00  0.00     0.079 A 
HETATM   31  C   UNL     1      43.135 -15.547   6.397  1.00  0.00     0.035 A 
HETATM   32  C   UNL     1      40.768 -14.940   4.943  1.00  0.00     0.033 A 
HETATM   33  C   UNL     1      40.738 -15.796   6.049  1.00  0.00     0.002 A 
HETATM   34  C   UNL     1      41.899 -16.098   6.765  1.00  0.00     0.002 A 
ENDBRANCH  25  26
ENDBRANCH   2  25
TORSDOF 8
ENDMDL
MODEL 7
REMARK VINA RESULT:      -8.5      2.046      6.859
REMARK  8 active torsions:
REMARK  status: ('A' for Active; 'I' for Inactive)
REMARK    1  A    between atoms: C_5  and  C_6 
REMARK    2  A    between atoms: C_6  and  N_7 
REMARK       I    between atoms: N_7  and  C_8 
REMARK    3  A    between atoms: N_7  and  C_20 
REMARK    4  A    between atoms: C_8  and  C_9 
REMARK    5  A    between atoms: C_9  and  N_10 
REMARK    6  A    between atoms: C_20  and  C_21 
REMARK       I    between atoms: C_21  and  N_22 
REMARK    7  A    between atoms: N_22  and  C_23 
REMARK    8  A    between atoms: C_26  and  O_27 
ROOT
HETATM    1  N   UNL     1      41.631 -14.481   2.022  1.00  0.00    -0.338 N 
HETATM    2  C   UNL     1      40.499 -14.562   2.842  1.00  0.00     0.239 C 
HETATM    3  O   UNL     1      39.557 -15.311   2.552  1.00  0.00    -0.271 OA
ENDROOT
BRANCH   1   4
HETATM    4  C   UNL     1      41.691 -15.470   0.940  1.00  0.00     0.165 C 
BRANCH   4   5
HETATM    5  C   UNL     1      42.348 -16.773   1.341  1.00  0.00    -0.040 A 
HETATM    6  C   UNL     1      41.582 -17.936   1.489  1.00  0.00     0.009 A 
HETATM    7  C   UNL     1      42.192 -19.150   1.814  1.00  0.00     0.007 A 
HETATM    8  C   UNL     1      43.577 -19.221   2.003  1.00  0.00    -0.062 A 
HETATM    9  C   UNL     1      44.221 -20.535   2.334  1.00  0.00     0.048 C 
HETATM   10  C   UNL     1      44.340 -18.056   1.887  1.00  0.00     0.007 A 
HETATM   11  C   UNL     1      43.730 -16.841   1.565  1.00  0.00     0.009 A 
ENDBRANCH   4   5
ENDBRANCH   1   4
BRANCH   1  12
HETATM   12  C   UNL     1      42.271 -13.178   1.748  1.00  0.00     0.229 C 
BRANCH  12  13
HETATM   13  C   UNL     1      41.319 -12.031   1.419  1.00  0.00     0.240 C 
HETATM   14  N   UNL     1      40.613 -12.016   0.248  1.00  0.00    -0.326 N 
HETATM   15  H   UNL     1      39.915 -11.281   0.264  1.00  0.00     0.169 HD
HETATM   16  O   UNL     1      41.114 -11.114   2.224  1.00  0.00    -0.271 OA
BRANCH  14  17
HETATM   17  C   UNL     1      40.623 -12.826  -0.903  1.00  0.00     0.034 A 
HETATM   18  C   UNL     1      39.442 -13.529  -1.177  1.00  0.00     0.032 A 
HETATM   19  C   UNL     1      39.345 -14.369  -2.293  1.00  0.00     0.039 A 
HETATM   20  C   UNL     1      40.422 -14.519  -3.162  1.00  0.00     0.068 A 
HETATM   21  C   UNL     1      41.583 -13.793  -2.923  1.00  0.00     0.039 A 
HETATM   22  C   UNL     1      41.681 -12.953  -1.802  1.00  0.00     0.032 A 
BRANCH  20  23
HETATM   23  O   UNL     1      40.215 -15.374  -4.208  1.00  0.00    -0.356 OA
HETATM   24  C   UNL     1      39.032 -16.165  -4.153  1.00  0.00     0.210 C 
ENDBRANCH  20  23
ENDBRANCH  14  17
ENDBRANCH  12  13
ENDBRANCH   1  12
BRANCH   2  25
HETATM   25  C   UNL     1      40.523 -13.909   4.207  1.00  0.00     0.250 C 
BRANCH  25  26
HETATM   26  N   UNL     1      41.707 -14.105   5.009  1.00  0.00    -0.263 N 
HETATM   27  N   UNL     1      42.320 -13.082   5.634  1.00  0.00     0.006 NA
HETATM   28  N   UNL     1      43.361 -13.578   6.290  1.00  0.00    -0.158 NA
HETATM   29  C   UNL     1      43.363 -14.938   6.123  1.00  0.00     0.102 A 
HETATM   30  C   UNL     1      42.300 -15.307   5.310  1.00  0.00     0.079 A 
HETATM   31  C   UNL     1      44.219 -15.926   6.632  1.00  0.00     0.035 A 
HETATM   32  C   UNL     1      42.025 -16.637   4.970  1.00  0.00     0.033 A 
HETATM   33  C   UNL     1      42.880 -17.611   5.494  1.00  0.00     0.002 A 
HETATM   34  C   UNL     1      43.960 -17.265   6.310  1.00  0.00     0.002 A 
ENDBRANCH  25  26
ENDBRANCH   2  25
TORSDOF 8
ENDMDL
MODEL 8
REMARK VINA RESULT:      -8.4      2.391      4.025
REMARK  8 active torsions:
REMARK  status: ('A' for Active; 'I' for Inactive)
REMARK    1  A    between atoms: C_5  and  C_6 
REMARK    2  A    between atoms: C_6  and  N_7 
REMARK       I    between atoms: N_7  and  C_8 
REMARK    3  A    between atoms: N_7  and  C_20 
REMARK    4  A    between atoms: C_8  and  C_9 
REMARK    5  A    between atoms: C_9  and  N_10 
REMARK    6  A    between atoms: C_20  and  C_21 
REMARK       I    between atoms: C_21  and  N_22 
REMARK    7  A    between atoms: N_22  and  C_23 
REMARK    8  A    between atoms: C_26  and  O_27 
ROOT
HETATM    1  N   UNL     1      42.086 -15.266   3.346  1.00  0.00    -0.338 N 
HETATM    2  C   UNL     1      42.231 -13.997   2.775  1.00  0.00     0.239 C 
HETATM    3  O   UNL     1      43.305 -13.386   2.850  1.00  0.00    -0.271 OA
ENDROOT
BRANCH   1   4
HETATM    4  C   UNL     1      43.324 -15.873   3.846  1.00  0.00     0.165 C 
BRANCH   4   5
HETATM    5  C   UNL     1      43.551 -17.287   3.358  1.00  0.00    -0.040 A 
HETATM    6  C   UNL     1      43.899 -18.301   4.259  1.00  0.00     0.009 A 
HETATM    7  C   UNL     1      44.064 -19.616   3.819  1.00  0.00     0.007 A 
HETATM    8  C   UNL     1      43.892 -19.940   2.469  1.00  0.00    -0.062 A 
HETATM    9  C   UNL     1      44.055 -21.360   2.012  1.00  0.00     0.048 C 
HETATM   10  C   UNL     1      43.575 -18.925   1.561  1.00  0.00     0.007 A 
HETATM   11  C   UNL     1      43.413 -17.609   2.000  1.00  0.00     0.009 A 
ENDBRANCH   4   5
ENDBRANCH   1   4
BRANCH   1  12
HETATM   12  C   UNL     1      40.848 -15.633   4.064  1.00  0.00     0.229 C 
BRANCH  12  13
HETATM   13  C   UNL     1      40.912 -15.531   5.585  1.00  0.00     0.240 C 
HETATM   14  N   UNL     1      40.714 -14.335   6.219  1.00  0.00    -0.326 N 
HETATM   15  H   UNL     1      40.626 -14.475   7.220  1.00  0.00     0.169 HD
HETATM   16  O   UNL     1      41.084 -16.532   6.292  1.00  0.00    -0.271 OA
BRANCH  14  17
HETATM   17  C   UNL     1      40.554 -13.011   5.769  1.00  0.00     0.034 A 
HETATM   18  C   UNL     1      39.265 -12.647   5.358  1.00  0.00     0.032 A 
HETATM   19  C   UNL     1      38.996 -11.356   4.886  1.00  0.00     0.039 A 
HETATM   20  C   UNL     1      40.007 -10.401   4.822  1.00  0.00     0.068 A 
HETATM   21  C   UNL     1      41.280 -10.740   5.267  1.00  0.00     0.039 A 
HETATM   22  C   UNL     1      41.549 -12.035   5.737  1.00  0.00     0.032 A 
BRANCH  20  23
HETATM   23  O   UNL     1      39.630  -9.182   4.332  1.00  0.00    -0.356 OA
HETATM   24  C   UNL     1      38.253  -9.032   4.002  1.00  0.00     0.210 C 
ENDBRANCH  20  23
ENDBRANCH  14  17
ENDBRANCH  12  13
ENDBRANCH   1  12
BRANCH   2  25
HETATM   25  C   UNL     1      41.148 -13.465   1.863  1.00  0.00     0.250 C 
BRANCH  25  26
HETATM   26  N   UNL     1      41.202 -13.863   0.475  1.00  0.00    -0.263 N 
HETATM   27  N   UNL     1      40.614 -14.991   0.036  1.00  0.00     0.006 NA
HETATM   28  N   UNL     1      40.831 -15.074  -1.271  1.00  0.00    -0.158 NA
HETATM   29  C   UNL     1      41.511 -13.951  -1.664  1.00  0.00     0.102 A 
HETATM   30  C   UNL     1      41.754 -13.146  -0.559  1.00  0.00     0.079 A 
HETATM   31  C   UNL     1      41.947 -13.537  -2.930  1.00  0.00     0.035 A 
HETATM   32  C   UNL     1      42.417 -11.916  -0.642  1.00  0.00     0.033 A 
HETATM   33  C   UNL     1      42.835 -11.510  -1.913  1.00  0.00     0.002 A 
HETATM   34  C   UNL     1      42.608 -12.305  -3.039  1.00  0.00     0.002 A 
ENDBRANCH  25  26
ENDBRANCH   2  25
TORSDOF 8
ENDMDL
MODEL 9
REMARK VINA RESULT:      -8.3      3.624      7.239
REMARK  8 active torsions:
REMARK  status: ('A' for Active; 'I' for Inactive)
REMARK    1  A    between atoms: C_5  and  C_6 
REMARK    2  A    between atoms: C_6  and  N_7 
REMARK       I    between atoms: N_7  and  C_8 
REMARK    3  A    between atoms: N_7  and  C_20 
REMARK    4  A    between atoms: C_8  and  C_9 
REMARK    5  A    between atoms: C_9  and  N_10 
REMARK    6  A    between atoms: C_20  and  C_21 
REMARK       I    between atoms: C_21  and  N_22 
REMARK    7  A    between atoms: N_22  and  C_23 
REMARK    8  A    between atoms: C_26  and  O_27 
ROOT
HETATM    1  N   UNL     1      41.624 -13.150   5.766  1.00  0.00    -0.338 N 
HETATM    2  C   UNL     1      40.951 -12.097   6.396  1.00  0.00     0.239 C 
HETATM    3  O   UNL     1      39.798 -12.244   6.821  1.00  0.00    -0.271 OA
ENDROOT
BRANCH   1   4
HETATM    4  C   UNL     1      40.949 -14.450   5.829  1.00  0.00     0.165 C 
BRANCH   4   5
HETATM    5  C   UNL     1      41.897 -15.624   5.955  1.00  0.00    -0.040 A 
HETATM    6  C   UNL     1      41.466 -16.919   5.641  1.00  0.00     0.009 A 
HETATM    7  C   UNL     1      42.350 -17.997   5.712  1.00  0.00     0.007 A 
HETATM    8  C   UNL     1      43.680 -17.802   6.103  1.00  0.00    -0.062 A 
HETATM    9  C   UNL     1      44.624 -18.966   6.157  1.00  0.00     0.048 C 
HETATM   10  C   UNL     1      44.105 -16.515   6.447  1.00  0.00     0.007 A 
HETATM   11  C   UNL     1      43.219 -15.436   6.379  1.00  0.00     0.009 A 
ENDBRANCH   4   5
ENDBRANCH   1   4
BRANCH   1  12
HETATM   12  C   UNL     1      42.451 -12.905   4.566  1.00  0.00     0.229 C 
BRANCH  12  13
HETATM   13  C   UNL     1      41.682 -12.696   3.265  1.00  0.00     0.240 C 
HETATM   14  N   UNL     1      41.484 -13.730   2.392  1.00  0.00    -0.326 N 
HETATM   15  H   UNL     1      40.822 -13.463   1.671  1.00  0.00     0.169 HD
HETATM   16  O   UNL     1      41.165 -11.606   2.990  1.00  0.00    -0.271 OA
BRANCH  14  17
HETATM   17  C   UNL     1      41.953 -15.056   2.332  1.00  0.00     0.034 A 
HETATM   18  C   UNL     1      41.004 -16.035   2.010  1.00  0.00     0.032 A 
HETATM   19  C   UNL     1      41.361 -17.387   1.930  1.00  0.00     0.039 A 
HETATM   20  C   UNL     1      42.673 -17.787   2.164  1.00  0.00     0.068 A 
HETATM   21  C   UNL     1      43.631 -16.819   2.443  1.00  0.00     0.039 A 
HETATM   22  C   UNL     1      43.272 -15.464   2.526  1.00  0.00     0.032 A 
BRANCH  20  23
HETATM   23  O   UNL     1      42.899 -19.132   2.072  1.00  0.00    -0.356 OA
HETATM   24  C   UNL     1      44.183 -19.587   2.487  1.00  0.00     0.210 C 
ENDBRANCH  20  23
ENDBRANCH  14  17
ENDBRANCH  12  13
ENDBRANCH   1  12
BRANCH   2  25
HETATM   25  C   UNL     1      41.715 -10.844   6.768  1.00  0.00     0.250 C 
BRANCH  25  26
HETATM   26  N   UNL     1      42.019 -10.650   8.166  1.00  0.00    -0.263 N 
HETATM   27  N   UNL     1      41.179  -9.998   8.993  1.00  0.00     0.006 NA
HETATM   28  N   UNL     1      41.729  -9.992  10.200  1.00  0.00    -0.158 NA
HETATM   29  C   UNL     1      42.899 -10.703  10.141  1.00  0.00     0.102 A 
HETATM   30  C   UNL     1      43.105 -11.149   8.843  1.00  0.00     0.079 A 
HETATM   31  C   UNL     1      43.831 -11.023  11.139  1.00  0.00     0.035 A 
HETATM   32  C   UNL     1      44.210 -11.922   8.468  1.00  0.00     0.033 A 
HETATM   33  C   UNL     1      45.126 -12.243   9.476  1.00  0.00     0.002 A 
HETATM   34  C   UNL     1      44.943 -11.802  10.789  1.00  0.00     0.002 A 
ENDBRANCH  25  26
ENDBRANCH   2  25
TORSDOF 8
ENDMDL
MODEL 10
REMARK VINA RESULT:      -8.3      2.827      6.087
REMARK  8 active torsions:
REMARK  status: ('A' for Active; 'I' for Inactive)
REMARK    1  A    between atoms: C_5  and  C_6 
REMARK    2  A    between atoms: C_6  and  N_7 
REMARK       I    between atoms: N_7  and  C_8 
REMARK    3  A    between atoms: N_7  and  C_20 
REMARK    4  A    between atoms: C_8  and  C_9 
REMARK    5  A    between atoms: C_9  and  N_10 
REMARK    6  A    between atoms: C_20  and  C_21 
REMARK       I    between atoms: C_21  and  N_22 
REMARK    7  A    between atoms: N_22  and  C_23 
REMARK    8  A    between atoms: C_26  and  O_27 
ROOT
HETATM    1  N   UNL     1      42.266 -14.769   2.902  1.00  0.00    -0.338 N 
HETATM    2  C   UNL     1      41.292 -14.957   3.890  1.00  0.00     0.239 C 
HETATM    3  O   UNL     1      40.263 -15.601   3.652  1.00  0.00    -0.271 OA
ENDROOT
BRANCH   1   4
HETATM    4  C   UNL     1      42.064 -15.539   1.670  1.00  0.00     0.165 C 
BRANCH   4   5
HETATM    5  C   UNL     1      42.554 -16.969   1.758  1.00  0.00    -0.040 A 
HETATM    6  C   UNL     1      41.650 -18.034   1.664  1.00  0.00     0.009 A 
HETATM    7  C   UNL     1      42.103 -19.355   1.698  1.00  0.00     0.007 A 
HETATM    8  C   UNL     1      43.468 -19.634   1.835  1.00  0.00    -0.062 A 
HETATM    9  C   UNL     1      43.944 -21.056   1.852  1.00  0.00     0.048 C 
HETATM   10  C   UNL     1      44.370 -18.572   1.960  1.00  0.00     0.007 A 
HETATM   11  C   UNL     1      43.916 -17.252   1.929  1.00  0.00     0.009 A 
ENDBRANCH   4   5
ENDBRANCH   1   4
BRANCH   1  12
HETATM   12  C   UNL     1      42.941 -13.464   2.748  1.00  0.00     0.229 C 
BRANCH  12  13
HETATM   13  C   UNL     1      42.229 -12.453   1.853  1.00  0.00     0.240 C 
HETATM   14  N   UNL     1      41.278 -11.611   2.360  1.00  0.00    -0.326 N 
HETATM   15  H   UNL     1      41.031 -10.903   1.677  1.00  0.00     0.169 HD
HETATM   16  O   UNL     1      42.531 -12.324   0.660  1.00  0.00    -0.271 OA
BRANCH  14  17
HETATM   17  C   UNL     1      40.645 -11.502   3.613  1.00  0.00     0.034 A 
HETATM   18  C   UNL     1      41.379 -10.868   4.625  1.00  0.00     0.032 A 
HETATM   19  C   UNL     1      40.847 -10.712   5.911  1.00  0.00     0.039 A 
HETATM   20  C   UNL     1      39.570 -11.178   6.211  1.00  0.00     0.068 A 
HETATM   21  C   UNL     1      38.818 -11.770   5.202  1.00  0.00     0.039 A 
HETATM   22  C   UNL     1      39.353 -11.929   3.914  1.00  0.00     0.032 A 
BRANCH  20  23
HETATM   23  O   UNL     1      39.163 -10.981   7.501  1.00  0.00    -0.356 OA
HETATM   24  C   UNL     1      39.210  -9.641   7.981  1.00  0.00     0.210 C 
ENDBRANCH  20  23
ENDBRANCH  14  17
ENDBRANCH  12  13
ENDBRANCH   1  12
BRANCH   2  25
HETATM   25  C   UNL     1      41.602 -14.572   5.320  1.00  0.00     0.250 C 
BRANCH  25  26
HETATM   26  N   UNL     1      42.798 -15.130   5.908  1.00  0.00    -0.263 N 
HETATM   27  N   UNL     1      43.658 -14.378   6.620  1.00  0.00     0.006 NA
HETATM   28  N   UNL     1      44.640 -15.171   7.029  1.00  0.00    -0.158 NA
HETATM   29  C   UNL     1      44.359 -16.447   6.619  1.00  0.00     0.102 A 
HETATM   30  C   UNL     1      43.169 -16.452   5.902  1.00  0.00     0.079 A 
HETATM   31  C   UNL     1      45.049 -17.651   6.821  1.00  0.00     0.035 A 
HETATM   32  C   UNL     1      42.607 -17.616   5.366  1.00  0.00     0.033 A 
HETATM   33  C   UNL     1      43.301 -18.811   5.586  1.00  0.00     0.002 A 
HETATM   34  C   UNL     1      44.502 -18.831   6.299  1.00  0.00     0.002 A 
ENDBRANCH  25  26
ENDBRANCH   2  25
TORSDOF 8
ENDMDL
