MODEL 1
REMARK VINA RESULT:      -8.0      0.000      0.000
REMARK  3 active torsions:
REMARK  status: ('A' for Active; 'I' for Inactive)
REMARK    1  A    between atoms: C_7  and  C_8 
REMARK    2  A    between atoms: N_11  and  C_13 
REMARK    3  A    between atoms: C_13  and  C_14 
ROOT
HETATM    1  C   UNL     1      41.657 -16.679   6.224  1.00  0.00     0.024 C 
HETATM    2  C   UNL     1      41.461 -15.149   6.242  1.00  0.00     0.037 C 
HETATM    3  C   UNL     1      42.775 -14.410   6.018  1.00  0.00     0.236 C 
HETATM    4  N   UNL     1      43.805 -14.814   7.050  1.00  0.00    -0.067 N 
HETATM    5  H   UNL     1      43.490 -14.472   7.968  1.00  0.00     0.280 HD
HETATM    6  C   UNL     1      43.979 -16.313   7.165  1.00  0.00     0.236 C 
HETATM    7  C   UNL     1      42.629 -16.988   7.365  1.00  0.00     0.037 C 
ENDROOT
BRANCH   1   8
HETATM    8  C   UNL     1      42.064 -17.197   4.848  1.00  0.00    -0.026 A 
HETATM    9  C   UNL     1      42.922 -18.302   4.470  1.00  0.00    -0.001 A 
HETATM   10  C   UNL     1      43.028 -18.288   3.074  1.00  0.00     0.045 A 
HETATM   11  C   UNL     1      43.639 -19.312   5.158  1.00  0.00     0.017 A 
HETATM   12  C   UNL     1      43.840 -19.174   2.354  1.00  0.00     0.072 A 
HETATM   13  N   UNL     1      42.195 -17.305   2.607  1.00  0.00    -0.365 N 
HETATM   14  C   UNL     1      44.557 -20.120   3.076  1.00  0.00     0.118 A 
HETATM   15  C   UNL     1      44.457 -20.206   4.454  1.00  0.00     0.043 A 
HETATM   16  F   UNL     1      45.354 -20.976   2.424  1.00  0.00    -0.206 F 
HETATM   17  C   UNL     1      41.608 -16.655   3.654  1.00  0.00     0.096 A 
HETATM   18  H   UNL     1      42.030 -17.111   1.626  1.00  0.00     0.165 HD
ENDBRANCH   1   8
BRANCH   4  19
HETATM   19  C   UNL     1      45.122 -14.102   6.767  1.00  0.00     0.282 C 
BRANCH  19  20
HETATM   20  C   UNL     1      45.422 -12.981   7.694  1.00  0.00     0.027 A 
HETATM   21  S   UNL     1      44.309 -12.491   8.907  1.00  0.00    -0.084 SA
HETATM   22  C   UNL     1      45.419 -11.283   9.414  1.00  0.00     0.166 A 
HETATM   23  N   UNL     1      46.551 -11.235   8.750  1.00  0.00    -0.265 NA
HETATM   24  C   UNL     1      46.548 -12.184   7.753  1.00  0.00     0.133 A 
ENDBRANCH  19  20
ENDBRANCH   4  19
TORSDOF 3
ENDMDL
MODEL 2
REMARK VINA RESULT:      -7.8      2.953      3.949
REMARK  3 active torsions:
REMARK  status: ('A' for Active; 'I' for Inactive)
REMARK    1  A    between atoms: C_7  and  C_8 
REMARK    2  A    between atoms: N_11  and  C_13 
REMARK    3  A    between atoms: C_13  and  C_14 
ROOT
HETATM    1  C   UNL     1      43.892 -17.005   6.452  1.00  0.00     0.024 C 
HETATM    2  C   UNL     1      42.638 -17.292   7.303  1.00  0.00     0.037 C 
HETATM    3  C   UNL     1      41.364 -16.843   6.599  1.00  0.00     0.236 C 
HETATM    4  N   UNL     1      41.429 -15.372   6.250  1.00  0.00    -0.067 N 
HETATM    5  H   UNL     1      41.422 -14.834   7.128  1.00  0.00     0.280 HD
HETATM    6  C   UNL     1      42.688 -14.991   5.502  1.00  0.00     0.236 C 
HETATM    7  C   UNL     1      43.918 -15.488   6.248  1.00  0.00     0.037 C 
ENDROOT
BRANCH   1   8
HETATM    8  C   UNL     1      43.938 -17.846   5.180  1.00  0.00    -0.026 A 
HETATM    9  C   UNL     1      44.155 -19.266   4.995  1.00  0.00    -0.001 A 
HETATM   10  C   UNL     1      44.185 -19.506   3.616  1.00  0.00     0.045 A 
HETATM   11  C   UNL     1      44.346 -20.384   5.845  1.00  0.00     0.017 A 
HETATM   12  C   UNL     1      44.447 -20.765   3.057  1.00  0.00     0.072 A 
HETATM   13  N   UNL     1      43.890 -18.326   2.985  1.00  0.00    -0.365 N 
HETATM   14  C   UNL     1      44.670 -21.821   3.932  1.00  0.00     0.118 A 
HETATM   15  C   UNL     1      44.611 -21.650   5.304  1.00  0.00     0.043 A 
HETATM   16  F   UNL     1      44.936 -23.037   3.436  1.00  0.00    -0.206 F 
HETATM   17  C   UNL     1      43.731 -17.332   3.908  1.00  0.00     0.096 A 
HETATM   18  H   UNL     1      43.787 -18.221   1.983  1.00  0.00     0.165 HD
ENDBRANCH   1   8
BRANCH   4  19
HETATM   19  C   UNL     1      40.168 -14.965   5.499  1.00  0.00     0.282 C 
BRANCH  19  20
HETATM   20  C   UNL     1      39.870 -13.510   5.548  1.00  0.00     0.027 A 
HETATM   21  S   UNL     1      39.981 -12.519   4.149  1.00  0.00    -0.084 SA
HETATM   22  C   UNL     1      39.494 -11.168   5.088  1.00  0.00     0.166 A 
HETATM   23  N   UNL     1      39.250 -11.413   6.355  1.00  0.00    -0.265 NA
HETATM   24  C   UNL     1      39.486 -12.741   6.628  1.00  0.00     0.133 A 
ENDBRANCH  19  20
ENDBRANCH   4  19
TORSDOF 3
ENDMDL
MODEL 3
REMARK VINA RESULT:      -7.8      3.954      4.853
REMARK  3 active torsions:
REMARK  status: ('A' for Active; 'I' for Inactive)
REMARK    1  A    between atoms: C_7  and  C_8 
REMARK    2  A    between atoms: N_11  and  C_13 
REMARK    3  A    between atoms: C_13  and  C_14 
ROOT
HETATM    1  C   UNL     1      43.088 -17.057   2.012  1.00  0.00     0.024 C 
HETATM    2  C   UNL     1      43.378 -15.589   2.390  1.00  0.00     0.037 C 
HETATM    3  C   UNL     1      42.657 -15.185   3.670  1.00  0.00     0.236 C 
HETATM    4  N   UNL     1      41.165 -15.403   3.542  1.00  0.00    -0.067 N 
HETATM    5  H   UNL     1      40.803 -14.742   2.842  1.00  0.00     0.280 HD
HETATM    6  C   UNL     1      40.804 -16.796   3.072  1.00  0.00     0.236 C 
HETATM    7  C   UNL     1      41.574 -17.142   1.805  1.00  0.00     0.037 C 
ENDROOT
BRANCH   1   8
HETATM    8  C   UNL     1      43.677 -18.043   3.015  1.00  0.00    -0.026 A 
HETATM    9  C   UNL     1      43.953 -19.460   2.895  1.00  0.00    -0.001 A 
HETATM   10  C   UNL     1      44.412 -19.902   4.142  1.00  0.00     0.045 A 
HETATM   11  C   UNL     1      43.852 -20.432   1.869  1.00  0.00     0.017 A 
HETATM   12  C   UNL     1      44.712 -21.242   4.424  1.00  0.00     0.072 A 
HETATM   13  N   UNL     1      44.523 -18.803   4.954  1.00  0.00    -0.365 N 
HETATM   14  C   UNL     1      44.557 -22.164   3.396  1.00  0.00     0.118 A 
HETATM   15  C   UNL     1      44.147 -21.776   2.132  1.00  0.00     0.043 A 
HETATM   16  F   UNL     1      44.822 -23.456   3.630  1.00  0.00    -0.206 F 
HETATM   17  C   UNL     1      44.097 -17.689   4.289  1.00  0.00     0.096 A 
HETATM   18  H   UNL     1      44.888 -18.822   5.899  1.00  0.00     0.165 HD
ENDBRANCH   1   8
BRANCH   4  19
HETATM   19  C   UNL     1      40.478 -15.043   4.854  1.00  0.00     0.282 C 
BRANCH  19  20
HETATM   20  C   UNL     1      39.827 -13.708   4.855  1.00  0.00     0.027 A 
HETATM   21  S   UNL     1      39.609 -12.808   3.409  1.00  0.00    -0.084 SA
HETATM   22  C   UNL     1      38.848 -11.565   4.316  1.00  0.00     0.166 A 
HETATM   23  N   UNL     1      38.741 -11.785   5.606  1.00  0.00    -0.265 NA
HETATM   24  C   UNL     1      39.318 -12.995   5.923  1.00  0.00     0.133 A 
ENDBRANCH  19  20
ENDBRANCH   4  19
TORSDOF 3
ENDMDL
MODEL 4
REMARK VINA RESULT:      -7.7      2.972      4.535
REMARK  3 active torsions:
REMARK  status: ('A' for Active; 'I' for Inactive)
REMARK    1  A    between atoms: C_7  and  C_8 
REMARK    2  A    between atoms: N_11  and  C_13 
REMARK    3  A    between atoms: C_13  and  C_14 
ROOT
HETATM    1  C   UNL     1      43.876 -17.155   6.550  1.00  0.00     0.024 C 
HETATM    2  C   UNL     1      42.561 -17.380   7.323  1.00  0.00     0.037 C 
HETATM    3  C   UNL     1      41.359 -16.837   6.560  1.00  0.00     0.236 C 
HETATM    4  N   UNL     1      41.534 -15.366   6.251  1.00  0.00    -0.067 N 
HETATM    5  H   UNL     1      41.511 -14.847   7.140  1.00  0.00     0.280 HD
HETATM    6  C   UNL     1      42.855 -15.050   5.583  1.00  0.00     0.236 C 
HETATM    7  C   UNL     1      44.008 -15.640   6.384  1.00  0.00     0.037 C 
ENDROOT
BRANCH   1   8
HETATM    8  C   UNL     1      43.942 -17.971   5.263  1.00  0.00    -0.026 A 
HETATM    9  C   UNL     1      44.151 -19.389   5.054  1.00  0.00    -0.001 A 
HETATM   10  C   UNL     1      44.208 -19.602   3.671  1.00  0.00     0.045 A 
HETATM   11  C   UNL     1      44.314 -20.526   5.884  1.00  0.00     0.017 A 
HETATM   12  C   UNL     1      44.472 -20.851   3.093  1.00  0.00     0.072 A 
HETATM   13  N   UNL     1      43.937 -18.406   3.058  1.00  0.00    -0.365 N 
HETATM   14  C   UNL     1      44.666 -21.927   3.950  1.00  0.00     0.118 A 
HETATM   15  C   UNL     1      44.580 -21.782   5.324  1.00  0.00     0.043 A 
HETATM   16  F   UNL     1      44.933 -23.135   3.435  1.00  0.00    -0.206 F 
HETATM   17  C   UNL     1      43.767 -17.430   3.997  1.00  0.00     0.096 A 
HETATM   18  H   UNL     1      43.856 -18.280   2.056  1.00  0.00     0.165 HD
ENDBRANCH   1   8
BRANCH   4  19
HETATM   19  C   UNL     1      40.345 -14.864   5.441  1.00  0.00     0.282 C 
BRANCH  19  20
HETATM   20  C   UNL     1      40.556 -14.884   3.971  1.00  0.00     0.027 A 
HETATM   21  S   UNL     1      40.776 -13.438   3.071  1.00  0.00    -0.084 SA
HETATM   22  C   UNL     1      40.938 -14.372   1.640  1.00  0.00     0.166 A 
HETATM   23  N   UNL     1      40.849 -15.673   1.797  1.00  0.00    -0.265 NA
HETATM   24  C   UNL     1      40.608 -15.970   3.119  1.00  0.00     0.133 A 
ENDBRANCH  19  20
ENDBRANCH   4  19
TORSDOF 3
ENDMDL
MODEL 5
REMARK VINA RESULT:      -7.5      2.651      4.437
REMARK  3 active torsions:
REMARK  status: ('A' for Active; 'I' for Inactive)
REMARK    1  A    between atoms: C_7  and  C_8 
REMARK    2  A    between atoms: N_11  and  C_13 
REMARK    3  A    between atoms: C_13  and  C_14 
ROOT
HETATM    1  C   UNL     1      42.454 -17.592   1.109  1.00  0.00     0.024 C 
HETATM    2  C   UNL     1      42.779 -16.096   0.922  1.00  0.00     0.037 C 
HETATM    3  C   UNL     1      42.287 -15.261   2.098  1.00  0.00     0.236 C 
HETATM    4  N   UNL     1      40.800 -15.447   2.308  1.00  0.00    -0.067 N 
HETATM    5  H   UNL     1      40.309 -15.039   1.500  1.00  0.00     0.280 HD
HETATM    6  C   UNL     1      40.386 -16.900   2.396  1.00  0.00     0.236 C 
HETATM    7  C   UNL     1      40.929 -17.678   1.205  1.00  0.00     0.037 C 
ENDROOT
BRANCH   1   8
HETATM    8  C   UNL     1      43.227 -18.216   2.267  1.00  0.00    -0.026 A 
HETATM    9  C   UNL     1      43.662 -19.580   2.485  1.00  0.00    -0.001 A 
HETATM   10  C   UNL     1      44.258 -19.629   3.752  1.00  0.00     0.045 A 
HETATM   11  C   UNL     1      43.607 -20.794   1.756  1.00  0.00     0.017 A 
HETATM   12  C   UNL     1      44.737 -20.810   4.334  1.00  0.00     0.072 A 
HETATM   13  N   UNL     1      44.294 -18.349   4.241  1.00  0.00    -0.365 N 
HETATM   14  C   UNL     1      44.622 -21.982   3.596  1.00  0.00     0.118 A 
HETATM   15  C   UNL     1      44.079 -21.985   2.323  1.00  0.00     0.043 A 
HETATM   16  F   UNL     1      45.056 -23.134   4.125  1.00  0.00    -0.206 F 
HETATM   17  C   UNL     1      43.691 -17.497   3.360  1.00  0.00     0.096 A 
HETATM   18  H   UNL     1      44.724 -18.081   5.118  1.00  0.00     0.165 HD
ENDBRANCH   1   8
BRANCH   4  19
HETATM   19  C   UNL     1      40.348 -14.645   3.522  1.00  0.00     0.282 C 
BRANCH  19  20
HETATM   20  C   UNL     1      41.396 -14.462   4.558  1.00  0.00     0.027 A 
HETATM   21  S   UNL     1      42.255 -12.984   4.722  1.00  0.00    -0.084 SA
HETATM   22  C   UNL     1      43.131 -13.657   6.036  1.00  0.00     0.166 A 
HETATM   23  N   UNL     1      42.816 -14.891   6.357  1.00  0.00    -0.265 NA
HETATM   24  C   UNL     1      41.845 -15.363   5.503  1.00  0.00     0.133 A 
ENDBRANCH  19  20
ENDBRANCH   4  19
TORSDOF 3
ENDMDL
MODEL 6
REMARK VINA RESULT:      -7.4      2.672      3.572
REMARK  3 active torsions:
REMARK  status: ('A' for Active; 'I' for Inactive)
REMARK    1  A    between atoms: C_7  and  C_8 
REMARK    2  A    between atoms: N_11  and  C_13 
REMARK    3  A    between atoms: C_13  and  C_14 
ROOT
HETATM    1  C   UNL     1      42.421 -17.286   6.350  1.00  0.00     0.024 C 
HETATM    2  C   UNL     1      41.122 -16.493   6.607  1.00  0.00     0.037 C 
HETATM    3  C   UNL     1      41.080 -15.204   5.795  1.00  0.00     0.236 C 
HETATM    4  N   UNL     1      42.285 -14.338   6.092  1.00  0.00    -0.067 N 
HETATM    5  H   UNL     1      42.213 -14.013   7.066  1.00  0.00     0.280 HD
HETATM    6  C   UNL     1      43.599 -15.079   5.963  1.00  0.00     0.236 C 
HETATM    7  C   UNL     1      43.564 -16.364   6.779  1.00  0.00     0.037 C 
ENDROOT
BRANCH   1   8
HETATM    8  C   UNL     1      42.501 -17.824   4.925  1.00  0.00    -0.026 A 
HETATM    9  C   UNL     1      43.286 -18.907   4.367  1.00  0.00    -0.001 A 
HETATM   10  C   UNL     1      43.049 -18.925   2.987  1.00  0.00     0.045 A 
HETATM   11  C   UNL     1      44.188 -19.874   4.875  1.00  0.00     0.017 A 
HETATM   12  C   UNL     1      43.697 -19.800   2.105  1.00  0.00     0.072 A 
HETATM   13  N   UNL     1      42.089 -17.984   2.721  1.00  0.00    -0.365 N 
HETATM   14  C   UNL     1      44.605 -20.702   2.646  1.00  0.00     0.118 A 
HETATM   15  C   UNL     1      44.846 -20.756   4.008  1.00  0.00     0.043 A 
HETATM   16  F   UNL     1      45.253 -21.546   1.833  1.00  0.00    -0.206 F 
HETATM   17  C   UNL     1      41.748 -17.329   3.870  1.00  0.00     0.096 A 
HETATM   18  H   UNL     1      41.683 -17.820   1.808  1.00  0.00     0.165 HD
ENDBRANCH   1   8
BRANCH   4  19
HETATM   19  C   UNL     1      42.243 -13.085   5.227  1.00  0.00     0.282 C 
BRANCH  19  20
HETATM   20  C   UNL     1      40.915 -12.423   5.174  1.00  0.00     0.027 A 
HETATM   21  S   UNL     1      39.999 -12.352   3.723  1.00  0.00    -0.084 SA
HETATM   22  C   UNL     1      38.763 -11.509   4.563  1.00  0.00     0.166 A 
HETATM   23  N   UNL     1      38.987 -11.293   5.839  1.00  0.00    -0.265 NA
HETATM   24  C   UNL     1      40.222 -11.790   6.187  1.00  0.00     0.133 A 
ENDBRANCH  19  20
ENDBRANCH   4  19
TORSDOF 3
ENDMDL
MODEL 7
REMARK VINA RESULT:      -7.1      4.453      6.153
REMARK  3 active torsions:
REMARK  status: ('A' for Active; 'I' for Inactive)
REMARK    1  A    between atoms: C_7  and  C_8 
REMARK    2  A    between atoms: N_11  and  C_13 
REMARK    3  A    between atoms: C_13  and  C_14 
ROOT
HETATM    1  C   UNL     1      40.556 -17.040   1.868  1.00  0.00     0.024 C 
HETATM    2  C   UNL     1      41.308 -16.741   0.555  1.00  0.00     0.037 C 
HETATM    3  C   UNL     1      42.097 -15.440   0.642  1.00  0.00     0.236 C 
HETATM    4  N   UNL     1      41.192 -14.281   0.997  1.00  0.00    -0.067 N 
HETATM    5  H   UNL     1      40.550 -14.122   0.209  1.00  0.00     0.280 HD
HETATM    6  C   UNL     1      40.340 -14.543   2.221  1.00  0.00     0.236 C 
HETATM    7  C   UNL     1      39.599 -15.864   2.077  1.00  0.00     0.037 C 
ENDROOT
BRANCH   1   8
HETATM    8  C   UNL     1      41.503 -17.339   3.026  1.00  0.00    -0.026 A 
HETATM    9  C   UNL     1      42.588 -18.292   3.136  1.00  0.00    -0.001 A 
HETATM   10  C   UNL     1      43.076 -18.217   4.447  1.00  0.00     0.045 A 
HETATM   11  C   UNL     1      43.208 -19.230   2.274  1.00  0.00     0.017 A 
HETATM   12  C   UNL     1      44.089 -19.050   4.942  1.00  0.00     0.072 A 
HETATM   13  N   UNL     1      42.411 -17.198   5.077  1.00  0.00    -0.365 N 
HETATM   14  C   UNL     1      44.637 -19.982   4.069  1.00  0.00     0.118 A 
HETATM   15  C   UNL     1      44.221 -20.072   2.752  1.00  0.00     0.043 A 
HETATM   16  F   UNL     1      45.598 -20.804   4.509  1.00  0.00    -0.206 F 
HETATM   17  C   UNL     1      41.478 -16.661   4.237  1.00  0.00     0.096 A 
HETATM   18  H   UNL     1      42.604 -16.883   6.020  1.00  0.00     0.165 HD
ENDBRANCH   1   8
BRANCH   4  19
HETATM   19  C   UNL     1      42.016 -13.007   1.132  1.00  0.00     0.282 C 
BRANCH  19  20
HETATM   20  C   UNL     1      41.685 -11.957   0.135  1.00  0.00     0.027 A 
HETATM   21  S   UNL     1      42.678 -11.669  -1.236  1.00  0.00    -0.084 SA
HETATM   22  C   UNL     1      41.599 -10.433  -1.739  1.00  0.00     0.166 A 
HETATM   23  N   UNL     1      40.557 -10.237  -0.964  1.00  0.00    -0.265 NA
HETATM   24  C   UNL     1      40.613 -11.086   0.118  1.00  0.00     0.133 A 
ENDBRANCH  19  20
ENDBRANCH   4  19
TORSDOF 3
ENDMDL
MODEL 8
REMARK VINA RESULT:      -7.0      2.679      3.839
REMARK  3 active torsions:
REMARK  status: ('A' for Active; 'I' for Inactive)
REMARK    1  A    between atoms: C_7  and  C_8 
REMARK    2  A    between atoms: N_11  and  C_13 
REMARK    3  A    between atoms: C_13  and  C_14 
ROOT
HETATM    1  C   UNL     1      42.837 -18.008   6.452  1.00  0.00     0.024 C 
HETATM    2  C   UNL     1      41.638 -17.063   6.681  1.00  0.00     0.037 C 
HETATM    3  C   UNL     1      41.939 -15.647   6.205  1.00  0.00     0.236 C 
HETATM    4  N   UNL     1      43.171 -15.097   6.890  1.00  0.00    -0.067 N 
HETATM    5  H   UNL     1      42.956 -14.976   7.889  1.00  0.00     0.280 HD
HETATM    6  C   UNL     1      44.367 -16.021   6.799  1.00  0.00     0.236 C 
HETATM    7  C   UNL     1      43.991 -17.420   7.267  1.00  0.00     0.037 C 
ENDROOT
BRANCH   1   8
HETATM    8  C   UNL     1      43.121 -18.240   4.972  1.00  0.00    -0.026 A 
HETATM    9  C   UNL     1      42.427 -17.766   3.792  1.00  0.00    -0.001 A 
HETATM   10  C   UNL     1      43.053 -18.345   2.681  1.00  0.00     0.045 A 
HETATM   11  C   UNL     1      41.322 -16.918   3.535  1.00  0.00     0.017 A 
HETATM   12  C   UNL     1      42.605 -18.169   1.364  1.00  0.00     0.072 A 
HETATM   13  N   UNL     1      44.140 -19.045   3.137  1.00  0.00    -0.365 N 
HETATM   14  C   UNL     1      41.492 -17.361   1.168  1.00  0.00     0.118 A 
HETATM   15  C   UNL     1      40.859 -16.731   2.225  1.00  0.00     0.043 A 
HETATM   16  F   UNL     1      41.026 -17.179  -0.075  1.00  0.00    -0.206 F 
HETATM   17  C   UNL     1      44.195 -18.980   4.500  1.00  0.00     0.096 A 
HETATM   18  H   UNL     1      44.808 -19.518   2.542  1.00  0.00     0.165 HD
ENDBRANCH   1   8
BRANCH   4  19
HETATM   19  C   UNL     1      43.479 -13.704   6.355  1.00  0.00     0.282 C 
BRANCH  19  20
HETATM   20  C   UNL     1      43.088 -13.494   4.937  1.00  0.00     0.027 A 
HETATM   21  S   UNL     1      41.727 -12.540   4.508  1.00  0.00    -0.084 SA
HETATM   22  C   UNL     1      42.058 -12.842   2.851  1.00  0.00     0.166 A 
HETATM   23  N   UNL     1      43.110 -13.589   2.608  1.00  0.00    -0.265 NA
HETATM   24  C   UNL     1      43.687 -13.984   3.793  1.00  0.00     0.133 A 
ENDBRANCH  19  20
ENDBRANCH   4  19
TORSDOF 3
ENDMDL
MODEL 9
REMARK VINA RESULT:      -6.9      2.947      4.646
REMARK  3 active torsions:
REMARK  status: ('A' for Active; 'I' for Inactive)
REMARK    1  A    between atoms: C_7  and  C_8 
REMARK    2  A    between atoms: N_11  and  C_13 
REMARK    3  A    between atoms: C_13  and  C_14 
ROOT
HETATM    1  C   UNL     1      41.028 -17.291   1.209  1.00  0.00     0.024 C 
HETATM    2  C   UNL     1      41.407 -16.352   0.045  1.00  0.00     0.037 C 
HETATM    3  C   UNL     1      42.029 -15.055   0.548  1.00  0.00     0.236 C 
HETATM    4  N   UNL     1      41.098 -14.344   1.506  1.00  0.00    -0.067 N 
HETATM    5  H   UNL     1      40.275 -14.028   0.976  1.00  0.00     0.280 HD
HETATM    6  C   UNL     1      40.597 -15.235   2.622  1.00  0.00     0.236 C 
HETATM    7  C   UNL     1      40.010 -16.519   2.052  1.00  0.00     0.037 C 
ENDROOT
BRANCH   1   8
HETATM    8  C   UNL     1      42.250 -17.813   1.958  1.00  0.00    -0.026 A 
HETATM    9  C   UNL     1      42.469 -18.027   3.373  1.00  0.00    -0.001 A 
HETATM   10  C   UNL     1      43.798 -18.438   3.531  1.00  0.00     0.045 A 
HETATM   11  C   UNL     1      41.692 -17.905   4.552  1.00  0.00     0.017 A 
HETATM   12  C   UNL     1      44.391 -18.671   4.780  1.00  0.00     0.072 A 
HETATM   13  N   UNL     1      44.338 -18.580   2.279  1.00  0.00    -0.365 N 
HETATM   14  C   UNL     1      43.599 -18.498   5.908  1.00  0.00     0.118 A 
HETATM   15  C   UNL     1      42.268 -18.133   5.809  1.00  0.00     0.043 A 
HETATM   16  F   UNL     1      44.134 -18.699   7.120  1.00  0.00    -0.206 F 
HETATM   17  C   UNL     1      43.420 -18.220   1.334  1.00  0.00     0.096 A 
HETATM   18  H   UNL     1      45.272 -18.923   2.092  1.00  0.00     0.165 HD
ENDBRANCH   1   8
BRANCH   4  19
HETATM   19  C   UNL     1      41.769 -13.082   2.034  1.00  0.00     0.282 C 
BRANCH  19  20
HETATM   20  C   UNL     1      42.261 -13.190   3.431  1.00  0.00     0.027 A 
HETATM   21  S   UNL     1      43.676 -14.081   3.822  1.00  0.00    -0.084 SA
HETATM   22  C   UNL     1      43.466 -13.659   5.473  1.00  0.00     0.166 A 
HETATM   23  N   UNL     1      42.428 -12.900   5.738  1.00  0.00    -0.265 NA
HETATM   24  C   UNL     1      41.724 -12.649   4.582  1.00  0.00     0.133 A 
ENDBRANCH  19  20
ENDBRANCH   4  19
TORSDOF 3
ENDMDL
MODEL 10
REMARK VINA RESULT:      -6.9      4.711      7.679
REMARK  3 active torsions:
REMARK  status: ('A' for Active; 'I' for Inactive)
REMARK    1  A    between atoms: C_7  and  C_8 
REMARK    2  A    between atoms: N_11  and  C_13 
REMARK    3  A    between atoms: C_13  and  C_14 
ROOT
HETATM    1  C   UNL     1      40.909 -15.846   1.574  1.00  0.00     0.024 C 
HETATM    2  C   UNL     1      40.546 -17.026   2.499  1.00  0.00     0.037 C 
HETATM    3  C   UNL     1      41.779 -17.600   3.187  1.00  0.00     0.236 C 
HETATM    4  N   UNL     1      42.813 -18.035   2.171  1.00  0.00    -0.067 N 
HETATM    5  H   UNL     1      42.432 -18.836   1.650  1.00  0.00     0.280 HD
HETATM    6  C   UNL     1      43.144 -16.959   1.160  1.00  0.00     0.236 C 
HETATM    7  C   UNL     1      41.870 -16.416   0.528  1.00  0.00     0.037 C 
ENDROOT
BRANCH   1   8
HETATM    8  C   UNL     1      41.414 -14.633   2.348  1.00  0.00    -0.026 A 
HETATM    9  C   UNL     1      41.057 -14.135   3.661  1.00  0.00    -0.001 A 
HETATM   10  C   UNL     1      41.756 -12.938   3.857  1.00  0.00     0.045 A 
HETATM   11  C   UNL     1      40.202 -14.557   4.710  1.00  0.00     0.017 A 
HETATM   12  C   UNL     1      41.604 -12.132   4.994  1.00  0.00     0.072 A 
HETATM   13  N   UNL     1      42.584 -12.763   2.778  1.00  0.00    -0.365 N 
HETATM   14  C   UNL     1      40.723 -12.568   5.976  1.00  0.00     0.118 A 
HETATM   15  C   UNL     1      40.037 -13.764   5.854  1.00  0.00     0.043 A 
HETATM   16  F   UNL     1      40.541 -11.820   7.071  1.00  0.00    -0.206 F 
HETATM   17  C   UNL     1      42.396 -13.772   1.879  1.00  0.00     0.096 A 
HETATM   18  H   UNL     1      43.248 -12.004   2.683  1.00  0.00     0.165 HD
ENDBRANCH   1   8
BRANCH   4  19
HETATM   19  C   UNL     1      44.053 -18.552   2.889  1.00  0.00     0.282 C 
BRANCH  19  20
HETATM   20  C   UNL     1      44.181 -20.032   2.899  1.00  0.00     0.027 A 
HETATM   21  S   UNL     1      44.894 -20.868   4.219  1.00  0.00    -0.084 SA
HETATM   22  C   UNL     1      44.608 -22.355   3.412  1.00  0.00     0.166 A 
HETATM   23  N   UNL     1      44.014 -22.264   2.244  1.00  0.00    -0.265 NA
HETATM   24  C   UNL     1      43.789 -20.941   1.935  1.00  0.00     0.133 A 
ENDBRANCH  19  20
ENDBRANCH   4  19
TORSDOF 3
ENDMDL
