MODEL 1
REMARK VINA RESULT:      -7.2      0.000      0.000
REMARK  3 active torsions:
REMARK  status: ('A' for Active; 'I' for Inactive)
REMARK    1  A    between atoms: C_4  and  C_5 
REMARK    2  A    between atoms: C_5  and  N_6 
REMARK    3  A    between atoms: N_10  and  S_11 
ROOT
HETATM    1  N   UNL     1      43.061 -17.964   4.600  1.00  0.00    -0.063 N 
HETATM    2  H   UNL     1      42.657 -18.539   3.847  1.00  0.00     0.280 HD
HETATM    3  C   UNL     1      43.085 -16.514   4.136  1.00  0.00     0.267 C 
HETATM    4  C   UNL     1      41.645 -15.974   3.829  1.00  0.00     0.067 C 
HETATM    5  N   UNL     1      41.655 -14.503   3.378  1.00  0.00    -0.300 N 
HETATM    6  C   UNL     1      40.287 -14.000   3.030  1.00  0.00     0.136 C 
HETATM    7  C   UNL     1      39.722 -14.805   1.866  1.00  0.00     0.021 C 
HETATM    8  C   UNL     1      39.693 -16.294   2.173  1.00  0.00     0.004 C 
HETATM    9  C   UNL     1      41.068 -16.780   2.625  1.00  0.00     0.033 C 
HETATM   10  C   UNL     1      40.808 -16.176   5.119  1.00  0.00     0.035 C 
HETATM   11  C   UNL     1      40.846 -17.616   5.644  1.00  0.00     0.030 C 
HETATM   12  C   UNL     1      42.262 -18.131   5.858  1.00  0.00     0.235 C 
ENDROOT
BRANCH   5  13
HETATM   13  S   UNL     1      42.636 -13.397   4.237  1.00  0.00     0.225 S 
HETATM   14  C   UNL     1      41.819 -11.821   4.039  1.00  0.00     0.186 C 
HETATM   15  O   UNL     1      42.600 -13.796   5.624  1.00  0.00    -0.206 OA
HETATM   16  O   UNL     1      43.894 -13.323   3.523  1.00  0.00    -0.206 OA
ENDBRANCH   5  13
BRANCH   1  17
HETATM   17  C   UNL     1      44.468 -18.522   4.734  1.00  0.00     0.299 C 
BRANCH  17  18
HETATM   18  C   UNL     1      44.542 -19.941   4.305  1.00  0.00     0.079 A 
HETATM   19  O   UNL     1      44.253 -20.184   2.991  1.00  0.00    -0.318 OA
HETATM   20  C   UNL     1      44.397 -21.525   2.794  1.00  0.00     0.049 A 
HETATM   21  C   UNL     1      44.148 -22.033   1.429  1.00  0.00     0.076 C 
HETATM   22  C   UNL     1      44.773 -22.137   3.970  1.00  0.00     0.035 A 
HETATM   23  C   UNL     1      44.865 -21.116   4.946  1.00  0.00     0.037 A 
ENDBRANCH  17  18
ENDBRANCH   1  17
TORSDOF 3
ENDMDL
MODEL 2
REMARK VINA RESULT:      -7.0      2.478      6.563
REMARK  3 active torsions:
REMARK  status: ('A' for Active; 'I' for Inactive)
REMARK    1  A    between atoms: C_4  and  C_5 
REMARK    2  A    between atoms: C_5  and  N_6 
REMARK    3  A    between atoms: N_10  and  S_11 
ROOT
HETATM    1  N   UNL     1      41.559 -17.581   1.808  1.00  0.00    -0.063 N 
HETATM    2  H   UNL     1      41.348 -18.317   1.121  1.00  0.00     0.280 HD
HETATM    3  C   UNL     1      41.987 -18.246   3.109  1.00  0.00     0.267 C 
HETATM    4  C   UNL     1      43.274 -19.122   2.922  1.00  0.00     0.067 C 
HETATM    5  N   UNL     1      43.727 -19.784   4.235  1.00  0.00    -0.300 N 
HETATM    6  C   UNL     1      44.924 -20.668   4.050  1.00  0.00     0.136 C 
HETATM    7  C   UNL     1      44.585 -21.800   3.089  1.00  0.00     0.021 C 
HETATM    8  C   UNL     1      44.084 -21.275   1.753  1.00  0.00     0.004 C 
HETATM    9  C   UNL     1      42.929 -20.297   1.956  1.00  0.00     0.033 C 
HETATM   10  C   UNL     1      44.368 -18.191   2.339  1.00  0.00     0.035 C 
HETATM   11  C   UNL     1      43.918 -17.449   1.075  1.00  0.00     0.030 C 
HETATM   12  C   UNL     1      42.625 -16.671   1.273  1.00  0.00     0.235 C 
ENDROOT
BRANCH   5  13
HETATM   13  S   UNL     1      43.739 -18.839   5.660  1.00  0.00     0.225 S 
HETATM   14  C   UNL     1      43.750 -20.029   6.991  1.00  0.00     0.186 C 
HETATM   15  O   UNL     1      44.977 -18.096   5.658  1.00  0.00    -0.206 OA
HETATM   16  O   UNL     1      42.466 -18.150   5.708  1.00  0.00    -0.206 OA
ENDBRANCH   5  13
BRANCH   1  17
HETATM   17  C   UNL     1      40.225 -16.872   1.966  1.00  0.00     0.299 C 
BRANCH  17  18
HETATM   18  C   UNL     1      40.385 -15.521   2.560  1.00  0.00     0.079 A 
HETATM   19  O   UNL     1      40.589 -15.483   3.912  1.00  0.00    -0.318 OA
HETATM   20  C   UNL     1      40.731 -14.171   4.255  1.00  0.00     0.049 A 
HETATM   21  C   UNL     1      40.979 -13.875   5.681  1.00  0.00     0.076 C 
HETATM   22  C   UNL     1      40.616 -13.375   3.136  1.00  0.00     0.035 A 
HETATM   23  C   UNL     1      40.391 -14.245   2.042  1.00  0.00     0.037 A 
ENDBRANCH  17  18
ENDBRANCH   1  17
TORSDOF 3
ENDMDL
MODEL 3
REMARK VINA RESULT:      -6.8      3.226      6.628
REMARK  3 active torsions:
REMARK  status: ('A' for Active; 'I' for Inactive)
REMARK    1  A    between atoms: C_4  and  C_5 
REMARK    2  A    between atoms: C_5  and  N_6 
REMARK    3  A    between atoms: N_10  and  S_11 
ROOT
HETATM    1  N   UNL     1      42.603 -15.038   6.124  1.00  0.00    -0.063 N 
HETATM    2  H   UNL     1      43.112 -15.382   6.950  1.00  0.00     0.280 HD
HETATM    3  C   UNL     1      43.267 -15.610   4.879  1.00  0.00     0.267 C 
HETATM    4  C   UNL     1      43.225 -17.177   4.860  1.00  0.00     0.067 C 
HETATM    5  N   UNL     1      43.876 -17.766   3.597  1.00  0.00    -0.300 N 
HETATM    6  C   UNL     1      43.889 -19.264   3.602  1.00  0.00     0.136 C 
HETATM    7  C   UNL     1      44.706 -19.769   4.784  1.00  0.00     0.021 C 
HETATM    8  C   UNL     1      44.184 -19.224   6.104  1.00  0.00     0.004 C 
HETATM    9  C   UNL     1      44.078 -17.702   6.057  1.00  0.00     0.033 C 
HETATM   10  C   UNL     1      41.735 -17.586   4.985  1.00  0.00     0.035 C 
HETATM   11  C   UNL     1      41.032 -16.948   6.188  1.00  0.00     0.030 C 
HETATM   12  C   UNL     1      41.158 -15.431   6.213  1.00  0.00     0.235 C 
ENDROOT
BRANCH   5  13
HETATM   13  S   UNL     1      43.512 -17.050   2.087  1.00  0.00     0.225 S 
HETATM   14  C   UNL     1      42.004 -17.849   1.561  1.00  0.00     0.186 C 
HETATM   15  O   UNL     1      43.263 -15.650   2.337  1.00  0.00    -0.206 OA
HETATM   16  O   UNL     1      44.559 -17.461   1.174  1.00  0.00    -0.206 OA
ENDBRANCH   5  13
BRANCH   1  17
HETATM   17  C   UNL     1      42.795 -13.534   6.209  1.00  0.00     0.299 C 
BRANCH  17  18
HETATM   18  C   UNL     1      43.932 -13.171   7.092  1.00  0.00     0.079 A 
HETATM   19  O   UNL     1      43.671 -12.225   8.045  1.00  0.00    -0.318 OA
HETATM   20  C   UNL     1      44.820 -12.051   8.757  1.00  0.00     0.049 A 
HETATM   21  C   UNL     1      44.780 -11.075   9.865  1.00  0.00     0.076 C 
HETATM   22  C   UNL     1      45.810 -12.874   8.265  1.00  0.00     0.035 A 
HETATM   23  C   UNL     1      45.238 -13.596   7.190  1.00  0.00     0.037 A 
ENDBRANCH  17  18
ENDBRANCH   1  17
TORSDOF 3
ENDMDL
MODEL 4
REMARK VINA RESULT:      -6.8      2.666      3.574
REMARK  3 active torsions:
REMARK  status: ('A' for Active; 'I' for Inactive)
REMARK    1  A    between atoms: C_4  and  C_5 
REMARK    2  A    between atoms: C_5  and  N_6 
REMARK    3  A    between atoms: N_10  and  S_11 
ROOT
HETATM    1  N   UNL     1      42.063 -16.460   2.748  1.00  0.00    -0.063 N 
HETATM    2  H   UNL     1      42.096 -16.750   3.735  1.00  0.00     0.280 HD
HETATM    3  C   UNL     1      40.785 -15.661   2.525  1.00  0.00     0.267 C 
HETATM    4  C   UNL     1      40.739 -14.371   3.414  1.00  0.00     0.067 C 
HETATM    5  N   UNL     1      39.461 -13.546   3.183  1.00  0.00    -0.300 N 
HETATM    6  C   UNL     1      39.386 -12.341   4.071  1.00  0.00     0.136 C 
HETATM    7  C   UNL     1      39.360 -12.777   5.531  1.00  0.00     0.021 C 
HETATM    8  C   UNL     1      40.562 -13.640   5.882  1.00  0.00     0.004 C 
HETATM    9  C   UNL     1      40.691 -14.811   4.910  1.00  0.00     0.033 C 
HETATM   10  C   UNL     1      42.018 -13.557   3.087  1.00  0.00     0.035 C 
HETATM   11  C   UNL     1      43.306 -14.375   3.226  1.00  0.00     0.030 C 
HETATM   12  C   UNL     1      43.284 -15.659   2.407  1.00  0.00     0.235 C 
ENDROOT
BRANCH   5  13
HETATM   13  S   UNL     1      38.938 -13.292   1.575  1.00  0.00     0.225 S 
HETATM   14  C   UNL     1      37.905 -11.837   1.660  1.00  0.00     0.186 C 
HETATM   15  O   UNL     1      40.117 -13.011   0.791  1.00  0.00    -0.206 OA
HETATM   16  O   UNL     1      38.080 -14.411   1.240  1.00  0.00    -0.206 OA
ENDBRANCH   5  13
BRANCH   1  17
HETATM   17  C   UNL     1      42.020 -17.785   2.007  1.00  0.00     0.299 C 
BRANCH  17  18
HETATM   18  C   UNL     1      42.959 -18.775   2.591  1.00  0.00     0.079 A 
HETATM   19  O   UNL     1      43.179 -19.901   1.847  1.00  0.00    -0.318 OA
HETATM   20  C   UNL     1      44.075 -20.663   2.537  1.00  0.00     0.049 A 
HETATM   21  C   UNL     1      44.485 -21.940   1.918  1.00  0.00     0.076 C 
HETATM   22  C   UNL     1      44.424 -20.034   3.713  1.00  0.00     0.035 A 
HETATM   23  C   UNL     1      43.703 -18.816   3.749  1.00  0.00     0.037 A 
ENDBRANCH  17  18
ENDBRANCH   1  17
TORSDOF 3
ENDMDL
MODEL 5
REMARK VINA RESULT:      -6.8      3.192      4.106
REMARK  3 active torsions:
REMARK  status: ('A' for Active; 'I' for Inactive)
REMARK    1  A    between atoms: C_4  and  C_5 
REMARK    2  A    between atoms: C_5  and  N_6 
REMARK    3  A    between atoms: N_10  and  S_11 
ROOT
HETATM    1  N   UNL     1      42.866 -16.610   1.552  1.00  0.00    -0.063 N 
HETATM    2  H   UNL     1      42.216 -17.045   2.221  1.00  0.00     0.280 HD
HETATM    3  C   UNL     1      42.064 -16.125   0.351  1.00  0.00     0.267 C 
HETATM    4  C   UNL     1      40.992 -15.056   0.756  1.00  0.00     0.067 C 
HETATM    5  N   UNL     1      40.189 -14.545  -0.453  1.00  0.00    -0.300 N 
HETATM    6  C   UNL     1      39.125 -13.564  -0.063  1.00  0.00     0.136 C 
HETATM    7  C   UNL     1      38.123 -14.233   0.870  1.00  0.00     0.021 C 
HETATM    8  C   UNL     1      38.802 -14.819   2.098  1.00  0.00     0.004 C 
HETATM    9  C   UNL     1      39.951 -15.740   1.694  1.00  0.00     0.033 C 
HETATM   10  C   UNL     1      41.753 -13.908   1.469  1.00  0.00     0.035 C 
HETATM   11  C   UNL     1      42.631 -14.395   2.627  1.00  0.00     0.030 C 
HETATM   12  C   UNL     1      43.607 -15.487   2.213  1.00  0.00     0.235 C 
ENDROOT
BRANCH   5  13
HETATM   13  S   UNL     1      41.036 -14.160  -1.888  1.00  0.00     0.225 S 
HETATM   14  C   UNL     1      39.915 -13.119  -2.809  1.00  0.00     0.186 C 
HETATM   15  O   UNL     1      42.200 -13.400  -1.495  1.00  0.00    -0.206 OA
HETATM   16  O   UNL     1      41.180 -15.399  -2.626  1.00  0.00    -0.206 OA
ENDBRANCH   5  13
BRANCH   1  17
HETATM   17  C   UNL     1      43.784 -17.760   1.173  1.00  0.00     0.299 C 
BRANCH  17  18
HETATM   18  C   UNL     1      43.961 -18.716   2.294  1.00  0.00     0.079 A 
HETATM   19  O   UNL     1      44.108 -20.029   1.942  1.00  0.00    -0.318 OA
HETATM   20  C   UNL     1      44.278 -20.733   3.097  1.00  0.00     0.049 A 
HETATM   21  C   UNL     1      44.472 -22.193   2.970  1.00  0.00     0.076 C 
HETATM   22  C   UNL     1      44.237 -19.882   4.180  1.00  0.00     0.035 A 
HETATM   23  C   UNL     1      44.032 -18.580   3.662  1.00  0.00     0.037 A 
ENDBRANCH  17  18
ENDBRANCH   1  17
TORSDOF 3
ENDMDL
MODEL 6
REMARK VINA RESULT:      -6.7      7.237      9.633
REMARK  3 active torsions:
REMARK  status: ('A' for Active; 'I' for Inactive)
REMARK    1  A    between atoms: C_4  and  C_5 
REMARK    2  A    between atoms: C_5  and  N_6 
REMARK    3  A    between atoms: N_10  and  S_11 
ROOT
HETATM    1  N   UNL     1      42.934 -11.147  12.007  1.00  0.00    -0.063 N 
HETATM    2  H   UNL     1      42.272 -11.533  12.695  1.00  0.00     0.280 HD
HETATM    3  C   UNL     1      42.173 -10.849  10.723  1.00  0.00     0.267 C 
HETATM    4  C   UNL     1      41.035  -9.794  10.948  1.00  0.00     0.067 C 
HETATM    5  N   UNL     1      40.271  -9.471   9.652  1.00  0.00    -0.300 N 
HETATM    6  C   UNL     1      39.146  -8.506   9.874  1.00  0.00     0.136 C 
HETATM    7  C   UNL     1      38.130  -9.109  10.835  1.00  0.00     0.021 C 
HETATM    8  C   UNL     1      38.772  -9.511  12.154  1.00  0.00     0.004 C 
HETATM    9  C   UNL     1      39.980 -10.414  11.915  1.00  0.00     0.033 C 
HETATM   10  C   UNL     1      41.707  -8.534  11.551  1.00  0.00     0.035 C 
HETATM   11  C   UNL     1      42.547  -8.835  12.797  1.00  0.00     0.030 C 
HETATM   12  C   UNL     1      43.591  -9.918  12.561  1.00  0.00     0.235 C 
ENDROOT
BRANCH   5  13
HETATM   13  S   UNL     1      41.171  -9.216   8.221  1.00  0.00     0.225 S 
HETATM   14  C   UNL     1      40.229 -10.035   6.944  1.00  0.00     0.186 C 
HETATM   15  O   UNL     1      41.184  -7.792   7.983  1.00  0.00    -0.206 OA
HETATM   16  O   UNL     1      42.411  -9.948   8.378  1.00  0.00    -0.206 OA
ENDBRANCH   5  13
BRANCH   1  17
HETATM   17  C   UNL     1      43.920 -12.286  11.811  1.00  0.00     0.299 C 
BRANCH  17  18
HETATM   18  C   UNL     1      44.705 -12.127  10.562  1.00  0.00     0.079 A 
HETATM   19  O   UNL     1      44.491 -13.072   9.596  1.00  0.00    -0.318 OA
HETATM   20  C   UNL     1      45.279 -12.740   8.535  1.00  0.00     0.049 A 
HETATM   21  C   UNL     1      45.209 -13.618   7.348  1.00  0.00     0.076 C 
HETATM   22  C   UNL     1      45.994 -11.597   8.815  1.00  0.00     0.035 A 
HETATM   23  C   UNL     1      45.625 -11.201  10.124  1.00  0.00     0.037 A 
ENDBRANCH  17  18
ENDBRANCH   1  17
TORSDOF 3
ENDMDL
MODEL 7
REMARK VINA RESULT:      -6.7      2.334      2.918
REMARK  3 active torsions:
REMARK  status: ('A' for Active; 'I' for Inactive)
REMARK    1  A    between atoms: C_4  and  C_5 
REMARK    2  A    between atoms: C_5  and  N_6 
REMARK    3  A    between atoms: N_10  and  S_11 
ROOT
HETATM    1  N   UNL     1      42.451 -16.744   2.695  1.00  0.00    -0.063 N 
HETATM    2  H   UNL     1      42.580 -17.484   1.992  1.00  0.00     0.280 HD
HETATM    3  C   UNL     1      42.636 -15.396   2.013  1.00  0.00     0.267 C 
HETATM    4  C   UNL     1      41.588 -15.170   0.869  1.00  0.00     0.067 C 
HETATM    5  N   UNL     1      41.754 -13.802   0.185  1.00  0.00    -0.300 N 
HETATM    6  C   UNL     1      40.791 -13.604  -0.947  1.00  0.00     0.136 C 
HETATM    7  C   UNL     1      41.034 -14.657  -2.021  1.00  0.00     0.021 C 
HETATM    8  C   UNL     1      40.936 -16.067  -1.460  1.00  0.00     0.004 C 
HETATM    9  C   UNL     1      41.846 -16.231  -0.245  1.00  0.00     0.033 C 
HETATM   10  C   UNL     1      40.185 -15.327   1.510  1.00  0.00     0.035 C 
HETATM   11  C   UNL     1      40.015 -16.645   2.274  1.00  0.00     0.030 C 
HETATM   12  C   UNL     1      41.094 -16.866   3.324  1.00  0.00     0.235 C 
ENDROOT
BRANCH   5  13
HETATM   13  S   UNL     1      42.005 -12.426   1.169  1.00  0.00     0.225 S 
HETATM   14  C   UNL     1      40.365 -11.802   1.498  1.00  0.00     0.186 C 
HETATM   15  O   UNL     1      42.607 -12.894   2.395  1.00  0.00    -0.206 OA
HETATM   16  O   UNL     1      42.682 -11.447   0.343  1.00  0.00    -0.206 OA
ENDBRANCH   5  13
BRANCH   1  17
HETATM   17  C   UNL     1      43.569 -17.018   3.686  1.00  0.00     0.299 C 
BRANCH  17  18
HETATM   18  C   UNL     1      43.939 -18.455   3.717  1.00  0.00     0.079 A 
HETATM   19  O   UNL     1      43.665 -19.168   2.583  1.00  0.00    -0.318 OA
HETATM   20  C   UNL     1      44.093 -20.444   2.803  1.00  0.00     0.049 A 
HETATM   21  C   UNL     1      43.914 -21.410   1.699  1.00  0.00     0.076 C 
HETATM   22  C   UNL     1      44.634 -20.550   4.066  1.00  0.00     0.035 A 
HETATM   23  C   UNL     1      44.533 -19.267   4.657  1.00  0.00     0.037 A 
ENDBRANCH  17  18
ENDBRANCH   1  17
TORSDOF 3
ENDMDL
MODEL 8
REMARK VINA RESULT:      -6.6      2.488      7.271
REMARK  3 active torsions:
REMARK  status: ('A' for Active; 'I' for Inactive)
REMARK    1  A    between atoms: C_4  and  C_5 
REMARK    2  A    between atoms: C_5  and  N_6 
REMARK    3  A    between atoms: N_10  and  S_11 
ROOT
HETATM    1  N   UNL     1      41.901 -14.537   5.168  1.00  0.00    -0.063 N 
HETATM    2  H   UNL     1      42.477 -14.337   5.997  1.00  0.00     0.280 HD
HETATM    3  C   UNL     1      42.693 -15.452   4.243  1.00  0.00     0.267 C 
HETATM    4  C   UNL     1      43.047 -16.816   4.932  1.00  0.00     0.067 C 
HETATM    5  N   UNL     1      43.831 -17.756   4.000  1.00  0.00    -0.300 N 
HETATM    6  C   UNL     1      44.221 -19.038   4.673  1.00  0.00     0.136 C 
HETATM    7  C   UNL     1      45.133 -18.743   5.857  1.00  0.00     0.021 C 
HETATM    8  C   UNL     1      44.484 -17.784   6.843  1.00  0.00     0.004 C 
HETATM    9  C   UNL     1      43.999 -16.523   6.133  1.00  0.00     0.033 C 
HETATM   10  C   UNL     1      41.707 -17.445   5.392  1.00  0.00     0.035 C 
HETATM   11  C   UNL     1      40.861 -16.501   6.253  1.00  0.00     0.030 C 
HETATM   12  C   UNL     1      40.602 -15.159   5.583  1.00  0.00     0.235 C 
ENDROOT
BRANCH   5  13
HETATM   13  S   UNL     1      43.306 -17.919   2.381  1.00  0.00     0.225 S 
HETATM   14  C   UNL     1      43.661 -19.618   1.961  1.00  0.00     0.186 C 
HETATM   15  O   UNL     1      41.879 -17.702   2.381  1.00  0.00    -0.206 OA
HETATM   16  O   UNL     1      44.178 -17.086   1.579  1.00  0.00    -0.206 OA
ENDBRANCH   5  13
BRANCH   1  17
HETATM   17  C   UNL     1      41.709 -13.163   4.549  1.00  0.00     0.299 C 
BRANCH  17  18
HETATM   18  C   UNL     1      41.193 -12.181   5.535  1.00  0.00     0.079 A 
HETATM   19  O   UNL     1      42.019 -11.900   6.588  1.00  0.00    -0.318 OA
HETATM   20  C   UNL     1      41.381 -10.973   7.357  1.00  0.00     0.049 A 
HETATM   21  C   UNL     1      42.093 -10.497   8.561  1.00  0.00     0.076 C 
HETATM   22  C   UNL     1      40.156 -10.665   6.806  1.00  0.00     0.035 A 
HETATM   23  C   UNL     1      40.033 -11.445   5.631  1.00  0.00     0.037 A 
ENDBRANCH  17  18
ENDBRANCH   1  17
TORSDOF 3
ENDMDL
MODEL 9
REMARK VINA RESULT:      -6.6      3.314      6.086
REMARK  3 active torsions:
REMARK  status: ('A' for Active; 'I' for Inactive)
REMARK    1  A    between atoms: C_4  and  C_5 
REMARK    2  A    between atoms: C_5  and  N_6 
REMARK    3  A    between atoms: N_10  and  S_11 
ROOT
HETATM    1  N   UNL     1      42.303 -14.892   5.440  1.00  0.00    -0.063 N 
HETATM    2  H   UNL     1      43.172 -15.342   5.759  1.00  0.00     0.280 HD
HETATM    3  C   UNL     1      42.292 -14.895   3.917  1.00  0.00     0.267 C 
HETATM    4  C   UNL     1      42.330 -16.349   3.334  1.00  0.00     0.067 C 
HETATM    5  N   UNL     1      42.300 -16.365   1.796  1.00  0.00    -0.300 N 
HETATM    6  C   UNL     1      42.394 -17.750   1.233  1.00  0.00     0.136 C 
HETATM    7  C   UNL     1      43.715 -18.387   1.645  1.00  0.00     0.021 C 
HETATM    8  C   UNL     1      43.887 -18.399   3.156  1.00  0.00     0.004 C 
HETATM    9  C   UNL     1      43.690 -16.999   3.734  1.00  0.00     0.033 C 
HETATM   10  C   UNL     1      41.122 -17.107   3.942  1.00  0.00     0.035 C 
HETATM   11  C   UNL     1      41.075 -17.039   5.473  1.00  0.00     0.030 C 
HETATM   12  C   UNL     1      41.115 -15.614   6.004  1.00  0.00     0.235 C 
ENDROOT
BRANCH   5  13
HETATM   13  S   UNL     1      41.198 -15.331   0.995  1.00  0.00     0.225 S 
HETATM   14  C   UNL     1      41.218 -15.880  -0.705  1.00  0.00     0.186 C 
HETATM   15  O   UNL     1      39.898 -15.577   1.573  1.00  0.00    -0.206 OA
HETATM   16  O   UNL     1      41.780 -14.005   1.026  1.00  0.00    -0.206 OA
ENDBRANCH   5  13
BRANCH   1  17
HETATM   17  C   UNL     1      42.431 -13.481   5.987  1.00  0.00     0.299 C 
BRANCH  17  18
HETATM   18  C   UNL     1      43.681 -13.303   6.768  1.00  0.00     0.079 A 
HETATM   19  O   UNL     1      43.626 -12.391   7.785  1.00  0.00    -0.318 OA
HETATM   20  C   UNL     1      44.850 -12.392   8.385  1.00  0.00     0.049 A 
HETATM   21  C   UNL     1      45.032 -11.483   9.537  1.00  0.00     0.076 C 
HETATM   22  C   UNL     1      45.683 -13.291   7.758  1.00  0.00     0.035 A 
HETATM   23  C   UNL     1      44.930 -13.879   6.713  1.00  0.00     0.037 A 
ENDBRANCH  17  18
ENDBRANCH   1  17
TORSDOF 3
ENDMDL
MODEL 10
REMARK VINA RESULT:      -6.5      2.888      6.131
REMARK  3 active torsions:
REMARK  status: ('A' for Active; 'I' for Inactive)
REMARK    1  A    between atoms: C_4  and  C_5 
REMARK    2  A    between atoms: C_5  and  N_6 
REMARK    3  A    between atoms: N_10  and  S_11 
ROOT
HETATM    1  N   UNL     1      41.100 -15.843   1.378  1.00  0.00    -0.063 N 
HETATM    2  H   UNL     1      40.513 -16.657   1.605  1.00  0.00     0.280 HD
HETATM    3  C   UNL     1      41.532 -15.184   2.682  1.00  0.00     0.267 C 
HETATM    4  C   UNL     1      42.373 -16.157   3.579  1.00  0.00     0.067 C 
HETATM    5  N   UNL     1      42.831 -15.496   4.890  1.00  0.00    -0.300 N 
HETATM    6  C   UNL     1      43.587 -16.440   5.776  1.00  0.00     0.136 C 
HETATM    7  C   UNL     1      42.691 -17.607   6.170  1.00  0.00     0.021 C 
HETATM    8  C   UNL     1      42.136 -18.329   4.952  1.00  0.00     0.004 C 
HETATM    9  C   UNL     1      41.455 -17.344   4.004  1.00  0.00     0.033 C 
HETATM   10  C   UNL     1      43.575 -16.630   2.720  1.00  0.00     0.035 C 
HETATM   11  C   UNL     1      43.157 -17.217   1.367  1.00  0.00     0.030 C 
HETATM   12  C   UNL     1      42.279 -16.274   0.557  1.00  0.00     0.235 C 
ENDROOT
BRANCH   5  13
HETATM   13  S   UNL     1      43.460 -13.908   4.823  1.00  0.00     0.225 S 
HETATM   14  C   UNL     1      44.577 -13.805   6.212  1.00  0.00     0.186 C 
HETATM   15  O   UNL     1      44.202 -13.804   3.589  1.00  0.00    -0.206 OA
HETATM   16  O   UNL     1      42.351 -13.015   5.094  1.00  0.00    -0.206 OA
ENDBRANCH   5  13
BRANCH   1  17
HETATM   17  C   UNL     1      40.153 -14.948   0.598  1.00  0.00     0.299 C 
BRANCH  17  18
HETATM   18  C   UNL     1      40.738 -14.522  -0.698  1.00  0.00     0.079 A 
HETATM   19  O   UNL     1      41.517 -13.398  -0.661  1.00  0.00    -0.318 OA
HETATM   20  C   UNL     1      41.972 -13.189  -1.929  1.00  0.00     0.049 A 
HETATM   21  C   UNL     1      42.857 -12.024  -2.140  1.00  0.00     0.076 C 
HETATM   22  C   UNL     1      41.488 -14.165  -2.772  1.00  0.00     0.035 A 
HETATM   23  C   UNL     1      40.690 -15.025  -1.979  1.00  0.00     0.037 A 
ENDBRANCH  17  18
ENDBRANCH   1  17
TORSDOF 3
ENDMDL
