MODEL 1
REMARK VINA RESULT:      -8.4      0.000      0.000
REMARK  9 active torsions:
REMARK  status: ('A' for Active; 'I' for Inactive)
REMARK    1  A    between atoms: C_2  and  C_3 
REMARK    2  A    between atoms: C_3  and  O_4 
REMARK    3  A    between atoms: O_4  and  C_5 
REMARK    4  A    between atoms: C_8  and  C_9 
REMARK    5  A    between atoms: C_13  and  C_14 
REMARK       I    between atoms: C_14  and  N_15 
REMARK    6  A    between atoms: N_15  and  N_16 
REMARK    7  A    between atoms: C_17  and  C_18 
REMARK    8  A    between atoms: C_21  and  C_22 
REMARK    9  A    between atoms: C_22  and  O_23 
ROOT
HETATM    1  C   UNL     1      44.199 -10.674  10.445  1.00  0.00     0.089 A 
HETATM    2  N   UNL     1      45.466 -10.300  10.209  1.00  0.00    -0.174 NA
HETATM    3  N   UNL     1      45.905 -11.160   9.278  1.00  0.00    -0.272 N 
HETATM    4  H   UNL     1      46.856 -11.071   8.931  1.00  0.00     0.189 HD
HETATM    5  C   UNL     1      44.968 -12.068   8.867  1.00  0.00     0.121 A 
HETATM    6  C   UNL     1      43.854 -11.792   9.634  1.00  0.00     0.071 A 
ENDROOT
BRANCH   5   7
HETATM    7  C   UNL     1      45.259 -13.015   7.818  1.00  0.00     0.289 C 
HETATM    8  N   UNL     1      44.353 -14.061   7.719  1.00  0.00    -0.242 N 
HETATM    9  H   UNL     1      43.566 -14.116   8.351  1.00  0.00     0.192 HD
HETATM   10  O   UNL     1      46.228 -12.865   7.079  1.00  0.00    -0.264 OA
BRANCH   8  11
HETATM   11  N   UNL     1      44.431 -14.940   6.677  1.00  0.00    -0.184 NA
HETATM   12  C   UNL     1      43.976 -16.128   6.911  1.00  0.00     0.150 C 
BRANCH  12  13
HETATM   13  C   UNL     1      43.945 -17.167   5.862  1.00  0.00    -0.017 A 
HETATM   14  C   UNL     1      44.512 -18.425   6.083  1.00  0.00     0.014 A 
HETATM   15  C   UNL     1      44.504 -19.380   5.064  1.00  0.00     0.018 A 
HETATM   16  C   UNL     1      43.932 -19.084   3.818  1.00  0.00     0.039 A 
HETATM   17  C   UNL     1      43.356 -17.822   3.609  1.00  0.00     0.018 A 
HETATM   18  C   UNL     1      43.364 -16.864   4.628  1.00  0.00     0.014 A 
BRANCH  16  19
HETATM   19  C   UNL     1      43.968 -20.132   2.761  1.00  0.00     0.292 C 
HETATM   20  O   UNL     1      43.170 -20.187   1.838  1.00  0.00    -0.259 OA
BRANCH  19  21
HETATM   21  O   UNL     1      44.988 -21.000   2.982  1.00  0.00    -0.323 OA
HETATM   22  C   UNL     1      44.672 -22.356   2.664  1.00  0.00     0.213 C 
ENDBRANCH  19  21
ENDBRANCH  16  19
ENDBRANCH  12  13
ENDBRANCH   8  11
ENDBRANCH   5   7
BRANCH   1  23
HETATM   23  C   UNL     1      43.344  -9.950  11.389  1.00  0.00    -0.005 A 
HETATM   24  C   UNL     1      42.195  -9.286  10.937  1.00  0.00     0.016 A 
HETATM   25  C   UNL     1      41.337  -8.638  11.835  1.00  0.00     0.037 A 
HETATM   26  C   UNL     1      41.619  -8.642  13.199  1.00  0.00     0.068 A 
HETATM   27  C   UNL     1      42.781  -9.273  13.653  1.00  0.00     0.037 A 
HETATM   28  C   UNL     1      43.635  -9.926  12.759  1.00  0.00     0.016 A 
BRANCH  26  29
HETATM   29  O   UNL     1      40.860  -8.066  14.178  1.00  0.00    -0.351 OA
BRANCH  29  30
HETATM   30  C   UNL     1      39.479  -7.859  13.880  1.00  0.00     0.175 C 
BRANCH  30  31
HETATM   31  C   UNL     1      38.814  -7.276  15.123  1.00  0.00     0.022 C 
HETATM   32  C   UNL     1      39.669  -7.464  16.363  1.00  0.00     0.007 C 
ENDBRANCH  30  31
ENDBRANCH  29  30
ENDBRANCH  26  29
ENDBRANCH   1  23
TORSDOF 9
ENDMDL
MODEL 2
REMARK VINA RESULT:      -7.6      9.212     13.087
REMARK  9 active torsions:
REMARK  status: ('A' for Active; 'I' for Inactive)
REMARK    1  A    between atoms: C_2  and  C_3 
REMARK    2  A    between atoms: C_3  and  O_4 
REMARK    3  A    between atoms: O_4  and  C_5 
REMARK    4  A    between atoms: C_8  and  C_9 
REMARK    5  A    between atoms: C_13  and  C_14 
REMARK       I    between atoms: C_14  and  N_15 
REMARK    6  A    between atoms: N_15  and  N_16 
REMARK    7  A    between atoms: C_17  and  C_18 
REMARK    8  A    between atoms: C_21  and  C_22 
REMARK    9  A    between atoms: C_22  and  O_23 
ROOT
HETATM    1  C   UNL     1      38.451 -13.327  -3.088  1.00  0.00     0.089 A 
HETATM    2  N   UNL     1      39.602 -12.841  -3.577  1.00  0.00    -0.174 NA
HETATM    3  N   UNL     1      40.536 -13.232  -2.698  1.00  0.00    -0.272 N 
HETATM    4  H   UNL     1      41.507 -12.981  -2.862  1.00  0.00     0.189 HD
HETATM    5  C   UNL     1      40.053 -13.985  -1.664  1.00  0.00     0.121 A 
HETATM    6  C   UNL     1      38.690 -14.037  -1.877  1.00  0.00     0.071 A 
ENDROOT
BRANCH   5   7
HETATM    7  C   UNL     1      40.939 -14.546  -0.672  1.00  0.00     0.289 C 
HETATM    8  N   UNL     1      40.847 -15.922  -0.529  1.00  0.00    -0.242 N 
HETATM    9  H   UNL     1      40.198 -16.452  -1.095  1.00  0.00     0.192 HD
HETATM   10  O   UNL     1      41.714 -13.833  -0.040  1.00  0.00    -0.264 OA
BRANCH   8  11
HETATM   11  N   UNL     1      41.733 -16.590   0.267  1.00  0.00    -0.184 NA
HETATM   12  C   UNL     1      41.292 -16.928   1.435  1.00  0.00     0.150 C 
BRANCH  12  13
HETATM   13  C   UNL     1      42.120 -17.704   2.380  1.00  0.00    -0.017 A 
HETATM   14  C   UNL     1      41.877 -17.648   3.755  1.00  0.00     0.014 A 
HETATM   15  C   UNL     1      42.696 -18.360   4.636  1.00  0.00     0.018 A 
HETATM   16  C   UNL     1      43.762 -19.130   4.148  1.00  0.00     0.039 A 
HETATM   17  C   UNL     1      43.992 -19.188   2.765  1.00  0.00     0.018 A 
HETATM   18  C   UNL     1      43.173 -18.475   1.882  1.00  0.00     0.014 A 
BRANCH  16  19
HETATM   19  C   UNL     1      44.615 -19.854   5.131  1.00  0.00     0.292 C 
HETATM   20  O   UNL     1      44.716 -19.530   6.304  1.00  0.00    -0.259 OA
BRANCH  19  21
HETATM   21  O   UNL     1      45.253 -20.893   4.536  1.00  0.00    -0.323 OA
HETATM   22  C   UNL     1      44.986 -22.159   5.142  1.00  0.00     0.213 C 
ENDBRANCH  19  21
ENDBRANCH  16  19
ENDBRANCH  12  13
ENDBRANCH   8  11
ENDBRANCH   5   7
BRANCH   1  23
HETATM   23  C   UNL     1      37.177 -13.146  -3.787  1.00  0.00    -0.005 A 
HETATM   24  C   UNL     1      36.518 -14.246  -4.354  1.00  0.00     0.016 A 
HETATM   25  C   UNL     1      35.272 -14.098  -4.977  1.00  0.00     0.037 A 
HETATM   26  C   UNL     1      34.668 -12.844  -5.043  1.00  0.00     0.068 A 
HETATM   27  C   UNL     1      35.334 -11.738  -4.509  1.00  0.00     0.037 A 
HETATM   28  C   UNL     1      36.576 -11.885  -3.882  1.00  0.00     0.016 A 
BRANCH  26  29
HETATM   29  O   UNL     1      33.453 -12.567  -5.603  1.00  0.00    -0.351 OA
BRANCH  29  30
HETATM   30  C   UNL     1      32.617 -11.646  -4.900  1.00  0.00     0.175 C 
BRANCH  30  31
HETATM   31  C   UNL     1      31.923 -12.409  -3.776  1.00  0.00     0.022 C 
HETATM   32  C   UNL     1      31.938 -11.632  -2.472  1.00  0.00     0.007 C 
ENDBRANCH  30  31
ENDBRANCH  29  30
ENDBRANCH  26  29
ENDBRANCH   1  23
TORSDOF 9
ENDMDL
MODEL 3
REMARK VINA RESULT:      -7.6      8.928     13.724
REMARK  9 active torsions:
REMARK  status: ('A' for Active; 'I' for Inactive)
REMARK    1  A    between atoms: C_2  and  C_3 
REMARK    2  A    between atoms: C_3  and  O_4 
REMARK    3  A    between atoms: O_4  and  C_5 
REMARK    4  A    between atoms: C_8  and  C_9 
REMARK    5  A    between atoms: C_13  and  C_14 
REMARK       I    between atoms: C_14  and  N_15 
REMARK    6  A    between atoms: N_15  and  N_16 
REMARK    7  A    between atoms: C_17  and  C_18 
REMARK    8  A    between atoms: C_21  and  C_22 
REMARK    9  A    between atoms: C_22  and  O_23 
ROOT
HETATM    1  C   UNL     1      41.195 -16.530   2.594  1.00  0.00     0.089 A 
HETATM    2  N   UNL     1      40.591 -15.903   3.615  1.00  0.00    -0.174 NA
HETATM    3  N   UNL     1      39.720 -15.068   3.033  1.00  0.00    -0.272 N 
HETATM    4  H   UNL     1      39.133 -14.478   3.617  1.00  0.00     0.189 HD
HETATM    5  C   UNL     1      39.700 -15.139   1.667  1.00  0.00     0.121 A 
HETATM    6  C   UNL     1      40.675 -16.065   1.353  1.00  0.00     0.071 A 
ENDROOT
BRANCH   5   7
HETATM    7  C   UNL     1      38.767 -14.358   0.893  1.00  0.00     0.289 C 
HETATM    8  N   UNL     1      38.985 -14.390  -0.476  1.00  0.00    -0.242 N 
HETATM    9  H   UNL     1      39.748 -14.931  -0.859  1.00  0.00     0.192 HD
HETATM   10  O   UNL     1      37.852 -13.743   1.435  1.00  0.00    -0.264 OA
BRANCH   8  11
HETATM   11  N   UNL     1      38.086 -13.815  -1.328  1.00  0.00    -0.184 NA
HETATM   12  C   UNL     1      38.276 -14.050  -2.586  1.00  0.00     0.150 C 
BRANCH  12  13
HETATM   13  C   UNL     1      37.351 -13.540  -3.618  1.00  0.00    -0.017 A 
HETATM   14  C   UNL     1      37.273 -12.173  -3.895  1.00  0.00     0.014 A 
HETATM   15  C   UNL     1      36.364 -11.708  -4.850  1.00  0.00     0.018 A 
HETATM   16  C   UNL     1      35.529 -12.605  -5.531  1.00  0.00     0.039 A 
HETATM   17  C   UNL     1      35.622 -13.977  -5.253  1.00  0.00     0.018 A 
HETATM   18  C   UNL     1      36.531 -14.444  -4.297  1.00  0.00     0.014 A 
BRANCH  16  19
HETATM   19  C   UNL     1      34.566 -12.054  -6.524  1.00  0.00     0.292 C 
HETATM   20  O   UNL     1      34.895 -11.344  -7.461  1.00  0.00    -0.259 OA
BRANCH  19  21
HETATM   21  O   UNL     1      33.300 -12.443  -6.229  1.00  0.00    -0.323 OA
HETATM   22  C   UNL     1      32.445 -11.372  -5.824  1.00  0.00     0.213 C 
ENDBRANCH  19  21
ENDBRANCH  16  19
ENDBRANCH  12  13
ENDBRANCH   8  11
ENDBRANCH   5   7
BRANCH   1  23
HETATM   23  C   UNL     1      42.206 -17.568   2.813  1.00  0.00    -0.005 A 
HETATM   24  C   UNL     1      42.646 -17.863   4.111  1.00  0.00     0.016 A 
HETATM   25  C   UNL     1      43.569 -18.891   4.342  1.00  0.00     0.037 A 
HETATM   26  C   UNL     1      44.068 -19.636   3.275  1.00  0.00     0.068 A 
HETATM   27  C   UNL     1      43.659 -19.325   1.977  1.00  0.00     0.037 A 
HETATM   28  C   UNL     1      42.732 -18.303   1.745  1.00  0.00     0.016 A 
BRANCH  26  29
HETATM   29  O   UNL     1      44.955 -20.672   3.365  1.00  0.00    -0.351 OA
BRANCH  29  30
HETATM   30  C   UNL     1      44.517 -21.936   2.866  1.00  0.00     0.175 C 
BRANCH  30  31
HETATM   31  C   UNL     1      44.694 -22.965   3.979  1.00  0.00     0.022 C 
HETATM   32  C   UNL     1      45.012 -22.309   5.310  1.00  0.00     0.007 C 
ENDBRANCH  30  31
ENDBRANCH  29  30
ENDBRANCH  26  29
ENDBRANCH   1  23
TORSDOF 9
ENDMDL
MODEL 4
REMARK VINA RESULT:      -7.2      9.186     13.810
REMARK  9 active torsions:
REMARK  status: ('A' for Active; 'I' for Inactive)
REMARK    1  A    between atoms: C_2  and  C_3 
REMARK    2  A    between atoms: C_3  and  O_4 
REMARK    3  A    between atoms: O_4  and  C_5 
REMARK    4  A    between atoms: C_8  and  C_9 
REMARK    5  A    between atoms: C_13  and  C_14 
REMARK       I    between atoms: C_14  and  N_15 
REMARK    6  A    between atoms: N_15  and  N_16 
REMARK    7  A    between atoms: C_17  and  C_18 
REMARK    8  A    between atoms: C_21  and  C_22 
REMARK    9  A    between atoms: C_22  and  O_23 
ROOT
HETATM    1  C   UNL     1      38.268 -13.304  -2.987  1.00  0.00     0.089 A 
HETATM    2  N   UNL     1      39.468 -12.898  -3.428  1.00  0.00    -0.174 NA
HETATM    3  N   UNL     1      40.319 -13.226  -2.445  1.00  0.00    -0.272 N 
HETATM    4  H   UNL     1      41.307 -13.016  -2.555  1.00  0.00     0.189 HD
HETATM    5  C   UNL     1      39.734 -13.862  -1.385  1.00  0.00     0.121 A 
HETATM    6  C   UNL     1      38.390 -13.899  -1.700  1.00  0.00     0.071 A 
ENDROOT
BRANCH   5   7
HETATM    7  C   UNL     1      40.522 -14.346  -0.278  1.00  0.00     0.289 C 
HETATM    8  N   UNL     1      39.872 -15.261   0.537  1.00  0.00    -0.242 N 
HETATM    9  H   UNL     1      38.921 -15.539   0.335  1.00  0.00     0.192 HD
HETATM   10  O   UNL     1      41.680 -13.972  -0.114  1.00  0.00    -0.264 OA
BRANCH   8  11
HETATM   11  N   UNL     1      40.555 -15.904   1.528  1.00  0.00    -0.184 NA
HETATM   12  C   UNL     1      41.274 -16.911   1.151  1.00  0.00     0.150 C 
BRANCH  12  13
HETATM   13  C   UNL     1      42.110 -17.667   2.104  1.00  0.00    -0.017 A 
HETATM   14  C   UNL     1      43.134 -18.504   1.651  1.00  0.00     0.014 A 
HETATM   15  C   UNL     1      43.888 -19.240   2.569  1.00  0.00     0.018 A 
HETATM   16  C   UNL     1      43.625 -19.144   3.942  1.00  0.00     0.039 A 
HETATM   17  C   UNL     1      42.602 -18.294   4.389  1.00  0.00     0.018 A 
HETATM   18  C   UNL     1      41.845 -17.558   3.471  1.00  0.00     0.014 A 
BRANCH  16  19
HETATM   19  C   UNL     1      44.447 -19.964   4.875  1.00  0.00     0.292 C 
HETATM   20  O   UNL     1      44.601 -19.692   6.056  1.00  0.00    -0.259 OA
BRANCH  19  21
HETATM   21  O   UNL     1      44.992 -21.024   4.226  1.00  0.00    -0.323 OA
HETATM   22  C   UNL     1      45.069 -22.210   5.019  1.00  0.00     0.213 C 
ENDBRANCH  19  21
ENDBRANCH  16  19
ENDBRANCH  12  13
ENDBRANCH   8  11
ENDBRANCH   5   7
BRANCH   1  23
HETATM   23  C   UNL     1      37.057 -13.159  -3.800  1.00  0.00    -0.005 A 
HETATM   24  C   UNL     1      36.529 -11.887  -4.061  1.00  0.00     0.016 A 
HETATM   25  C   UNL     1      35.406 -11.728  -4.882  1.00  0.00     0.037 A 
HETATM   26  C   UNL     1      34.793 -12.842  -5.452  1.00  0.00     0.068 A 
HETATM   27  C   UNL     1      35.294 -14.115  -5.169  1.00  0.00     0.037 A 
HETATM   28  C   UNL     1      36.419 -14.275  -4.354  1.00  0.00     0.016 A 
BRANCH  26  29
HETATM   29  O   UNL     1      33.707 -12.824  -6.282  1.00  0.00    -0.351 OA
BRANCH  29  30
HETATM   30  C   UNL     1      33.780 -11.958  -7.415  1.00  0.00     0.175 C 
BRANCH  30  31
HETATM   31  C   UNL     1      34.586 -12.670  -8.497  1.00  0.00     0.022 C 
HETATM   32  C   UNL     1      33.896 -13.935  -8.976  1.00  0.00     0.007 C 
ENDBRANCH  30  31
ENDBRANCH  29  30
ENDBRANCH  26  29
ENDBRANCH   1  23
TORSDOF 9
ENDMDL
MODEL 5
REMARK VINA RESULT:      -7.2      9.037     13.791
REMARK  9 active torsions:
REMARK  status: ('A' for Active; 'I' for Inactive)
REMARK    1  A    between atoms: C_2  and  C_3 
REMARK    2  A    between atoms: C_3  and  O_4 
REMARK    3  A    between atoms: O_4  and  C_5 
REMARK    4  A    between atoms: C_8  and  C_9 
REMARK    5  A    between atoms: C_13  and  C_14 
REMARK       I    between atoms: C_14  and  N_15 
REMARK    6  A    between atoms: N_15  and  N_16 
REMARK    7  A    between atoms: C_17  and  C_18 
REMARK    8  A    between atoms: C_21  and  C_22 
REMARK    9  A    between atoms: C_22  and  O_23 
ROOT
HETATM    1  C   UNL     1      41.595 -16.638   1.835  1.00  0.00     0.089 A 
HETATM    2  N   UNL     1      40.314 -16.561   2.224  1.00  0.00    -0.174 NA
HETATM    3  N   UNL     1      39.747 -15.709   1.358  1.00  0.00    -0.272 N 
HETATM    4  H   UNL     1      38.758 -15.493   1.451  1.00  0.00     0.189 HD
HETATM    5  C   UNL     1      40.595 -15.244   0.392  1.00  0.00     0.121 A 
HETATM    6  C   UNL     1      41.817 -15.811   0.697  1.00  0.00     0.071 A 
ENDROOT
BRANCH   5   7
HETATM    7  C   UNL     1      40.124 -14.375  -0.660  1.00  0.00     0.289 C 
HETATM    8  N   UNL     1      39.710 -15.033  -1.808  1.00  0.00    -0.242 N 
HETATM    9  H   UNL     1      39.752 -16.042  -1.862  1.00  0.00     0.192 HD
HETATM   10  O   UNL     1      40.086 -13.158  -0.506  1.00  0.00    -0.264 OA
BRANCH   8  11
HETATM   11  N   UNL     1      39.105 -14.339  -2.817  1.00  0.00    -0.184 NA
HETATM   12  C   UNL     1      37.815 -14.414  -2.853  1.00  0.00     0.150 C 
BRANCH  12  13
HETATM   13  C   UNL     1      37.023 -13.671  -3.853  1.00  0.00    -0.017 A 
HETATM   14  C   UNL     1      37.114 -12.279  -3.947  1.00  0.00     0.014 A 
HETATM   15  C   UNL     1      36.328 -11.592  -4.876  1.00  0.00     0.018 A 
HETATM   16  C   UNL     1      35.446 -12.290  -5.714  1.00  0.00     0.039 A 
HETATM   17  C   UNL     1      35.369 -13.688  -5.619  1.00  0.00     0.018 A 
HETATM   18  C   UNL     1      36.155 -14.377  -4.689  1.00  0.00     0.014 A 
BRANCH  16  19
HETATM   19  C   UNL     1      34.619 -11.507  -6.672  1.00  0.00     0.292 C 
HETATM   20  O   UNL     1      34.764 -11.553  -7.884  1.00  0.00    -0.259 OA
BRANCH  19  21
HETATM   21  O   UNL     1      33.711 -10.746  -6.010  1.00  0.00    -0.323 OA
HETATM   22  C   UNL     1      32.653 -11.497  -5.411  1.00  0.00     0.213 C 
ENDBRANCH  19  21
ENDBRANCH  16  19
ENDBRANCH  12  13
ENDBRANCH   8  11
ENDBRANCH   5   7
BRANCH   1  23
HETATM   23  C   UNL     1      42.558 -17.510   2.513  1.00  0.00    -0.005 A 
HETATM   24  C   UNL     1      42.909 -17.272   3.849  1.00  0.00     0.016 A 
HETATM   25  C   UNL     1      43.784 -18.129   4.528  1.00  0.00     0.037 A 
HETATM   26  C   UNL     1      44.322 -19.239   3.878  1.00  0.00     0.068 A 
HETATM   27  C   UNL     1      44.002 -19.463   2.536  1.00  0.00     0.037 A 
HETATM   28  C   UNL     1      43.124 -18.611   1.859  1.00  0.00     0.016 A 
BRANCH  26  29
HETATM   29  O   UNL     1      45.168 -20.159   4.428  1.00  0.00    -0.351 OA
BRANCH  29  30
HETATM   30  C   UNL     1      44.631 -20.990   5.457  1.00  0.00     0.175 C 
BRANCH  30  31
HETATM   31  C   UNL     1      45.023 -22.431   5.148  1.00  0.00     0.022 C 
HETATM   32  C   UNL     1      44.619 -22.838   3.742  1.00  0.00     0.007 C 
ENDBRANCH  30  31
ENDBRANCH  29  30
ENDBRANCH  26  29
ENDBRANCH   1  23
TORSDOF 9
ENDMDL
MODEL 6
REMARK VINA RESULT:      -7.1      9.112     13.801
REMARK  9 active torsions:
REMARK  status: ('A' for Active; 'I' for Inactive)
REMARK    1  A    between atoms: C_2  and  C_3 
REMARK    2  A    between atoms: C_3  and  O_4 
REMARK    3  A    between atoms: O_4  and  C_5 
REMARK    4  A    between atoms: C_8  and  C_9 
REMARK    5  A    between atoms: C_13  and  C_14 
REMARK       I    between atoms: C_14  and  N_15 
REMARK    6  A    between atoms: N_15  and  N_16 
REMARK    7  A    between atoms: C_17  and  C_18 
REMARK    8  A    between atoms: C_21  and  C_22 
REMARK    9  A    between atoms: C_22  and  O_23 
ROOT
HETATM    1  C   UNL     1      41.166 -16.475   2.240  1.00  0.00     0.089 A 
HETATM    2  N   UNL     1      40.112 -16.184   3.018  1.00  0.00    -0.174 NA
HETATM    3  N   UNL     1      39.445 -15.236   2.345  1.00  0.00    -0.272 N 
HETATM    4  H   UNL     1      38.591 -14.854   2.742  1.00  0.00     0.189 HD
HETATM    5  C   UNL     1      39.998 -14.911   1.137  1.00  0.00     0.121 A 
HETATM    6  C   UNL     1      41.140 -15.683   1.057  1.00  0.00     0.071 A 
ENDROOT
BRANCH   5   7
HETATM    7  C   UNL     1      39.361 -13.961   0.257  1.00  0.00     0.289 C 
HETATM    8  N   UNL     1      39.027 -14.466  -0.991  1.00  0.00    -0.242 N 
HETATM    9  H   UNL     1      39.230 -15.429  -1.223  1.00  0.00     0.192 HD
HETATM   10  O   UNL     1      39.131 -12.812   0.624  1.00  0.00    -0.264 OA
BRANCH   8  11
HETATM   11  N   UNL     1      38.288 -13.715  -1.860  1.00  0.00    -0.184 NA
HETATM   12  C   UNL     1      37.811 -14.348  -2.882  1.00  0.00     0.150 C 
BRANCH  12  13
HETATM   13  C   UNL     1      36.947 -13.678  -3.875  1.00  0.00    -0.017 A 
HETATM   14  C   UNL     1      36.147 -14.422  -4.745  1.00  0.00     0.014 A 
HETATM   15  C   UNL     1      35.366 -13.769  -5.703  1.00  0.00     0.018 A 
HETATM   16  C   UNL     1      35.381 -12.370  -5.796  1.00  0.00     0.039 A 
HETATM   17  C   UNL     1      36.180 -11.631  -4.910  1.00  0.00     0.018 A 
HETATM   18  C   UNL     1      36.963 -12.283  -3.952  1.00  0.00     0.014 A 
BRANCH  16  19
HETATM   19  C   UNL     1      34.545 -11.726  -6.846  1.00  0.00     0.292 C 
HETATM   20  O   UNL     1      34.930 -10.799  -7.541  1.00  0.00    -0.259 OA
BRANCH  19  21
HETATM   21  O   UNL     1      33.318 -12.304  -6.901  1.00  0.00    -0.323 OA
HETATM   22  C   UNL     1      32.303 -11.455  -7.440  1.00  0.00     0.213 C 
ENDBRANCH  19  21
ENDBRANCH  16  19
ENDBRANCH  12  13
ENDBRANCH   8  11
ENDBRANCH   5   7
BRANCH   1  23
HETATM   23  C   UNL     1      42.137 -17.507   2.610  1.00  0.00    -0.005 A 
HETATM   24  C   UNL     1      42.918 -18.129   1.625  1.00  0.00     0.016 A 
HETATM   25  C   UNL     1      43.890 -19.077   1.968  1.00  0.00     0.037 A 
HETATM   26  C   UNL     1      44.093 -19.419   3.304  1.00  0.00     0.068 A 
HETATM   27  C   UNL     1      43.296 -18.828   4.287  1.00  0.00     0.037 A 
HETATM   28  C   UNL     1      42.329 -17.877   3.947  1.00  0.00     0.016 A 
BRANCH  26  29
HETATM   29  O   UNL     1      45.016 -20.311   3.773  1.00  0.00    -0.351 OA
BRANCH  29  30
HETATM   30  C   UNL     1      44.887 -20.709   5.138  1.00  0.00     0.175 C 
BRANCH  30  31
HETATM   31  C   UNL     1      44.712 -22.224   5.170  1.00  0.00     0.022 C 
HETATM   32  C   UNL     1      44.570 -22.805   3.775  1.00  0.00     0.007 C 
ENDBRANCH  30  31
ENDBRANCH  29  30
ENDBRANCH  26  29
ENDBRANCH   1  23
TORSDOF 9
ENDMDL
MODEL 7
REMARK VINA RESULT:      -6.9      2.829      3.385
REMARK  9 active torsions:
REMARK  status: ('A' for Active; 'I' for Inactive)
REMARK    1  A    between atoms: C_2  and  C_3 
REMARK    2  A    between atoms: C_3  and  O_4 
REMARK    3  A    between atoms: O_4  and  C_5 
REMARK    4  A    between atoms: C_8  and  C_9 
REMARK    5  A    between atoms: C_13  and  C_14 
REMARK       I    between atoms: C_14  and  N_15 
REMARK    6  A    between atoms: N_15  and  N_16 
REMARK    7  A    between atoms: C_17  and  C_18 
REMARK    8  A    between atoms: C_21  and  C_22 
REMARK    9  A    between atoms: C_22  and  O_23 
ROOT
HETATM    1  C   UNL     1      40.109 -10.102   8.401  1.00  0.00     0.089 A 
HETATM    2  N   UNL     1      39.119  -9.935   7.511  1.00  0.00    -0.174 NA
HETATM    3  N   UNL     1      39.432 -10.757   6.499  1.00  0.00    -0.272 N 
HETATM    4  H   UNL     1      38.814 -10.808   5.693  1.00  0.00     0.189 HD
HETATM    5  C   UNL     1      40.572 -11.485   6.699  1.00  0.00     0.121 A 
HETATM    6  C   UNL     1      41.051 -11.055   7.920  1.00  0.00     0.071 A 
ENDROOT
BRANCH   5   7
HETATM    7  C   UNL     1      41.007 -12.469   5.737  1.00  0.00     0.289 C 
HETATM    8  N   UNL     1      41.465 -13.654   6.292  1.00  0.00    -0.242 N 
HETATM    9  H   UNL     1      41.476 -13.778   7.295  1.00  0.00     0.192 HD
HETATM   10  O   UNL     1      40.942 -12.248   4.531  1.00  0.00    -0.264 OA
BRANCH   8  11
HETATM   11  N   UNL     1      41.764 -14.718   5.489  1.00  0.00    -0.184 NA
HETATM   12  C   UNL     1      42.752 -15.455   5.880  1.00  0.00     0.150 C 
BRANCH  12  13
HETATM   13  C   UNL     1      43.153 -16.669   5.142  1.00  0.00    -0.017 A 
HETATM   14  C   UNL     1      43.448 -17.854   5.821  1.00  0.00     0.014 A 
HETATM   15  C   UNL     1      43.862 -18.981   5.106  1.00  0.00     0.018 A 
HETATM   16  C   UNL     1      43.983 -18.931   3.710  1.00  0.00     0.039 A 
HETATM   17  C   UNL     1      43.675 -17.739   3.036  1.00  0.00     0.018 A 
HETATM   18  C   UNL     1      43.262 -16.610   3.750  1.00  0.00     0.014 A 
BRANCH  16  19
HETATM   19  C   UNL     1      44.446 -20.155   3.000  1.00  0.00     0.292 C 
HETATM   20  O   UNL     1      45.456 -20.770   3.303  1.00  0.00    -0.259 OA
BRANCH  19  21
HETATM   21  O   UNL     1      43.602 -20.466   1.984  1.00  0.00    -0.323 OA
HETATM   22  C   UNL     1      43.729 -21.810   1.517  1.00  0.00     0.213 C 
ENDBRANCH  19  21
ENDBRANCH  16  19
ENDBRANCH  12  13
ENDBRANCH   8  11
ENDBRANCH   5   7
BRANCH   1  23
HETATM   23  C   UNL     1      40.119  -9.397   9.685  1.00  0.00    -0.005 A 
HETATM   24  C   UNL     1      39.063  -9.562  10.592  1.00  0.00     0.016 A 
HETATM   25  C   UNL     1      39.085  -8.940  11.846  1.00  0.00     0.037 A 
HETATM   26  C   UNL     1      40.167  -8.140  12.211  1.00  0.00     0.068 A 
HETATM   27  C   UNL     1      41.207  -7.944  11.300  1.00  0.00     0.037 A 
HETATM   28  C   UNL     1      41.189  -8.570  10.049  1.00  0.00     0.016 A 
BRANCH  26  29
HETATM   29  O   UNL     1      40.321  -7.494  13.405  1.00  0.00    -0.351 OA
BRANCH  29  30
HETATM   30  C   UNL     1      41.651  -7.392  13.913  1.00  0.00     0.175 C 
BRANCH  30  31
HETATM   31  C   UNL     1      41.837  -8.486  14.961  1.00  0.00     0.022 C 
HETATM   32  C   UNL     1      42.643  -9.654  14.423  1.00  0.00     0.007 C 
ENDBRANCH  30  31
ENDBRANCH  29  30
ENDBRANCH  26  29
ENDBRANCH   1  23
TORSDOF 9
ENDMDL
MODEL 8
REMARK VINA RESULT:      -6.8      8.842     12.721
REMARK  9 active torsions:
REMARK  status: ('A' for Active; 'I' for Inactive)
REMARK    1  A    between atoms: C_2  and  C_3 
REMARK    2  A    between atoms: C_3  and  O_4 
REMARK    3  A    between atoms: O_4  and  C_5 
REMARK    4  A    between atoms: C_8  and  C_9 
REMARK    5  A    between atoms: C_13  and  C_14 
REMARK       I    between atoms: C_14  and  N_15 
REMARK    6  A    between atoms: N_15  and  N_16 
REMARK    7  A    between atoms: C_17  and  C_18 
REMARK    8  A    between atoms: C_21  and  C_22 
REMARK    9  A    between atoms: C_22  and  O_23 
ROOT
HETATM    1  C   UNL     1      41.938 -16.692   1.811  1.00  0.00     0.089 A 
HETATM    2  N   UNL     1      42.701 -16.794   0.712  1.00  0.00    -0.174 NA
HETATM    3  N   UNL     1      42.095 -16.014  -0.195  1.00  0.00    -0.272 N 
HETATM    4  H   UNL     1      42.500 -15.927  -1.123  1.00  0.00     0.189 HD
HETATM    5  C   UNL     1      40.979 -15.375   0.271  1.00  0.00     0.121 A 
HETATM    6  C   UNL     1      40.836 -15.824   1.568  1.00  0.00     0.071 A 
ENDROOT
BRANCH   5   7
HETATM    7  C   UNL     1      40.253 -14.443  -0.558  1.00  0.00     0.289 C 
HETATM    8  N   UNL     1      40.095 -14.845  -1.876  1.00  0.00    -0.242 N 
HETATM    9  H   UNL     1      40.473 -15.730  -2.188  1.00  0.00     0.192 HD
HETATM   10  O   UNL     1      39.809 -13.396  -0.095  1.00  0.00    -0.264 OA
BRANCH   8  11
HETATM   11  N   UNL     1      39.302 -14.126  -2.723  1.00  0.00    -0.184 NA
HETATM   12  C   UNL     1      38.099 -14.572  -2.879  1.00  0.00     0.150 C 
BRANCH  12  13
HETATM   13  C   UNL     1      37.113 -13.866  -3.721  1.00  0.00    -0.017 A 
HETATM   14  C   UNL     1      36.932 -12.485  -3.605  1.00  0.00     0.014 A 
HETATM   15  C   UNL     1      35.967 -11.841  -4.384  1.00  0.00     0.018 A 
HETATM   16  C   UNL     1      35.178 -12.573  -5.284  1.00  0.00     0.039 A 
HETATM   17  C   UNL     1      35.374 -13.957  -5.401  1.00  0.00     0.018 A 
HETATM   18  C   UNL     1      36.339 -14.603  -4.620  1.00  0.00     0.014 A 
BRANCH  16  19
HETATM   19  C   UNL     1      34.153 -11.841  -6.077  1.00  0.00     0.292 C 
HETATM   20  O   UNL     1      32.964 -12.122  -6.067  1.00  0.00    -0.259 OA
BRANCH  19  21
HETATM   21  O   UNL     1      34.727 -10.847  -6.801  1.00  0.00    -0.323 OA
HETATM   22  C   UNL     1      34.946 -11.183  -8.172  1.00  0.00     0.213 C 
ENDBRANCH  19  21
ENDBRANCH  16  19
ENDBRANCH  12  13
ENDBRANCH   8  11
ENDBRANCH   5   7
BRANCH   1  23
HETATM   23  C   UNL     1      42.285 -17.377   3.059  1.00  0.00    -0.005 A 
HETATM   24  C   UNL     1      43.567 -17.913   3.238  1.00  0.00     0.016 A 
HETATM   25  C   UNL     1      43.933 -18.520   4.446  1.00  0.00     0.037 A 
HETATM   26  C   UNL     1      43.017 -18.601   5.493  1.00  0.00     0.068 A 
HETATM   27  C   UNL     1      41.727 -18.098   5.310  1.00  0.00     0.037 A 
HETATM   28  C   UNL     1      41.362 -17.486   4.106  1.00  0.00     0.016 A 
BRANCH  26  29
HETATM   29  O   UNL     1      43.250 -19.149   6.723  1.00  0.00    -0.351 OA
BRANCH  29  30
HETATM   30  C   UNL     1      44.120 -18.425   7.594  1.00  0.00     0.175 C 
BRANCH  30  31
HETATM   31  C   UNL     1      43.344 -17.232   8.144  1.00  0.00     0.022 C 
HETATM   32  C   UNL     1      43.828 -15.921   7.552  1.00  0.00     0.007 C 
ENDBRANCH  30  31
ENDBRANCH  29  30
ENDBRANCH  26  29
ENDBRANCH   1  23
TORSDOF 9
ENDMDL
MODEL 9
REMARK VINA RESULT:      -6.8      5.042      6.052
REMARK  9 active torsions:
REMARK  status: ('A' for Active; 'I' for Inactive)
REMARK    1  A    between atoms: C_2  and  C_3 
REMARK    2  A    between atoms: C_3  and  O_4 
REMARK    3  A    between atoms: O_4  and  C_5 
REMARK    4  A    between atoms: C_8  and  C_9 
REMARK    5  A    between atoms: C_13  and  C_14 
REMARK       I    between atoms: C_14  and  N_15 
REMARK    6  A    between atoms: N_15  and  N_16 
REMARK    7  A    between atoms: C_17  and  C_18 
REMARK    8  A    between atoms: C_21  and  C_22 
REMARK    9  A    between atoms: C_22  and  O_23 
ROOT
HETATM    1  C   UNL     1      40.068 -11.145   8.257  1.00  0.00     0.089 A 
HETATM    2  N   UNL     1      39.054 -12.024   8.215  1.00  0.00    -0.174 NA
HETATM    3  N   UNL     1      39.262 -12.727   7.092  1.00  0.00    -0.272 N 
HETATM    4  H   UNL     1      38.612 -13.468   6.845  1.00  0.00     0.189 HD
HETATM    5  C   UNL     1      40.389 -12.369   6.406  1.00  0.00     0.121 A 
HETATM    6  C   UNL     1      40.918 -11.318   7.129  1.00  0.00     0.071 A 
ENDROOT
BRANCH   5   7
HETATM    7  C   UNL     1      40.794 -13.077   5.216  1.00  0.00     0.289 C 
HETATM    8  N   UNL     1      39.779 -13.790   4.596  1.00  0.00    -0.242 N 
HETATM    9  H   UNL     1      38.844 -13.786   4.981  1.00  0.00     0.192 HD
HETATM   10  O   UNL     1      41.949 -13.014   4.803  1.00  0.00    -0.264 OA
BRANCH   8  11
HETATM   11  N   UNL     1      39.995 -14.380   3.384  1.00  0.00    -0.184 NA
HETATM   12  C   UNL     1      39.708 -13.657   2.350  1.00  0.00     0.150 C 
BRANCH  12  13
HETATM   13  C   UNL     1      39.943 -14.143   0.976  1.00  0.00    -0.017 A 
HETATM   14  C   UNL     1      40.960 -15.064   0.707  1.00  0.00     0.014 A 
HETATM   15  C   UNL     1      41.190 -15.482  -0.607  1.00  0.00     0.018 A 
HETATM   16  C   UNL     1      40.407 -14.982  -1.658  1.00  0.00     0.039 A 
HETATM   17  C   UNL     1      39.383 -14.066  -1.376  1.00  0.00     0.018 A 
HETATM   18  C   UNL     1      39.152 -13.645  -0.062  1.00  0.00     0.014 A 
BRANCH  16  19
HETATM   19  C   UNL     1      40.706 -15.447  -3.040  1.00  0.00     0.292 C 
HETATM   20  O   UNL     1      41.542 -14.925  -3.761  1.00  0.00    -0.259 OA
BRANCH  19  21
HETATM   21  O   UNL     1      39.921 -16.503  -3.371  1.00  0.00    -0.323 OA
HETATM   22  C   UNL     1      38.879 -16.182  -4.295  1.00  0.00     0.213 C 
ENDBRANCH  19  21
ENDBRANCH  16  19
ENDBRANCH  12  13
ENDBRANCH   8  11
ENDBRANCH   5   7
BRANCH   1  23
HETATM   23  C   UNL     1      40.228 -10.203   9.368  1.00  0.00    -0.005 A 
HETATM   24  C   UNL     1      39.745 -10.525  10.643  1.00  0.00     0.016 A 
HETATM   25  C   UNL     1      39.940  -9.660  11.728  1.00  0.00     0.037 A 
HETATM   26  C   UNL     1      40.620  -8.457  11.549  1.00  0.00     0.068 A 
HETATM   27  C   UNL     1      41.075  -8.115  10.273  1.00  0.00     0.037 A 
HETATM   28  C   UNL     1      40.886  -8.980   9.191  1.00  0.00     0.016 A 
BRANCH  26  29
HETATM   29  O   UNL     1      40.893  -7.537  12.522  1.00  0.00    -0.351 OA
BRANCH  29  30
HETATM   30  C   UNL     1      42.265  -7.361  12.872  1.00  0.00     0.175 C 
BRANCH  30  31
HETATM   31  C   UNL     1      42.583  -8.322  14.014  1.00  0.00     0.022 C 
HETATM   32  C   UNL     1      43.354  -9.538  13.532  1.00  0.00     0.007 C 
ENDBRANCH  30  31
ENDBRANCH  29  30
ENDBRANCH  26  29
ENDBRANCH   1  23
TORSDOF 9
ENDMDL
MODEL 10
REMARK VINA RESULT:      -6.7      8.758     11.786
REMARK  9 active torsions:
REMARK  status: ('A' for Active; 'I' for Inactive)
REMARK    1  A    between atoms: C_2  and  C_3 
REMARK    2  A    between atoms: C_3  and  O_4 
REMARK    3  A    between atoms: O_4  and  C_5 
REMARK    4  A    between atoms: C_8  and  C_9 
REMARK    5  A    between atoms: C_13  and  C_14 
REMARK       I    between atoms: C_14  and  N_15 
REMARK    6  A    between atoms: N_15  and  N_16 
REMARK    7  A    between atoms: C_17  and  C_18 
REMARK    8  A    between atoms: C_21  and  C_22 
REMARK    9  A    between atoms: C_22  and  O_23 
ROOT
HETATM    1  C   UNL     1      42.518 -15.290   2.096  1.00  0.00     0.089 A 
HETATM    2  N   UNL     1      42.792 -16.394   1.383  1.00  0.00    -0.174 NA
HETATM    3  N   UNL     1      42.264 -16.156   0.174  1.00  0.00    -0.272 N 
HETATM    4  H   UNL     1      42.351 -16.862  -0.552  1.00  0.00     0.189 HD
HETATM    5  C   UNL     1      41.679 -14.926   0.049  1.00  0.00     0.121 A 
HETATM    6  C   UNL     1      41.805 -14.352   1.298  1.00  0.00     0.071 A 
ENDROOT
BRANCH   5   7
HETATM    7  C   UNL     1      41.129 -14.487  -1.211  1.00  0.00     0.289 C 
HETATM    8  N   UNL     1      39.969 -15.143  -1.593  1.00  0.00    -0.242 N 
HETATM    9  H   UNL     1      39.573 -15.865  -1.005  1.00  0.00     0.192 HD
HETATM   10  O   UNL     1      41.661 -13.588  -1.856  1.00  0.00    -0.264 OA
BRANCH   8  11
HETATM   11  N   UNL     1      39.269 -14.720  -2.686  1.00  0.00    -0.184 NA
HETATM   12  C   UNL     1      38.116 -14.188  -2.442  1.00  0.00     0.150 C 
BRANCH  12  13
HETATM   13  C   UNL     1      37.273 -13.636  -3.522  1.00  0.00    -0.017 A 
HETATM   14  C   UNL     1      36.551 -14.481  -4.369  1.00  0.00     0.014 A 
HETATM   15  C   UNL     1      35.790 -13.939  -5.408  1.00  0.00     0.018 A 
HETATM   16  C   UNL     1      35.746 -12.551  -5.607  1.00  0.00     0.039 A 
HETATM   17  C   UNL     1      36.467 -11.710  -4.745  1.00  0.00     0.018 A 
HETATM   18  C   UNL     1      37.230 -12.251  -3.705  1.00  0.00     0.014 A 
BRANCH  16  19
HETATM   19  C   UNL     1      34.934 -12.028  -6.740  1.00  0.00     0.292 C 
HETATM   20  O   UNL     1      35.113 -10.933  -7.249  1.00  0.00    -0.259 OA
BRANCH  19  21
HETATM   21  O   UNL     1      33.984 -12.927  -7.103  1.00  0.00    -0.323 OA
HETATM   22  C   UNL     1      33.653 -12.890  -8.492  1.00  0.00     0.213 C 
ENDBRANCH  19  21
ENDBRANCH  16  19
ENDBRANCH  12  13
ENDBRANCH   8  11
ENDBRANCH   5   7
BRANCH   1  23
HETATM   23  C   UNL     1      42.966 -15.135   3.482  1.00  0.00    -0.005 A 
HETATM   24  C   UNL     1      43.090 -16.255   4.315  1.00  0.00     0.016 A 
HETATM   25  C   UNL     1      43.571 -16.130   5.624  1.00  0.00     0.037 A 
HETATM   26  C   UNL     1      43.934 -14.879   6.120  1.00  0.00     0.068 A 
HETATM   27  C   UNL     1      43.781 -13.754   5.306  1.00  0.00     0.037 A 
HETATM   28  C   UNL     1      43.307 -13.878   3.997  1.00  0.00     0.016 A 
BRANCH  26  29
HETATM   29  O   UNL     1      44.431 -14.623   7.367  1.00  0.00    -0.351 OA
BRANCH  29  30
HETATM   30  C   UNL     1      45.255 -13.465   7.503  1.00  0.00     0.175 C 
BRANCH  30  31
HETATM   31  C   UNL     1      44.789 -12.702   8.739  1.00  0.00     0.022 C 
HETATM   32  C   UNL     1      45.766 -11.608   9.130  1.00  0.00     0.007 C 
ENDBRANCH  30  31
ENDBRANCH  29  30
ENDBRANCH  26  29
ENDBRANCH   1  23
TORSDOF 9
ENDMDL
