MODEL 1
REMARK VINA RESULT:      -9.6      0.000      0.000
REMARK  6 active torsions:
REMARK  status: ('A' for Active; 'I' for Inactive)
REMARK    1  A    between atoms: C_5  and  C_6 
REMARK    2  A    between atoms: C_12  and  C_13 
REMARK       I    between atoms: C_13  and  N_14 
REMARK    3  A    between atoms: N_14  and  C_15 
REMARK    4  A    between atoms: C_18  and  C_19 
REMARK    5  A    between atoms: C_19  and  O_20 
REMARK    6  A    between atoms: C_25  and  C_26 
ROOT
HETATM    1  C   UNL     1      43.530 -16.747   4.393  1.00  0.00     0.097 C 
HETATM    2  N   UNL     1      42.698 -15.867   3.541  1.00  0.00    -0.268 NA
HETATM    3  C   UNL     1      42.452 -14.600   3.993  1.00  0.00     0.118 A 
HETATM    4  N   UNL     1      42.644 -14.279   5.320  1.00  0.00    -0.245 N 
HETATM    5  N   UNL     1      42.270 -13.034   5.641  1.00  0.00    -0.182 NA
HETATM    6  C   UNL     1      41.895 -12.517   4.469  1.00  0.00     0.159 A 
HETATM    7  C   UNL     1      41.964 -13.449   3.400  1.00  0.00     0.091 A 
HETATM    8  C   UNL     1      43.040 -15.215   6.353  1.00  0.00     0.221 C 
HETATM    9  C   UNL     1      42.976 -16.664   5.828  1.00  0.00     0.061 C 
HETATM   10  H   UNL     1      41.888 -16.378   3.178  1.00  0.00     0.130 HD
ENDROOT
BRANCH   7  11
HETATM   11  C   UNL     1      41.571 -13.163   2.028  1.00  0.00     0.261 C 
HETATM   12  N   UNL     1      41.276 -14.280   1.270  1.00  0.00    -0.323 N 
HETATM   13  H   UNL     1      41.463 -15.170   1.719  1.00  0.00     0.169 HD
HETATM   14  O   UNL     1      41.497 -12.001   1.646  1.00  0.00    -0.267 OA
BRANCH  12  15
HETATM   15  C   UNL     1      40.673 -14.309  -0.006  1.00  0.00     0.035 A 
HETATM   16  C   UNL     1      39.384 -13.843  -0.268  1.00  0.00     0.030 A 
HETATM   17  C   UNL     1      38.814 -13.974  -1.540  1.00  0.00     0.012 A 
HETATM   18  C   UNL     1      39.518 -14.583  -2.585  1.00  0.00    -0.030 A 
HETATM   19  C   UNL     1      40.828 -15.017  -2.325  1.00  0.00     0.012 A 
HETATM   20  C   UNL     1      41.401 -14.878  -1.054  1.00  0.00     0.030 A 
BRANCH  18  21
HETATM   21  C   UNL     1      38.937 -14.794  -3.970  1.00  0.00     0.147 C 
HETATM   22  C   UNL     1      38.787 -16.241  -4.431  1.00  0.00     0.044 C 
BRANCH  21  23
HETATM   23  O   UNL     1      37.647 -14.183  -4.038  1.00  0.00    -0.391 OA
HETATM   24  H   UNL     1      37.346 -14.244  -4.961  1.00  0.00     0.210 HD
ENDBRANCH  21  23
ENDBRANCH  18  21
ENDBRANCH  12  15
ENDBRANCH   7  11
BRANCH   1  25
HETATM   25  C   UNL     1      43.627 -18.142   3.790  1.00  0.00    -0.040 A 
HETATM   26  C   UNL     1      43.046 -18.393   2.533  1.00  0.00     0.009 A 
HETATM   27  C   UNL     1      43.207 -19.623   1.888  1.00  0.00     0.007 A 
HETATM   28  C   UNL     1      43.966 -20.638   2.477  1.00  0.00    -0.062 A 
HETATM   29  C   UNL     1      44.211 -21.926   1.750  1.00  0.00     0.048 C 
HETATM   30  C   UNL     1      44.562 -20.397   3.718  1.00  0.00     0.007 A 
HETATM   31  C   UNL     1      44.390 -19.170   4.367  1.00  0.00     0.009 A 
ENDBRANCH   1  25
BRANCH   8  32
HETATM   32  C   UNL     1      44.417 -14.867   6.879  1.00  0.00     0.409 C 
HETATM   33  F   UNL     1      44.397 -14.315   8.110  1.00  0.00    -0.169 F 
HETATM   34  F   UNL     1      45.164 -15.999   6.981  1.00  0.00    -0.169 F 
HETATM   35  F   UNL     1      45.094 -14.035   6.059  1.00  0.00    -0.169 F 
ENDBRANCH   8  32
TORSDOF 6
ENDMDL
MODEL 2
REMARK VINA RESULT:      -9.1      2.522      2.699
REMARK  6 active torsions:
REMARK  status: ('A' for Active; 'I' for Inactive)
REMARK    1  A    between atoms: C_5  and  C_6 
REMARK    2  A    between atoms: C_12  and  C_13 
REMARK       I    between atoms: C_13  and  N_14 
REMARK    3  A    between atoms: N_14  and  C_15 
REMARK    4  A    between atoms: C_18  and  C_19 
REMARK    5  A    between atoms: C_19  and  O_20 
REMARK    6  A    between atoms: C_25  and  C_26 
ROOT
HETATM    1  C   UNL     1      43.459 -16.555   4.176  1.00  0.00     0.097 C 
HETATM    2  N   UNL     1      42.657 -15.677   3.293  1.00  0.00    -0.268 NA
HETATM    3  C   UNL     1      42.424 -14.398   3.717  1.00  0.00     0.118 A 
HETATM    4  N   UNL     1      42.599 -14.055   5.041  1.00  0.00    -0.245 N 
HETATM    5  N   UNL     1      42.240 -12.798   5.332  1.00  0.00    -0.182 NA
HETATM    6  C   UNL     1      41.894 -12.298   4.144  1.00  0.00     0.159 A 
HETATM    7  C   UNL     1      41.965 -13.251   3.094  1.00  0.00     0.091 A 
HETATM    8  C   UNL     1      42.962 -14.979   6.098  1.00  0.00     0.221 C 
HETATM    9  C   UNL     1      42.882 -16.435   5.599  1.00  0.00     0.061 C 
HETATM   10  H   UNL     1      41.844 -16.182   2.926  1.00  0.00     0.130 HD
ENDROOT
BRANCH   7  11
HETATM   11  C   UNL     1      41.600 -12.985   1.710  1.00  0.00     0.261 C 
HETATM   12  N   UNL     1      42.145 -11.829   1.185  1.00  0.00    -0.323 N 
HETATM   13  H   UNL     1      42.651 -11.249   1.844  1.00  0.00     0.169 HD
HETATM   14  O   UNL     1      40.888 -13.779   1.106  1.00  0.00    -0.267 OA
BRANCH  12  15
HETATM   15  C   UNL     1      42.144 -11.427  -0.168  1.00  0.00     0.035 A 
HETATM   16  C   UNL     1      41.581 -10.236  -0.626  1.00  0.00     0.030 A 
HETATM   17  C   UNL     1      41.541  -9.934  -1.993  1.00  0.00     0.012 A 
HETATM   18  C   UNL     1      42.061 -10.822  -2.941  1.00  0.00    -0.030 A 
HETATM   19  C   UNL     1      42.659 -12.003  -2.472  1.00  0.00     0.012 A 
HETATM   20  C   UNL     1      42.706 -12.300  -1.104  1.00  0.00     0.030 A 
BRANCH  18  21
HETATM   21  C   UNL     1      42.006 -10.571  -4.436  1.00  0.00     0.147 C 
HETATM   22  C   UNL     1      42.355  -9.161  -4.902  1.00  0.00     0.044 C 
BRANCH  21  23
HETATM   23  O   UNL     1      42.891 -11.475  -5.098  1.00  0.00    -0.391 OA
HETATM   24  H   UNL     1      42.355 -12.214  -5.433  1.00  0.00     0.210 HD
ENDBRANCH  21  23
ENDBRANCH  18  21
ENDBRANCH  12  15
ENDBRANCH   7  11
BRANCH   1  25
HETATM   25  C   UNL     1      43.542 -17.963   3.600  1.00  0.00    -0.040 A 
HETATM   26  C   UNL     1      42.984 -18.226   2.336  1.00  0.00     0.009 A 
HETATM   27  C   UNL     1      43.135 -19.471   1.718  1.00  0.00     0.007 A 
HETATM   28  C   UNL     1      43.863 -20.488   2.341  1.00  0.00    -0.062 A 
HETATM   29  C   UNL     1      44.099 -21.794   1.643  1.00  0.00     0.048 C 
HETATM   30  C   UNL     1      44.436 -20.235   3.590  1.00  0.00     0.007 A 
HETATM   31  C   UNL     1      44.274 -18.993   4.212  1.00  0.00     0.009 A 
ENDBRANCH   1  25
BRANCH   8  32
HETATM   32  C   UNL     1      44.335 -14.643   6.641  1.00  0.00     0.409 C 
HETATM   33  F   UNL     1      44.303 -14.052   7.853  1.00  0.00    -0.169 F 
HETATM   34  F   UNL     1      45.055 -15.787   6.795  1.00  0.00    -0.169 F 
HETATM   35  F   UNL     1      45.047 -13.853   5.809  1.00  0.00    -0.169 F 
ENDBRANCH   8  32
TORSDOF 6
ENDMDL
MODEL 3
REMARK VINA RESULT:      -9.0      1.790      2.425
REMARK  6 active torsions:
REMARK  status: ('A' for Active; 'I' for Inactive)
REMARK    1  A    between atoms: C_5  and  C_6 
REMARK    2  A    between atoms: C_12  and  C_13 
REMARK       I    between atoms: C_13  and  N_14 
REMARK    3  A    between atoms: N_14  and  C_15 
REMARK    4  A    between atoms: C_18  and  C_19 
REMARK    5  A    between atoms: C_19  and  O_20 
REMARK    6  A    between atoms: C_25  and  C_26 
ROOT
HETATM    1  C   UNL     1      43.185 -16.931   4.186  1.00  0.00     0.097 C 
HETATM    2  N   UNL     1      41.896 -16.499   3.598  1.00  0.00    -0.268 NA
HETATM    3  C   UNL     1      41.329 -15.357   4.093  1.00  0.00     0.118 A 
HETATM    4  N   UNL     1      41.729 -14.845   5.308  1.00  0.00    -0.245 N 
HETATM    5  N   UNL     1      41.022 -13.782   5.714  1.00  0.00    -0.182 NA
HETATM    6  C   UNL     1      40.191 -13.563   4.693  1.00  0.00     0.159 A 
HETATM    7  C   UNL     1      40.315 -14.523   3.655  1.00  0.00     0.091 A 
HETATM    8  C   UNL     1      42.698 -15.462   6.193  1.00  0.00     0.221 C 
HETATM    9  C   UNL     1      43.035 -16.890   5.719  1.00  0.00     0.061 C 
HETATM   10  H   UNL     1      41.267 -17.298   3.484  1.00  0.00     0.130 HD
ENDROOT
BRANCH   7  11
HETATM   11  C   UNL     1      39.501 -14.547   2.448  1.00  0.00     0.261 C 
HETATM   12  N   UNL     1      39.348 -13.320   1.834  1.00  0.00    -0.323 N 
HETATM   13  H   UNL     1      39.731 -12.530   2.341  1.00  0.00     0.169 HD
HETATM   14  O   UNL     1      39.042 -15.611   2.046  1.00  0.00    -0.267 OA
BRANCH  12  15
HETATM   15  C   UNL     1      38.801 -13.069   0.557  1.00  0.00     0.035 A 
HETATM   16  C   UNL     1      39.418 -13.436  -0.639  1.00  0.00     0.030 A 
HETATM   17  C   UNL     1      38.861 -13.086  -1.876  1.00  0.00     0.012 A 
HETATM   18  C   UNL     1      37.672 -12.351  -1.947  1.00  0.00    -0.030 A 
HETATM   19  C   UNL     1      37.037 -12.016  -0.740  1.00  0.00     0.012 A 
HETATM   20  C   UNL     1      37.590 -12.374   0.496  1.00  0.00     0.030 A 
BRANCH  18  21
HETATM   21  C   UNL     1      37.046 -11.905  -3.254  1.00  0.00     0.147 C 
HETATM   22  C   UNL     1      37.327 -10.468  -3.687  1.00  0.00     0.044 C 
BRANCH  21  23
HETATM   23  O   UNL     1      37.484 -12.765  -4.306  1.00  0.00    -0.391 OA
HETATM   24  H   UNL     1      37.850 -12.202  -5.009  1.00  0.00     0.210 HD
ENDBRANCH  21  23
ENDBRANCH  18  21
ENDBRANCH  12  15
ENDBRANCH   7  11
BRANCH   1  25
HETATM   25  C   UNL     1      43.626 -18.262   3.589  1.00  0.00    -0.040 A 
HETATM   26  C   UNL     1      44.343 -19.173   4.387  1.00  0.00     0.009 A 
HETATM   27  C   UNL     1      44.669 -20.450   3.920  1.00  0.00     0.007 A 
HETATM   28  C   UNL     1      44.275 -20.861   2.644  1.00  0.00    -0.062 A 
HETATM   29  C   UNL     1      44.548 -22.258   2.174  1.00  0.00     0.048 C 
HETATM   30  C   UNL     1      43.549 -19.972   1.847  1.00  0.00     0.007 A 
HETATM   31  C   UNL     1      43.234 -18.690   2.311  1.00  0.00     0.009 A 
ENDBRANCH   1  25
BRANCH   8  32
HETATM   32  C   UNL     1      43.936 -14.597   6.304  1.00  0.00     0.409 C 
HETATM   33  F   UNL     1      43.841 -13.645   7.255  1.00  0.00    -0.169 F 
HETATM   34  F   UNL     1      45.001 -15.371   6.645  1.00  0.00    -0.169 F 
HETATM   35  F   UNL     1      44.258 -13.995   5.139  1.00  0.00    -0.169 F 
ENDBRANCH   8  32
TORSDOF 6
ENDMDL
MODEL 4
REMARK VINA RESULT:      -8.9      4.276      7.756
REMARK  6 active torsions:
REMARK  status: ('A' for Active; 'I' for Inactive)
REMARK    1  A    between atoms: C_5  and  C_6 
REMARK    2  A    between atoms: C_12  and  C_13 
REMARK       I    between atoms: C_13  and  N_14 
REMARK    3  A    between atoms: N_14  and  C_15 
REMARK    4  A    between atoms: C_18  and  C_19 
REMARK    5  A    between atoms: C_19  and  O_20 
REMARK    6  A    between atoms: C_25  and  C_26 
ROOT
HETATM    1  C   UNL     1      42.750 -16.906   2.830  1.00  0.00     0.097 C 
HETATM    2  N   UNL     1      42.868 -15.753   3.752  1.00  0.00    -0.268 NA
HETATM    3  C   UNL     1      42.348 -14.557   3.337  1.00  0.00     0.118 A 
HETATM    4  N   UNL     1      42.070 -14.338   2.005  1.00  0.00    -0.245 N 
HETATM    5  N   UNL     1      41.660 -13.094   1.730  1.00  0.00    -0.182 NA
HETATM    6  C   UNL     1      41.605 -12.518   2.933  1.00  0.00     0.159 A 
HETATM    7  C   UNL     1      42.042 -13.371   3.980  1.00  0.00     0.091 A 
HETATM    8  C   UNL     1      42.346 -15.274   0.932  1.00  0.00     0.221 C 
HETATM    9  C   UNL     1      43.220 -16.439   1.439  1.00  0.00     0.061 C 
HETATM   10  H   UNL     1      43.804 -15.715   4.163  1.00  0.00     0.130 HD
ENDROOT
BRANCH   7  11
HETATM   11  C   UNL     1      42.127 -12.984   5.381  1.00  0.00     0.261 C 
HETATM   12  N   UNL     1      41.377 -11.873   5.716  1.00  0.00    -0.323 N 
HETATM   13  H   UNL     1      40.936 -11.396   4.937  1.00  0.00     0.169 HD
HETATM   14  O   UNL     1      42.803 -13.650   6.156  1.00  0.00    -0.267 OA
BRANCH  12  15
HETATM   15  C   UNL     1      41.096 -11.395   7.014  1.00  0.00     0.035 A 
HETATM   16  C   UNL     1      42.045 -10.803   7.848  1.00  0.00     0.030 A 
HETATM   17  C   UNL     1      41.721 -10.424   9.156  1.00  0.00     0.012 A 
HETATM   18  C   UNL     1      40.436 -10.635   9.669  1.00  0.00    -0.030 A 
HETATM   19  C   UNL     1      39.475 -11.199   8.813  1.00  0.00     0.012 A 
HETATM   20  C   UNL     1      39.798 -11.569   7.502  1.00  0.00     0.030 A 
BRANCH  18  21
HETATM   21  C   UNL     1      40.038 -10.287  11.090  1.00  0.00     0.147 C 
HETATM   22  C   UNL     1      38.840  -9.357  11.254  1.00  0.00     0.044 C 
BRANCH  21  23
HETATM   23  O   UNL     1      39.752 -11.489  11.807  1.00  0.00    -0.391 OA
HETATM   24  H   UNL     1      38.941 -11.868  11.426  1.00  0.00     0.210 HD
ENDBRANCH  21  23
ENDBRANCH  18  21
ENDBRANCH  12  15
ENDBRANCH   7  11
BRANCH   1  25
HETATM   25  C   UNL     1      43.458 -18.126   3.405  1.00  0.00    -0.040 A 
HETATM   26  C   UNL     1      43.492 -18.312   4.799  1.00  0.00     0.009 A 
HETATM   27  C   UNL     1      44.029 -19.472   5.366  1.00  0.00     0.007 A 
HETATM   28  C   UNL     1      44.537 -20.488   4.554  1.00  0.00    -0.062 A 
HETATM   29  C   UNL     1      45.035 -21.768   5.156  1.00  0.00     0.048 C 
HETATM   30  C   UNL     1      44.495 -20.324   3.167  1.00  0.00     0.007 A 
HETATM   31  C   UNL     1      43.968 -19.159   2.601  1.00  0.00     0.009 A 
ENDBRANCH   1  25
BRANCH   8  32
HETATM   32  C   UNL     1      41.053 -15.765   0.316  1.00  0.00     0.409 C 
HETATM   33  F   UNL     1      40.638 -15.017  -0.726  1.00  0.00    -0.169 F 
HETATM   34  F   UNL     1      41.229 -17.025  -0.166  1.00  0.00    -0.169 F 
HETATM   35  F   UNL     1      40.043 -15.836   1.210  1.00  0.00    -0.169 F 
ENDBRANCH   8  32
TORSDOF 6
ENDMDL
MODEL 5
REMARK VINA RESULT:      -8.9      4.111      8.228
REMARK  6 active torsions:
REMARK  status: ('A' for Active; 'I' for Inactive)
REMARK    1  A    between atoms: C_5  and  C_6 
REMARK    2  A    between atoms: C_12  and  C_13 
REMARK       I    between atoms: C_13  and  N_14 
REMARK    3  A    between atoms: N_14  and  C_15 
REMARK    4  A    between atoms: C_18  and  C_19 
REMARK    5  A    between atoms: C_19  and  O_20 
REMARK    6  A    between atoms: C_25  and  C_26 
ROOT
HETATM    1  C   UNL     1      43.068 -17.660   2.677  1.00  0.00     0.097 C 
HETATM    2  N   UNL     1      43.473 -16.711   3.739  1.00  0.00    -0.268 NA
HETATM    3  C   UNL     1      43.079 -15.408   3.603  1.00  0.00     0.118 A 
HETATM    4  N   UNL     1      42.659 -14.925   2.382  1.00  0.00    -0.245 N 
HETATM    5  N   UNL     1      42.399 -13.612   2.373  1.00  0.00    -0.182 NA
HETATM    6  C   UNL     1      42.589 -13.256   3.645  1.00  0.00     0.159 A 
HETATM    7  C   UNL     1      43.036 -14.326   4.464  1.00  0.00     0.091 A 
HETATM    8  C   UNL     1      42.651 -15.684   1.146  1.00  0.00     0.221 C 
HETATM    9  C   UNL     1      43.409 -17.015   1.321  1.00  0.00     0.061 C 
HETATM   10  H   UNL     1      44.452 -16.857   3.999  1.00  0.00     0.130 HD
ENDROOT
BRANCH   7  11
HETATM   11  C   UNL     1      43.363 -14.204   5.878  1.00  0.00     0.261 C 
HETATM   12  N   UNL     1      43.642 -12.917   6.294  1.00  0.00    -0.323 N 
HETATM   13  H   UNL     1      43.687 -12.223   5.557  1.00  0.00     0.169 HD
HETATM   14  O   UNL     1      43.344 -15.199   6.594  1.00  0.00    -0.267 OA
BRANCH  12  15
HETATM   15  C   UNL     1      43.782 -12.464   7.623  1.00  0.00     0.035 A 
HETATM   16  C   UNL     1      44.732 -12.956   8.518  1.00  0.00     0.030 A 
HETATM   17  C   UNL     1      44.765 -12.521   9.849  1.00  0.00     0.012 A 
HETATM   18  C   UNL     1      43.841 -11.584  10.323  1.00  0.00    -0.030 A 
HETATM   19  C   UNL     1      42.909 -11.065   9.409  1.00  0.00     0.012 A 
HETATM   20  C   UNL     1      42.882 -11.494   8.076  1.00  0.00     0.030 A 
BRANCH  18  21
HETATM   21  C   UNL     1      43.798 -11.110  11.762  1.00  0.00     0.147 C 
HETATM   22  C   UNL     1      43.418  -9.649  11.986  1.00  0.00     0.044 C 
BRANCH  21  23
HETATM   23  O   UNL     1      42.873 -11.913  12.496  1.00  0.00    -0.391 OA
HETATM   24  H   UNL     1      42.326 -12.391  11.849  1.00  0.00     0.210 HD
ENDBRANCH  21  23
ENDBRANCH  18  21
ENDBRANCH  12  15
ENDBRANCH   7  11
BRANCH   1  25
HETATM   25  C   UNL     1      43.665 -19.038   2.935  1.00  0.00    -0.040 A 
HETATM   26  C   UNL     1      44.191 -19.337   4.206  1.00  0.00     0.009 A 
HETATM   27  C   UNL     1      44.643 -20.621   4.523  1.00  0.00     0.007 A 
HETATM   28  C   UNL     1      44.571 -21.651   3.582  1.00  0.00    -0.062 A 
HETATM   29  C   UNL     1      44.977 -23.048   3.948  1.00  0.00     0.048 C 
HETATM   30  C   UNL     1      44.037 -21.373   2.322  1.00  0.00     0.007 A 
HETATM   31  C   UNL     1      43.595 -20.085   2.002  1.00  0.00     0.009 A 
ENDBRANCH   1  25
BRANCH   8  32
HETATM   32  C   UNL     1      41.230 -15.901   0.671  1.00  0.00     0.409 C 
HETATM   33  F   UNL     1      41.060 -17.058  -0.000  1.00  0.00    -0.169 F 
HETATM   34  F   UNL     1      40.396 -15.958   1.744  1.00  0.00    -0.169 F 
HETATM   35  F   UNL     1      40.781 -14.894  -0.109  1.00  0.00    -0.169 F 
ENDBRANCH   8  32
TORSDOF 6
ENDMDL
MODEL 6
REMARK VINA RESULT:      -8.5      4.691      8.716
REMARK  6 active torsions:
REMARK  status: ('A' for Active; 'I' for Inactive)
REMARK    1  A    between atoms: C_5  and  C_6 
REMARK    2  A    between atoms: C_12  and  C_13 
REMARK       I    between atoms: C_13  and  N_14 
REMARK    3  A    between atoms: N_14  and  C_15 
REMARK    4  A    between atoms: C_18  and  C_19 
REMARK    5  A    between atoms: C_19  and  O_20 
REMARK    6  A    between atoms: C_25  and  C_26 
ROOT
HETATM    1  C   UNL     1      41.704 -10.744   7.390  1.00  0.00     0.097 C 
HETATM    2  N   UNL     1      41.944 -12.161   7.034  1.00  0.00    -0.268 NA
HETATM    3  C   UNL     1      41.418 -12.614   5.856  1.00  0.00     0.118 A 
HETATM    4  N   UNL     1      40.415 -11.914   5.220  1.00  0.00    -0.245 N 
HETATM    5  N   UNL     1      39.928 -12.523   4.132  1.00  0.00    -0.182 NA
HETATM    6  C   UNL     1      40.691 -13.612   4.026  1.00  0.00     0.159 A 
HETATM    7  C   UNL     1      41.630 -13.742   5.083  1.00  0.00     0.091 A 
HETATM    8  C   UNL     1      39.783 -10.714   5.735  1.00  0.00     0.221 C 
HETATM    9  C   UNL     1      40.200 -10.465   7.198  1.00  0.00     0.061 C 
HETATM   10  H   UNL     1      41.804 -12.766   7.848  1.00  0.00     0.130 HD
ENDROOT
BRANCH   7  11
HETATM   11  C   UNL     1      42.552 -14.857   5.237  1.00  0.00     0.261 C 
HETATM   12  N   UNL     1      42.122 -16.041   4.669  1.00  0.00    -0.323 N 
HETATM   13  H   UNL     1      41.178 -16.028   4.302  1.00  0.00     0.169 HD
HETATM   14  O   UNL     1      43.623 -14.686   5.808  1.00  0.00    -0.267 OA
BRANCH  12  15
HETATM   15  C   UNL     1      42.879 -17.216   4.475  1.00  0.00     0.035 A 
HETATM   16  C   UNL     1      43.388 -17.620   3.240  1.00  0.00     0.030 A 
HETATM   17  C   UNL     1      44.063 -18.839   3.100  1.00  0.00     0.012 A 
HETATM   18  C   UNL     1      44.241 -19.692   4.194  1.00  0.00    -0.030 A 
HETATM   19  C   UNL     1      43.759 -19.264   5.443  1.00  0.00     0.012 A 
HETATM   20  C   UNL     1      43.092 -18.041   5.583  1.00  0.00     0.030 A 
BRANCH  18  21
HETATM   21  C   UNL     1      44.922 -21.043   4.096  1.00  0.00     0.147 C 
HETATM   22  C   UNL     1      44.761 -21.976   5.293  1.00  0.00     0.044 C 
BRANCH  21  23
HETATM   23  O   UNL     1      44.437 -21.733   2.943  1.00  0.00    -0.391 OA
HETATM   24  H   UNL     1      44.213 -22.638   3.220  1.00  0.00     0.210 HD
ENDBRANCH  21  23
ENDBRANCH  18  21
ENDBRANCH  12  15
ENDBRANCH   7  11
BRANCH   1  25
HETATM   25  C   UNL     1      42.275 -10.433   8.767  1.00  0.00    -0.040 A 
HETATM   26  C   UNL     1      41.568  -9.576   9.631  1.00  0.00     0.009 A 
HETATM   27  C   UNL     1      41.994  -9.353  10.944  1.00  0.00     0.007 A 
HETATM   28  C   UNL     1      43.134  -9.991  11.438  1.00  0.00    -0.062 A 
HETATM   29  C   UNL     1      43.544  -9.819  12.870  1.00  0.00     0.048 C 
HETATM   30  C   UNL     1      43.837 -10.856  10.596  1.00  0.00     0.007 A 
HETATM   31  C   UNL     1      43.417 -11.070   9.279  1.00  0.00     0.009 A 
ENDBRANCH   1  25
BRANCH   8  32
HETATM   32  C   UNL     1      40.103  -9.529   4.847  1.00  0.00     0.409 C 
HETATM   33  F   UNL     1      39.205  -9.342   3.859  1.00  0.00    -0.169 F 
HETATM   34  F   UNL     1      40.095  -8.390   5.591  1.00  0.00    -0.169 F 
HETATM   35  F   UNL     1      41.329  -9.612   4.288  1.00  0.00    -0.169 F 
ENDBRANCH   8  32
TORSDOF 6
ENDMDL
MODEL 7
REMARK VINA RESULT:      -8.4      4.845      8.845
REMARK  6 active torsions:
REMARK  status: ('A' for Active; 'I' for Inactive)
REMARK    1  A    between atoms: C_5  and  C_6 
REMARK    2  A    between atoms: C_12  and  C_13 
REMARK       I    between atoms: C_13  and  N_14 
REMARK    3  A    between atoms: N_14  and  C_15 
REMARK    4  A    between atoms: C_18  and  C_19 
REMARK    5  A    between atoms: C_19  and  O_20 
REMARK    6  A    between atoms: C_25  and  C_26 
ROOT
HETATM    1  C   UNL     1      41.664 -10.288   9.336  1.00  0.00     0.097 C 
HETATM    2  N   UNL     1      42.682 -11.014   8.544  1.00  0.00    -0.268 NA
HETATM    3  C   UNL     1      43.786 -11.476   9.207  1.00  0.00     0.118 A 
HETATM    4  N   UNL     1      44.117 -10.979  10.449  1.00  0.00    -0.245 N 
HETATM    5  N   UNL     1      45.273 -11.448  10.935  1.00  0.00    -0.182 NA
HETATM    6  C   UNL     1      45.658 -12.328  10.008  1.00  0.00     0.159 A 
HETATM    7  C   UNL     1      44.785 -12.380   8.891  1.00  0.00     0.091 A 
HETATM    8  C   UNL     1      43.411  -9.913  11.133  1.00  0.00     0.221 C 
HETATM    9  C   UNL     1      42.400  -9.236  10.187  1.00  0.00     0.061 C 
HETATM   10  H   UNL     1      42.861 -10.532   7.658  1.00  0.00     0.130 HD
ENDROOT
BRANCH   7  11
HETATM   11  C   UNL     1      44.991 -13.218   7.718  1.00  0.00     0.261 C 
HETATM   12  N   UNL     1      43.883 -13.945   7.329  1.00  0.00    -0.323 N 
HETATM   13  H   UNL     1      43.088 -13.892   7.955  1.00  0.00     0.169 HD
HETATM   14  O   UNL     1      46.078 -13.211   7.150  1.00  0.00    -0.267 OA
BRANCH  12  15
HETATM   15  C   UNL     1      43.718 -14.668   6.128  1.00  0.00     0.035 A 
HETATM   16  C   UNL     1      43.522 -14.073   4.882  1.00  0.00     0.030 A 
HETATM   17  C   UNL     1      43.284 -14.849   3.740  1.00  0.00     0.012 A 
HETATM   18  C   UNL     1      43.230 -16.244   3.818  1.00  0.00    -0.030 A 
HETATM   19  C   UNL     1      43.464 -16.839   5.068  1.00  0.00     0.012 A 
HETATM   20  C   UNL     1      43.710 -16.063   6.208  1.00  0.00     0.030 A 
BRANCH  18  21
HETATM   21  C   UNL     1      42.931 -17.134   2.627  1.00  0.00     0.147 C 
HETATM   22  C   UNL     1      44.007 -17.209   1.547  1.00  0.00     0.044 C 
BRANCH  21  23
HETATM   23  O   UNL     1      42.685 -18.465   3.082  1.00  0.00    -0.391 OA
HETATM   24  H   UNL     1      43.214 -18.599   3.887  1.00  0.00     0.210 HD
ENDBRANCH  21  23
ENDBRANCH  18  21
ENDBRANCH  12  15
ENDBRANCH   7  11
BRANCH   1  25
HETATM   25  C   UNL     1      40.554  -9.765   8.432  1.00  0.00    -0.040 A 
HETATM   26  C   UNL     1      39.695  -8.757   8.905  1.00  0.00     0.009 A 
HETATM   27  C   UNL     1      38.738  -8.166   8.074  1.00  0.00     0.007 A 
HETATM   28  C   UNL     1      38.620  -8.558   6.738  1.00  0.00    -0.062 A 
HETATM   29  C   UNL     1      37.653  -7.868   5.824  1.00  0.00     0.048 C 
HETATM   30  C   UNL     1      39.477  -9.548   6.251  1.00  0.00     0.007 A 
HETATM   31  C   UNL     1      40.427 -10.146   7.086  1.00  0.00     0.009 A 
ENDBRANCH   1  25
BRANCH   8  32
HETATM   32  C   UNL     1      42.746 -10.442  12.386  1.00  0.00     0.409 C 
HETATM   33  F   UNL     1      43.425 -10.156  13.516  1.00  0.00    -0.169 F 
HETATM   34  F   UNL     1      41.520  -9.870  12.525  1.00  0.00    -0.169 F 
HETATM   35  F   UNL     1      42.543 -11.776  12.346  1.00  0.00    -0.169 F 
ENDBRANCH   8  32
TORSDOF 6
ENDMDL
MODEL 8
REMARK VINA RESULT:      -8.2      3.353      7.210
REMARK  6 active torsions:
REMARK  status: ('A' for Active; 'I' for Inactive)
REMARK    1  A    between atoms: C_5  and  C_6 
REMARK    2  A    between atoms: C_12  and  C_13 
REMARK       I    between atoms: C_13  and  N_14 
REMARK    3  A    between atoms: N_14  and  C_15 
REMARK    4  A    between atoms: C_18  and  C_19 
REMARK    5  A    between atoms: C_19  and  O_20 
REMARK    6  A    between atoms: C_25  and  C_26 
ROOT
HETATM    1  C   UNL     1      40.265 -13.268   1.737  1.00  0.00     0.097 C 
HETATM    2  N   UNL     1      41.342 -14.022   2.419  1.00  0.00    -0.268 NA
HETATM    3  C   UNL     1      41.627 -13.682   3.713  1.00  0.00     0.118 A 
HETATM    4  N   UNL     1      41.207 -12.476   4.231  1.00  0.00    -0.245 N 
HETATM    5  N   UNL     1      41.641 -12.234   5.475  1.00  0.00    -0.182 NA
HETATM    6  C   UNL     1      42.299 -13.352   5.790  1.00  0.00     0.159 A 
HETATM    7  C   UNL     1      42.346 -14.291   4.727  1.00  0.00     0.091 A 
HETATM    8  C   UNL     1      40.511 -11.447   3.484  1.00  0.00     0.221 C 
HETATM    9  C   UNL     1      40.524 -11.768   1.976  1.00  0.00     0.061 C 
HETATM   10  H   UNL     1      42.148 -14.138   1.799  1.00  0.00     0.130 HD
ENDROOT
BRANCH   7  11
HETATM   11  C   UNL     1      43.037 -15.571   4.785  1.00  0.00     0.261 C 
HETATM   12  N   UNL     1      42.600 -16.502   3.862  1.00  0.00    -0.323 N 
HETATM   13  H   UNL     1      41.788 -16.228   3.322  1.00  0.00     0.169 HD
HETATM   14  O   UNL     1      43.946 -15.736   5.591  1.00  0.00    -0.267 OA
BRANCH  12  15
HETATM   15  C   UNL     1      43.210 -17.734   3.542  1.00  0.00     0.035 A 
HETATM   16  C   UNL     1      43.511 -18.138   2.241  1.00  0.00     0.030 A 
HETATM   17  C   UNL     1      44.043 -19.408   1.984  1.00  0.00     0.012 A 
HETATM   18  C   UNL     1      44.281 -20.312   3.025  1.00  0.00    -0.030 A 
HETATM   19  C   UNL     1      44.009 -19.887   4.336  1.00  0.00     0.012 A 
HETATM   20  C   UNL     1      43.486 -18.613   4.593  1.00  0.00     0.030 A 
BRANCH  18  21
HETATM   21  C   UNL     1      44.812 -21.716   2.805  1.00  0.00     0.147 C 
HETATM   22  C   UNL     1      44.634 -22.699   3.959  1.00  0.00     0.044 C 
BRANCH  21  23
HETATM   23  O   UNL     1      44.183 -22.283   1.655  1.00  0.00    -0.391 OA
HETATM   24  H   UNL     1      44.695 -23.071   1.404  1.00  0.00     0.210 HD
ENDBRANCH  21  23
ENDBRANCH  18  21
ENDBRANCH  12  15
ENDBRANCH   7  11
BRANCH   1  25
HETATM   25  C   UNL     1      40.142 -13.706   0.284  1.00  0.00    -0.040 A 
HETATM   26  C   UNL     1      41.097 -14.588  -0.255  1.00  0.00     0.009 A 
HETATM   27  C   UNL     1      40.962 -15.107  -1.547  1.00  0.00     0.007 A 
HETATM   28  C   UNL     1      39.859 -14.769  -2.335  1.00  0.00    -0.062 A 
HETATM   29  C   UNL     1      39.669 -15.391  -3.686  1.00  0.00     0.048 C 
HETATM   30  C   UNL     1      38.895 -13.907  -1.807  1.00  0.00     0.007 A 
HETATM   31  C   UNL     1      39.037 -13.379  -0.519  1.00  0.00     0.009 A 
ENDBRANCH   1  25
BRANCH   8  32
HETATM   32  C   UNL     1      39.103 -11.274   4.012  1.00  0.00     0.409 C 
HETATM   33  F   UNL     1      38.191 -11.049   3.045  1.00  0.00    -0.169 F 
HETATM   34  F   UNL     1      38.712 -12.414   4.644  1.00  0.00    -0.169 F 
HETATM   35  F   UNL     1      39.004 -10.281   4.921  1.00  0.00    -0.169 F 
ENDBRANCH   8  32
TORSDOF 6
ENDMDL
MODEL 9
REMARK VINA RESULT:      -8.0      3.824      8.272
REMARK  6 active torsions:
REMARK  status: ('A' for Active; 'I' for Inactive)
REMARK    1  A    between atoms: C_5  and  C_6 
REMARK    2  A    between atoms: C_12  and  C_13 
REMARK       I    between atoms: C_13  and  N_14 
REMARK    3  A    between atoms: N_14  and  C_15 
REMARK    4  A    between atoms: C_18  and  C_19 
REMARK    5  A    between atoms: C_19  and  O_20 
REMARK    6  A    between atoms: C_25  and  C_26 
ROOT
HETATM    1  C   UNL     1      40.803 -12.553   2.703  1.00  0.00     0.097 C 
HETATM    2  N   UNL     1      40.817 -14.006   2.420  1.00  0.00    -0.268 NA
HETATM    3  C   UNL     1      40.964 -14.394   1.117  1.00  0.00     0.118 A 
HETATM    4  N   UNL     1      40.736 -13.503   0.090  1.00  0.00    -0.245 N 
HETATM    5  N   UNL     1      40.820 -14.044  -1.132  1.00  0.00    -0.182 NA
HETATM    6  C   UNL     1      41.184 -15.304  -0.882  1.00  0.00     0.159 A 
HETATM    7  C   UNL     1      41.272 -15.596   0.504  1.00  0.00     0.091 A 
HETATM    8  C   UNL     1      40.270 -12.141   0.259  1.00  0.00     0.221 C 
HETATM    9  C   UNL     1      39.821 -11.896   1.714  1.00  0.00     0.061 C 
HETATM   10  H   UNL     1      40.081 -14.483   2.949  1.00  0.00     0.130 HD
ENDROOT
BRANCH   7  11
HETATM   11  C   UNL     1      41.603 -16.902   1.055  1.00  0.00     0.261 C 
HETATM   12  N   UNL     1      42.911 -17.032   1.478  1.00  0.00    -0.323 N 
HETATM   13  H   UNL     1      43.515 -16.246   1.268  1.00  0.00     0.169 HD
HETATM   14  O   UNL     1      40.736 -17.765   1.136  1.00  0.00    -0.267 OA
BRANCH  12  15
HETATM   15  C   UNL     1      43.460 -18.089   2.236  1.00  0.00     0.035 A 
HETATM   16  C   UNL     1      43.760 -19.347   1.713  1.00  0.00     0.030 A 
HETATM   17  C   UNL     1      44.227 -20.379   2.537  1.00  0.00     0.012 A 
HETATM   18  C   UNL     1      44.399 -20.181   3.911  1.00  0.00    -0.030 A 
HETATM   19  C   UNL     1      44.129 -18.902   4.426  1.00  0.00     0.012 A 
HETATM   20  C   UNL     1      43.671 -17.868   3.599  1.00  0.00     0.030 A 
BRANCH  18  21
HETATM   21  C   UNL     1      44.858 -21.271   4.860  1.00  0.00     0.147 C 
HETATM   22  C   UNL     1      44.191 -21.304   6.232  1.00  0.00     0.044 C 
BRANCH  21  23
HETATM   23  O   UNL     1      44.650 -22.546   4.249  1.00  0.00    -0.391 OA
HETATM   24  H   UNL     1      43.697 -22.736   4.291  1.00  0.00     0.210 HD
ENDBRANCH  21  23
ENDBRANCH  18  21
ENDBRANCH  12  15
ENDBRANCH   7  11
BRANCH   1  25
HETATM   25  C   UNL     1      40.539 -12.297   4.182  1.00  0.00    -0.040 A 
HETATM   26  C   UNL     1      40.892 -11.056   4.742  1.00  0.00     0.009 A 
HETATM   27  C   UNL     1      40.566 -10.734   6.063  1.00  0.00     0.007 A 
HETATM   28  C   UNL     1      39.864 -11.640   6.861  1.00  0.00    -0.062 A 
HETATM   29  C   UNL     1      39.439 -11.264   8.249  1.00  0.00     0.048 C 
HETATM   30  C   UNL     1      39.492 -12.870   6.313  1.00  0.00     0.007 A 
HETATM   31  C   UNL     1      39.829 -13.196   4.995  1.00  0.00     0.009 A 
ENDBRANCH   1  25
BRANCH   8  32
HETATM   32  C   UNL     1      41.341 -11.161  -0.173  1.00  0.00     0.409 C 
HETATM   33  F   UNL     1      41.335 -10.014   0.535  1.00  0.00    -0.169 F 
HETATM   34  F   UNL     1      42.568 -11.718   0.014  1.00  0.00    -0.169 F 
HETATM   35  F   UNL     1      41.261 -10.845  -1.484  1.00  0.00    -0.169 F 
ENDBRANCH   8  32
TORSDOF 6
ENDMDL
MODEL 10
REMARK VINA RESULT:      -8.0      5.261      9.490
REMARK  6 active torsions:
REMARK  status: ('A' for Active; 'I' for Inactive)
REMARK    1  A    between atoms: C_5  and  C_6 
REMARK    2  A    between atoms: C_12  and  C_13 
REMARK       I    between atoms: C_13  and  N_14 
REMARK    3  A    between atoms: N_14  and  C_15 
REMARK    4  A    between atoms: C_18  and  C_19 
REMARK    5  A    between atoms: C_19  and  O_20 
REMARK    6  A    between atoms: C_25  and  C_26 
ROOT
HETATM    1  C   UNL     1      41.944 -14.633   4.857  1.00  0.00     0.097 C 
HETATM    2  N   UNL     1      42.007 -13.665   5.976  1.00  0.00    -0.268 NA
HETATM    3  C   UNL     1      41.634 -12.375   5.716  1.00  0.00     0.118 A 
HETATM    4  N   UNL     1      41.564 -11.913   4.419  1.00  0.00    -0.245 N 
HETATM    5  N   UNL     1      41.284 -10.608   4.318  1.00  0.00    -0.182 NA
HETATM    6  C   UNL     1      41.096 -10.238   5.586  1.00  0.00     0.159 A 
HETATM    7  C   UNL     1      41.320 -11.289   6.514  1.00  0.00     0.091 A 
HETATM    8  C   UNL     1      41.927 -12.680   3.242  1.00  0.00     0.221 C 
HETATM    9  C   UNL     1      42.638 -13.987   3.643  1.00  0.00     0.061 C 
HETATM   10  H   UNL     1      42.876 -13.782   6.505  1.00  0.00     0.130 HD
ENDROOT
BRANCH   7  11
HETATM   11  C   UNL     1      41.230 -11.149   7.960  1.00  0.00     0.261 C 
HETATM   12  N   UNL     1      42.448 -11.048   8.604  1.00  0.00    -0.323 N 
HETATM   13  H   UNL     1      43.262 -11.183   8.016  1.00  0.00     0.169 HD
HETATM   14  O   UNL     1      40.130 -11.100   8.499  1.00  0.00    -0.267 OA
BRANCH  12  15
HETATM   15  C   UNL     1      42.671 -10.696   9.953  1.00  0.00     0.035 A 
HETATM   16  C   UNL     1      43.258 -11.544  10.892  1.00  0.00     0.030 A 
HETATM   17  C   UNL     1      43.377 -11.163  12.235  1.00  0.00     0.012 A 
HETATM   18  C   UNL     1      42.903  -9.923  12.675  1.00  0.00    -0.030 A 
HETATM   19  C   UNL     1      42.345  -9.059  11.719  1.00  0.00     0.012 A 
HETATM   20  C   UNL     1      42.234  -9.437  10.374  1.00  0.00     0.030 A 
BRANCH  18  21
HETATM   21  C   UNL     1      42.962  -9.475  14.122  1.00  0.00     0.147 C 
HETATM   22  C   UNL     1      42.290  -8.144  14.450  1.00  0.00     0.044 C 
BRANCH  21  23
HETATM   23  O   UNL     1      42.366 -10.474  14.951  1.00  0.00    -0.391 OA
HETATM   24  H   UNL     1      42.203 -11.254  14.393  1.00  0.00     0.210 HD
ENDBRANCH  21  23
ENDBRANCH  18  21
ENDBRANCH  12  15
ENDBRANCH   7  11
BRANCH   1  25
HETATM   25  C   UNL     1      42.479 -15.992   5.294  1.00  0.00    -0.040 A 
HETATM   26  C   UNL     1      41.915 -17.162   4.753  1.00  0.00     0.009 A 
HETATM   27  C   UNL     1      42.448 -18.424   5.035  1.00  0.00     0.007 A 
HETATM   28  C   UNL     1      43.570 -18.553   5.858  1.00  0.00    -0.062 A 
HETATM   29  C   UNL     1      44.193 -19.896   6.092  1.00  0.00     0.048 C 
HETATM   30  C   UNL     1      44.149 -17.398   6.389  1.00  0.00     0.007 A 
HETATM   31  C   UNL     1      43.609 -16.137   6.115  1.00  0.00     0.009 A 
ENDBRANCH   1  25
BRANCH   8  32
HETATM   32  C   UNL     1      40.705 -12.941   2.387  1.00  0.00     0.409 C 
HETATM   33  F   UNL     1      40.493 -11.994   1.451  1.00  0.00    -0.169 F 
HETATM   34  F   UNL     1      40.864 -14.113   1.715  1.00  0.00    -0.169 F 
HETATM   35  F   UNL     1      39.576 -13.069   3.117  1.00  0.00    -0.169 F 
ENDBRANCH   8  32
TORSDOF 6
ENDMDL
