MODEL 1
REMARK VINA RESULT:      -9.2      0.000      0.000
REMARK  5 active torsions:
REMARK  status: ('A' for Active; 'I' for Inactive)
REMARK    1  A    between atoms: C_4  and  N_5 
REMARK       I    between atoms: N_5  and  C_6 
REMARK       I    between atoms: C_6  and  N_7 
REMARK    2  A    between atoms: N_7  and  C_8 
REMARK    3  A    between atoms: C_17  and  C_18 
REMARK       I    between atoms: C_18  and  N_19 
REMARK    4  A    between atoms: N_19  and  C_20 
REMARK    5  A    between atoms: C_20  and  C_21 
ROOT
HETATM    1  C   UNL     1      39.602 -14.063   5.409  1.00  0.00     0.072 C 
HETATM    2  C   UNL     1      41.081 -14.202   5.493  1.00  0.00     0.056 C 
HETATM    3  N   UNL     1      41.637 -15.471   5.332  1.00  0.00    -0.228 NA
HETATM    4  C   UNL     1      42.934 -15.415   5.515  1.00  0.00     0.175 C 
HETATM    5  S   UNL     1      43.578 -13.858   5.712  1.00  0.00    -0.044 SA
HETATM    6  C   UNL     1      41.996 -13.200   5.777  1.00  0.00     0.100 C 
ENDROOT
BRANCH   4   7
HETATM    7  N   UNL     1      43.707 -16.549   5.563  1.00  0.00    -0.287 N 
HETATM    8  C   UNL     1      43.333 -17.801   5.110  1.00  0.00     0.326 C 
HETATM    9  N   UNL     1      44.404 -18.683   5.145  1.00  0.00    -0.309 N 
HETATM   10  O   UNL     1      42.218 -18.102   4.706  1.00  0.00    -0.247 OA
HETATM   11  H   UNL     1      45.234 -18.371   5.627  1.00  0.00     0.170 HD
HETATM   12  H   UNL     1      44.674 -16.354   5.763  1.00  0.00     0.172 HD
BRANCH   9  13
HETATM   13  C   UNL     1      44.447 -19.995   4.618  1.00  0.00     0.037 A 
HETATM   14  C   UNL     1      44.331 -20.301   3.259  1.00  0.00     0.053 A 
HETATM   15  C   UNL     1      44.408 -21.626   2.826  1.00  0.00     0.036 A 
HETATM   16 CL   UNL     1      44.266 -21.987   1.147  1.00  0.00    -0.084 Cl
HETATM   17  C   UNL     1      44.604 -22.661   3.735  1.00  0.00     0.024 A 
HETATM   18  C   UNL     1      44.723 -22.368   5.091  1.00  0.00     0.004 A 
HETATM   19  C   UNL     1      44.643 -21.042   5.529  1.00  0.00     0.029 A 
ENDBRANCH   9  13
ENDBRANCH   4   7
BRANCH   6  20
HETATM   20  C   UNL     1      41.768 -11.813   6.146  1.00  0.00     0.260 C 
HETATM   21  N   UNL     1      42.059 -11.515   7.457  1.00  0.00    -0.352 N 
HETATM   22  H   UNL     1      42.490 -12.235   8.026  1.00  0.00     0.163 HD
HETATM   23  O   UNL     1      41.304 -10.973   5.382  1.00  0.00    -0.267 OA
BRANCH  21  24
HETATM   24  C   UNL     1      41.619 -10.306   8.107  1.00  0.00     0.161 C 
BRANCH  24  25
HETATM   25  C   UNL     1      42.275 -10.155   9.460  1.00  0.00    -0.040 A 
HETATM   26  C   UNL     1      43.507 -10.773   9.726  1.00  0.00     0.012 A 
HETATM   27  C   UNL     1      44.111 -10.638  10.979  1.00  0.00     0.043 A 
HETATM   28  C   UNL     1      43.487  -9.886  11.967  1.00  0.00     0.116 A 
HETATM   29  F   UNL     1      44.064  -9.767  13.170  1.00  0.00    -0.206 F 
HETATM   30  C   UNL     1      42.277  -9.252  11.723  1.00  0.00     0.043 A 
HETATM   31  C   UNL     1      41.677  -9.375  10.470  1.00  0.00     0.012 A 
ENDBRANCH  24  25
ENDBRANCH  21  24
ENDBRANCH   6  20
TORSDOF 5
ENDMDL
MODEL 2
REMARK VINA RESULT:      -9.0      1.711      2.009
REMARK  5 active torsions:
REMARK  status: ('A' for Active; 'I' for Inactive)
REMARK    1  A    between atoms: C_4  and  N_5 
REMARK       I    between atoms: N_5  and  C_6 
REMARK       I    between atoms: C_6  and  N_7 
REMARK    2  A    between atoms: N_7  and  C_8 
REMARK    3  A    between atoms: C_17  and  C_18 
REMARK       I    between atoms: C_18  and  N_19 
REMARK    4  A    between atoms: N_19  and  C_20 
REMARK    5  A    between atoms: C_20  and  C_21 
ROOT
HETATM    1  C   UNL     1      39.379 -12.963   3.088  1.00  0.00     0.072 C 
HETATM    2  C   UNL     1      40.524 -13.444   3.907  1.00  0.00     0.056 C 
HETATM    3  N   UNL     1      41.430 -14.331   3.324  1.00  0.00    -0.228 NA
HETATM    4  C   UNL     1      42.320 -14.705   4.212  1.00  0.00     0.175 C 
HETATM    5  S   UNL     1      42.240 -13.910   5.708  1.00  0.00    -0.044 SA
HETATM    6  C   UNL     1      40.775 -13.151   5.239  1.00  0.00     0.100 C 
ENDROOT
BRANCH   4   7
HETATM    7  N   UNL     1      43.238 -15.691   3.943  1.00  0.00    -0.287 N 
HETATM    8  C   UNL     1      43.013 -17.052   4.034  1.00  0.00     0.326 C 
HETATM    9  N   UNL     1      44.087 -17.769   3.529  1.00  0.00    -0.309 N 
HETATM   10  O   UNL     1      41.996 -17.571   4.477  1.00  0.00    -0.247 OA
HETATM   11  H   UNL     1      44.926 -17.247   3.324  1.00  0.00     0.170 HD
HETATM   12  H   UNL     1      44.049 -15.346   3.457  1.00  0.00     0.172 HD
BRANCH   9  13
HETATM   13  C   UNL     1      44.155 -19.165   3.312  1.00  0.00     0.037 A 
HETATM   14  C   UNL     1      44.635 -20.084   4.251  1.00  0.00     0.053 A 
HETATM   15  C   UNL     1      44.644 -21.449   3.959  1.00  0.00     0.036 A 
HETATM   16 CL   UNL     1      45.236 -22.569   5.126  1.00  0.00    -0.084 Cl
HETATM   17  C   UNL     1      44.174 -21.918   2.736  1.00  0.00     0.024 A 
HETATM   18  C   UNL     1      43.692 -21.013   1.794  1.00  0.00     0.004 A 
HETATM   19  C   UNL     1      43.685 -19.644   2.082  1.00  0.00     0.029 A 
ENDBRANCH   9  13
ENDBRANCH   4   7
BRANCH   6  20
HETATM   20  C   UNL     1      39.975 -12.400   6.191  1.00  0.00     0.260 C 
HETATM   21  N   UNL     1      40.701 -11.602   7.045  1.00  0.00    -0.352 N 
HETATM   22  H   UNL     1      41.699 -11.523   6.891  1.00  0.00     0.163 HD
HETATM   23  O   UNL     1      38.755 -12.495   6.278  1.00  0.00    -0.267 OA
BRANCH  21  24
HETATM   24  C   UNL     1      40.149 -11.028   8.247  1.00  0.00     0.161 C 
BRANCH  24  25
HETATM   25  C   UNL     1      41.220 -10.852   9.298  1.00  0.00    -0.040 A 
HETATM   26  C   UNL     1      42.568 -10.728   8.926  1.00  0.00     0.012 A 
HETATM   27  C   UNL     1      43.559 -10.572   9.899  1.00  0.00     0.043 A 
HETATM   28  C   UNL     1      43.206 -10.537  11.243  1.00  0.00     0.116 A 
HETATM   29  F   UNL     1      44.161 -10.398  12.172  1.00  0.00    -0.206 F 
HETATM   30  C   UNL     1      41.880 -10.642  11.635  1.00  0.00     0.043 A 
HETATM   31  C   UNL     1      40.886 -10.786  10.666  1.00  0.00     0.012 A 
ENDBRANCH  24  25
ENDBRANCH  21  24
ENDBRANCH   6  20
TORSDOF 5
ENDMDL
MODEL 3
REMARK VINA RESULT:      -8.8      6.212     10.071
REMARK  5 active torsions:
REMARK  status: ('A' for Active; 'I' for Inactive)
REMARK    1  A    between atoms: C_4  and  N_5 
REMARK       I    between atoms: N_5  and  C_6 
REMARK       I    between atoms: C_6  and  N_7 
REMARK    2  A    between atoms: N_7  and  C_8 
REMARK    3  A    between atoms: C_17  and  C_18 
REMARK       I    between atoms: C_18  and  N_19 
REMARK    4  A    between atoms: N_19  and  C_20 
REMARK    5  A    between atoms: C_20  and  C_21 
ROOT
HETATM    1  C   UNL     1      40.372 -15.046   5.713  1.00  0.00     0.072 C 
HETATM    2  C   UNL     1      41.469 -14.517   4.859  1.00  0.00     0.056 C 
HETATM    3  N   UNL     1      41.168 -13.511   3.940  1.00  0.00    -0.228 NA
HETATM    4  C   UNL     1      42.231 -13.229   3.226  1.00  0.00     0.175 C 
HETATM    5  S   UNL     1      43.663 -13.999   3.710  1.00  0.00    -0.044 SA
HETATM    6  C   UNL     1      42.783 -14.958   4.826  1.00  0.00     0.100 C 
ENDROOT
BRANCH   4   7
HETATM    7  N   UNL     1      42.173 -12.380   2.148  1.00  0.00    -0.287 N 
HETATM    8  C   UNL     1      42.021 -12.760   0.827  1.00  0.00     0.326 C 
HETATM    9  N   UNL     1      41.826 -11.655   0.011  1.00  0.00    -0.309 N 
HETATM   10  O   UNL     1      42.030 -13.914   0.419  1.00  0.00    -0.247 OA
HETATM   11  H   UNL     1      41.979 -10.749   0.428  1.00  0.00     0.170 HD
HETATM   12  H   UNL     1      42.033 -11.420   2.415  1.00  0.00     0.172 HD
BRANCH   9  13
HETATM   13  C   UNL     1      41.481 -11.658  -1.361  1.00  0.00     0.037 A 
HETATM   14  C   UNL     1      40.167 -11.673  -1.841  1.00  0.00     0.053 A 
HETATM   15  C   UNL     1      39.919 -11.650  -3.215  1.00  0.00     0.036 A 
HETATM   16 CL   UNL     1      38.296 -11.667  -3.791  1.00  0.00    -0.084 Cl
HETATM   17  C   UNL     1      40.970 -11.609  -4.126  1.00  0.00     0.024 A 
HETATM   18  C   UNL     1      42.282 -11.591  -3.660  1.00  0.00     0.004 A 
HETATM   19  C   UNL     1      42.534 -11.617  -2.284  1.00  0.00     0.029 A 
ENDBRANCH   9  13
ENDBRANCH   4   7
BRANCH   6  20
HETATM   20  C   UNL     1      43.406 -16.072   5.521  1.00  0.00     0.260 C 
HETATM   21  N   UNL     1      43.779 -17.117   4.708  1.00  0.00    -0.352 N 
HETATM   22  H   UNL     1      43.688 -16.998   3.706  1.00  0.00     0.163 HD
HETATM   23  O   UNL     1      43.547 -16.121   6.739  1.00  0.00    -0.267 OA
BRANCH  21  24
HETATM   24  C   UNL     1      44.117 -18.426   5.211  1.00  0.00     0.161 C 
BRANCH  24  25
HETATM   25  C   UNL     1      44.080 -19.452   4.102  1.00  0.00    -0.040 A 
HETATM   26  C   UNL     1      44.670 -20.713   4.280  1.00  0.00     0.012 A 
HETATM   27  C   UNL     1      44.641 -21.659   3.252  1.00  0.00     0.043 A 
HETATM   28  C   UNL     1      44.022 -21.349   2.047  1.00  0.00     0.116 A 
HETATM   29  F   UNL     1      44.005 -22.256   1.061  1.00  0.00    -0.206 F 
HETATM   30  C   UNL     1      43.418 -20.115   1.853  1.00  0.00     0.043 A 
HETATM   31  C   UNL     1      43.435 -19.172   2.881  1.00  0.00     0.012 A 
ENDBRANCH  24  25
ENDBRANCH  21  24
ENDBRANCH   6  20
TORSDOF 5
ENDMDL
MODEL 4
REMARK VINA RESULT:      -8.7      5.595     10.067
REMARK  5 active torsions:
REMARK  status: ('A' for Active; 'I' for Inactive)
REMARK    1  A    between atoms: C_4  and  N_5 
REMARK       I    between atoms: N_5  and  C_6 
REMARK       I    between atoms: C_6  and  N_7 
REMARK    2  A    between atoms: N_7  and  C_8 
REMARK    3  A    between atoms: C_17  and  C_18 
REMARK       I    between atoms: C_18  and  N_19 
REMARK    4  A    between atoms: N_19  and  C_20 
REMARK    5  A    between atoms: C_20  and  C_21 
ROOT
HETATM    1  C   UNL     1      40.536 -16.731   6.283  1.00  0.00     0.072 C 
HETATM    2  C   UNL     1      41.556 -15.746   5.836  1.00  0.00     0.056 C 
HETATM    3  N   UNL     1      41.120 -14.574   5.216  1.00  0.00    -0.228 NA
HETATM    4  C   UNL     1      42.152 -13.869   4.821  1.00  0.00     0.175 C 
HETATM    5  S   UNL     1      43.667 -14.456   5.306  1.00  0.00    -0.044 SA
HETATM    6  C   UNL     1      42.934 -15.882   5.912  1.00  0.00     0.100 C 
ENDROOT
BRANCH   4   7
HETATM    7  N   UNL     1      42.005 -12.742   4.049  1.00  0.00    -0.287 N 
HETATM    8  C   UNL     1      41.976 -12.708   2.667  1.00  0.00     0.326 C 
HETATM    9  N   UNL     1      41.641 -11.442   2.208  1.00  0.00    -0.309 N 
HETATM   10  O   UNL     1      42.191 -13.663   1.932  1.00  0.00    -0.247 OA
HETATM   11  H   UNL     1      41.626 -10.700   2.892  1.00  0.00     0.170 HD
HETATM   12  H   UNL     1      41.699 -11.944   4.579  1.00  0.00     0.172 HD
BRANCH   9  13
HETATM   13  C   UNL     1      41.362 -11.064   0.874  1.00  0.00     0.037 A 
HETATM   14  C   UNL     1      42.336 -10.683  -0.054  1.00  0.00     0.053 A 
HETATM   15  C   UNL     1      41.972 -10.348  -1.360  1.00  0.00     0.036 A 
HETATM   16 CL   UNL     1      43.183  -9.882  -2.493  1.00  0.00    -0.084 Cl
HETATM   17  C   UNL     1      40.640 -10.390  -1.759  1.00  0.00     0.024 A 
HETATM   18  C   UNL     1      39.662 -10.770  -0.844  1.00  0.00     0.004 A 
HETATM   19  C   UNL     1      40.022 -11.104   0.465  1.00  0.00     0.029 A 
ENDBRANCH   9  13
ENDBRANCH   4   7
BRANCH   6  20
HETATM   20  C   UNL     1      43.731 -17.016   6.348  1.00  0.00     0.260 C 
HETATM   21  N   UNL     1      44.271 -17.763   5.327  1.00  0.00    -0.352 N 
HETATM   22  H   UNL     1      44.161 -17.423   4.378  1.00  0.00     0.163 HD
HETATM   23  O   UNL     1      43.878 -17.331   7.525  1.00  0.00    -0.267 OA
BRANCH  21  24
HETATM   24  C   UNL     1      44.820 -19.082   5.519  1.00  0.00     0.161 C 
BRANCH  24  25
HETATM   25  C   UNL     1      44.546 -19.957   4.318  1.00  0.00    -0.040 A 
HETATM   26  C   UNL     1      44.854 -21.326   4.350  1.00  0.00     0.012 A 
HETATM   27  C   UNL     1      44.605 -22.133   3.236  1.00  0.00     0.043 A 
HETATM   28  C   UNL     1      44.049 -21.576   2.091  1.00  0.00     0.116 A 
HETATM   29  F   UNL     1      43.822 -22.352   1.022  1.00  0.00    -0.206 F 
HETATM   30  C   UNL     1      43.722 -20.228   2.040  1.00  0.00     0.043 A 
HETATM   31  C   UNL     1      43.957 -19.422   3.154  1.00  0.00     0.012 A 
ENDBRANCH  24  25
ENDBRANCH  21  24
ENDBRANCH   6  20
TORSDOF 5
ENDMDL
MODEL 5
REMARK VINA RESULT:      -8.7      4.769     10.439
REMARK  5 active torsions:
REMARK  status: ('A' for Active; 'I' for Inactive)
REMARK    1  A    between atoms: C_4  and  N_5 
REMARK       I    between atoms: N_5  and  C_6 
REMARK       I    between atoms: C_6  and  N_7 
REMARK    2  A    between atoms: N_7  and  C_8 
REMARK    3  A    between atoms: C_17  and  C_18 
REMARK       I    between atoms: C_18  and  N_19 
REMARK    4  A    between atoms: N_19  and  C_20 
REMARK    5  A    between atoms: C_20  and  C_21 
ROOT
HETATM    1  C   UNL     1      39.340 -13.994   2.151  1.00  0.00     0.072 C 
HETATM    2  C   UNL     1      40.035 -14.080   3.464  1.00  0.00     0.056 C 
HETATM    3  N   UNL     1      39.939 -12.996   4.337  1.00  0.00    -0.228 NA
HETATM    4  C   UNL     1      40.674 -13.215   5.401  1.00  0.00     0.175 C 
HETATM    5  S   UNL     1      41.367 -14.759   5.505  1.00  0.00    -0.044 SA
HETATM    6  C   UNL     1      40.839 -15.117   3.913  1.00  0.00     0.100 C 
ENDROOT
BRANCH   4   7
HETATM    7  N   UNL     1      40.877 -12.244   6.351  1.00  0.00    -0.287 N 
HETATM    8  C   UNL     1      40.034 -11.962   7.410  1.00  0.00     0.326 C 
HETATM    9  N   UNL     1      40.615 -11.048   8.278  1.00  0.00    -0.309 N 
HETATM   10  O   UNL     1      38.931 -12.462   7.587  1.00  0.00    -0.247 OA
HETATM   11  H   UNL     1      41.460 -10.596   7.962  1.00  0.00     0.170 HD
HETATM   12  H   UNL     1      41.815 -11.882   6.344  1.00  0.00     0.172 HD
BRANCH   9  13
HETATM   13  C   UNL     1      40.126 -10.641   9.541  1.00  0.00     0.037 A 
HETATM   14  C   UNL     1      40.692 -11.020  10.762  1.00  0.00     0.053 A 
HETATM   15  C   UNL     1      40.156 -10.550  11.963  1.00  0.00     0.036 A 
HETATM   16 CL   UNL     1      40.865 -11.025  13.459  1.00  0.00    -0.084 Cl
HETATM   17  C   UNL     1      39.057  -9.697  11.965  1.00  0.00     0.024 A 
HETATM   18  C   UNL     1      38.487  -9.310  10.755  1.00  0.00     0.004 A 
HETATM   19  C   UNL     1      39.019  -9.781   9.551  1.00  0.00     0.029 A 
ENDBRANCH   9  13
ENDBRANCH   4   7
BRANCH   6  20
HETATM   20  C   UNL     1      41.281 -16.315   3.221  1.00  0.00     0.260 C 
HETATM   21  N   UNL     1      42.647 -16.440   3.109  1.00  0.00    -0.352 N 
HETATM   22  H   UNL     1      43.229 -15.762   3.588  1.00  0.00     0.163 HD
HETATM   23  O   UNL     1      40.516 -17.133   2.721  1.00  0.00    -0.267 OA
BRANCH  21  24
HETATM   24  C   UNL     1      43.282 -17.367   2.206  1.00  0.00     0.161 C 
BRANCH  24  25
HETATM   25  C   UNL     1      43.826 -18.560   2.957  1.00  0.00    -0.040 A 
HETATM   26  C   UNL     1      44.154 -18.455   4.317  1.00  0.00     0.012 A 
HETATM   27  C   UNL     1      44.662 -19.558   5.009  1.00  0.00     0.043 A 
HETATM   28  C   UNL     1      44.841 -20.766   4.346  1.00  0.00     0.116 A 
HETATM   29  F   UNL     1      45.338 -21.817   5.011  1.00  0.00    -0.206 F 
HETATM   30  C   UNL     1      44.509 -20.899   3.005  1.00  0.00     0.043 A 
HETATM   31  C   UNL     1      43.991 -19.803   2.314  1.00  0.00     0.012 A 
ENDBRANCH  24  25
ENDBRANCH  21  24
ENDBRANCH   6  20
TORSDOF 5
ENDMDL
MODEL 6
REMARK VINA RESULT:      -8.7      6.615     10.154
REMARK  5 active torsions:
REMARK  status: ('A' for Active; 'I' for Inactive)
REMARK    1  A    between atoms: C_4  and  N_5 
REMARK       I    between atoms: N_5  and  C_6 
REMARK       I    between atoms: C_6  and  N_7 
REMARK    2  A    between atoms: N_7  and  C_8 
REMARK    3  A    between atoms: C_17  and  C_18 
REMARK       I    between atoms: C_18  and  N_19 
REMARK    4  A    between atoms: N_19  and  C_20 
REMARK    5  A    between atoms: C_20  and  C_21 
ROOT
HETATM    1  C   UNL     1      42.661 -18.858   1.676  1.00  0.00     0.072 C 
HETATM    2  C   UNL     1      41.814 -17.639   1.761  1.00  0.00     0.056 C 
HETATM    3  N   UNL     1      41.448 -17.001   0.575  1.00  0.00    -0.228 NA
HETATM    4  C   UNL     1      40.776 -15.908   0.847  1.00  0.00     0.175 C 
HETATM    5  S   UNL     1      40.395 -15.671   2.482  1.00  0.00    -0.044 SA
HETATM    6  C   UNL     1      41.378 -17.007   2.917  1.00  0.00     0.100 C 
ENDROOT
BRANCH   4   7
HETATM    7  N   UNL     1      40.425 -15.013  -0.134  1.00  0.00    -0.287 N 
HETATM    8  C   UNL     1      41.119 -13.864  -0.466  1.00  0.00     0.326 C 
HETATM    9  N   UNL     1      40.596 -13.279  -1.610  1.00  0.00    -0.309 N 
HETATM   10  O   UNL     1      42.085 -13.422   0.144  1.00  0.00    -0.247 OA
HETATM   11  H   UNL     1      39.718 -13.645  -1.946  1.00  0.00     0.170 HD
HETATM   12  H   UNL     1      39.720 -15.373  -0.756  1.00  0.00     0.172 HD
BRANCH   9  13
HETATM   13  C   UNL     1      41.135 -12.190  -2.334  1.00  0.00     0.037 A 
HETATM   14  C   UNL     1      41.090 -10.861  -1.903  1.00  0.00     0.053 A 
HETATM   15  C   UNL     1      41.670  -9.851  -2.674  1.00  0.00     0.036 A 
HETATM   16 CL   UNL     1      41.608  -8.218  -2.128  1.00  0.00    -0.084 Cl
HETATM   17  C   UNL     1      42.302 -10.149  -3.876  1.00  0.00     0.024 A 
HETATM   18  C   UNL     1      42.355 -11.469  -4.315  1.00  0.00     0.004 A 
HETATM   19  C   UNL     1      41.773 -12.483  -3.547  1.00  0.00     0.029 A 
ENDBRANCH   9  13
ENDBRANCH   4   7
BRANCH   6  20
HETATM   20  C   UNL     1      41.690 -17.297   4.306  1.00  0.00     0.260 C 
HETATM   21  N   UNL     1      42.994 -17.044   4.664  1.00  0.00    -0.352 N 
HETATM   22  H   UNL     1      43.597 -16.596   3.984  1.00  0.00     0.163 HD
HETATM   23  O   UNL     1      40.886 -17.779   5.097  1.00  0.00    -0.267 OA
BRANCH  21  24
HETATM   24  C   UNL     1      43.590 -17.545   5.878  1.00  0.00     0.161 C 
BRANCH  24  25
HETATM   25  C   UNL     1      44.001 -18.990   5.716  1.00  0.00    -0.040 A 
HETATM   26  C   UNL     1      43.627 -19.947   6.673  1.00  0.00     0.012 A 
HETATM   27  C   UNL     1      44.013 -21.282   6.526  1.00  0.00     0.043 A 
HETATM   28  C   UNL     1      44.771 -21.663   5.425  1.00  0.00     0.116 A 
HETATM   29  F   UNL     1      45.147 -22.943   5.294  1.00  0.00    -0.206 F 
HETATM   30  C   UNL     1      45.140 -20.739   4.458  1.00  0.00     0.043 A 
HETATM   31  C   UNL     1      44.746 -19.407   4.595  1.00  0.00     0.012 A 
ENDBRANCH  24  25
ENDBRANCH  21  24
ENDBRANCH   6  20
TORSDOF 5
ENDMDL
MODEL 7
REMARK VINA RESULT:      -8.6      5.984      8.883
REMARK  5 active torsions:
REMARK  status: ('A' for Active; 'I' for Inactive)
REMARK    1  A    between atoms: C_4  and  N_5 
REMARK       I    between atoms: N_5  and  C_6 
REMARK       I    between atoms: C_6  and  N_7 
REMARK    2  A    between atoms: N_7  and  C_8 
REMARK    3  A    between atoms: C_17  and  C_18 
REMARK       I    between atoms: C_18  and  N_19 
REMARK    4  A    between atoms: N_19  and  C_20 
REMARK    5  A    between atoms: C_20  and  C_21 
ROOT
HETATM    1  C   UNL     1      40.287 -14.196   5.799  1.00  0.00     0.072 C 
HETATM    2  C   UNL     1      41.259 -14.172   4.672  1.00  0.00     0.056 C 
HETATM    3  N   UNL     1      40.806 -13.768   3.416  1.00  0.00    -0.228 NA
HETATM    4  C   UNL     1      41.772 -13.887   2.536  1.00  0.00     0.175 C 
HETATM    5  S   UNL     1      43.288 -14.308   3.168  1.00  0.00    -0.044 SA
HETATM    6  C   UNL     1      42.586 -14.571   4.710  1.00  0.00     0.100 C 
ENDROOT
BRANCH   4   7
HETATM    7  N   UNL     1      41.554 -13.698   1.194  1.00  0.00    -0.287 N 
HETATM    8  C   UNL     1      40.961 -14.606   0.336  1.00  0.00     0.326 C 
HETATM    9  N   UNL     1      40.734 -14.039  -0.910  1.00  0.00    -0.309 N 
HETATM   10  O   UNL     1      40.648 -15.753   0.629  1.00  0.00    -0.247 OA
HETATM   11  H   UNL     1      41.159 -13.140  -1.084  1.00  0.00     0.170 HD
HETATM   12  H   UNL     1      41.668 -12.739   0.911  1.00  0.00     0.172 HD
BRANCH   9  13
HETATM   13  C   UNL     1      40.011 -14.604  -1.986  1.00  0.00     0.037 A 
HETATM   14  C   UNL     1      38.795 -14.106  -2.463  1.00  0.00     0.053 A 
HETATM   15  C   UNL     1      38.161 -14.715  -3.549  1.00  0.00     0.036 A 
HETATM   16 CL   UNL     1      36.664 -14.088  -4.126  1.00  0.00    -0.084 Cl
HETATM   17  C   UNL     1      38.728 -15.821  -4.173  1.00  0.00     0.024 A 
HETATM   18  C   UNL     1      39.940 -16.325  -3.708  1.00  0.00     0.004 A 
HETATM   19  C   UNL     1      40.576 -15.719  -2.620  1.00  0.00     0.029 A 
ENDBRANCH   9  13
ENDBRANCH   4   7
BRANCH   6  20
HETATM   20  C   UNL     1      43.341 -15.182   5.791  1.00  0.00     0.260 C 
HETATM   21  N   UNL     1      43.462 -16.550   5.703  1.00  0.00    -0.352 N 
HETATM   22  H   UNL     1      43.113 -17.006   4.868  1.00  0.00     0.163 HD
HETATM   23  O   UNL     1      43.795 -14.555   6.742  1.00  0.00    -0.267 OA
BRANCH  21  24
HETATM   24  C   UNL     1      43.887 -17.376   6.805  1.00  0.00     0.161 C 
BRANCH  24  25
HETATM   25  C   UNL     1      44.124 -18.797   6.349  1.00  0.00    -0.040 A 
HETATM   26  C   UNL     1      43.697 -19.878   7.137  1.00  0.00     0.012 A 
HETATM   27  C   UNL     1      43.922 -21.192   6.718  1.00  0.00     0.043 A 
HETATM   28  C   UNL     1      44.571 -21.429   5.512  1.00  0.00     0.116 A 
HETATM   29  F   UNL     1      44.794 -22.690   5.119  1.00  0.00    -0.206 F 
HETATM   30  C   UNL     1      44.989 -20.378   4.708  1.00  0.00     0.043 A 
HETATM   31  C   UNL     1      44.755 -19.065   5.118  1.00  0.00     0.012 A 
ENDBRANCH  24  25
ENDBRANCH  21  24
ENDBRANCH   6  20
TORSDOF 5
ENDMDL
MODEL 8
REMARK VINA RESULT:      -8.6      7.573     11.094
REMARK  5 active torsions:
REMARK  status: ('A' for Active; 'I' for Inactive)
REMARK    1  A    between atoms: C_4  and  N_5 
REMARK       I    between atoms: N_5  and  C_6 
REMARK       I    between atoms: C_6  and  N_7 
REMARK    2  A    between atoms: N_7  and  C_8 
REMARK    3  A    between atoms: C_17  and  C_18 
REMARK       I    between atoms: C_18  and  N_19 
REMARK    4  A    between atoms: N_19  and  C_20 
REMARK    5  A    between atoms: C_20  and  C_21 
ROOT
HETATM    1  C   UNL     1      42.235 -12.801   2.323  1.00  0.00     0.072 C 
HETATM    2  C   UNL     1      41.780 -13.936   1.476  1.00  0.00     0.056 C 
HETATM    3  N   UNL     1      41.295 -13.657   0.198  1.00  0.00    -0.228 NA
HETATM    4  C   UNL     1      40.869 -14.761  -0.368  1.00  0.00     0.175 C 
HETATM    5  S   UNL     1      41.173 -16.188   0.496  1.00  0.00    -0.044 SA
HETATM    6  C   UNL     1      41.725 -15.274   1.837  1.00  0.00     0.100 C 
ENDROOT
BRANCH   4   7
HETATM    7  N   UNL     1      40.205 -14.747  -1.570  1.00  0.00    -0.287 N 
HETATM    8  C   UNL     1      38.914 -14.297  -1.775  1.00  0.00     0.326 C 
HETATM    9  N   UNL     1      38.610 -14.258  -3.128  1.00  0.00    -0.309 N 
HETATM   10  O   UNL     1      38.139 -13.950  -0.893  1.00  0.00    -0.247 OA
HETATM   11  H   UNL     1      39.267 -14.699  -3.754  1.00  0.00     0.170 HD
HETATM   12  H   UNL     1      40.817 -14.897  -2.355  1.00  0.00     0.172 HD
BRANCH   9  13
HETATM   13  C   UNL     1      37.451 -13.710  -3.727  1.00  0.00     0.037 A 
HETATM   14  C   UNL     1      37.180 -12.341  -3.805  1.00  0.00     0.053 A 
HETATM   15  C   UNL     1      36.020 -11.887  -4.437  1.00  0.00     0.036 A 
HETATM   16 CL   UNL     1      35.700 -10.197  -4.525  1.00  0.00    -0.084 Cl
HETATM   17  C   UNL     1      35.120 -12.786  -5.001  1.00  0.00     0.024 A 
HETATM   18  C   UNL     1      35.381 -14.152  -4.931  1.00  0.00     0.004 A 
HETATM   19  C   UNL     1      36.540 -14.610  -4.297  1.00  0.00     0.029 A 
ENDBRANCH   9  13
ENDBRANCH   4   7
BRANCH   6  20
HETATM   20  C   UNL     1      41.999 -15.901   3.119  1.00  0.00     0.260 C 
HETATM   21  N   UNL     1      43.221 -16.529   3.199  1.00  0.00    -0.352 N 
HETATM   22  H   UNL     1      43.861 -16.429   2.420  1.00  0.00     0.163 HD
HETATM   23  O   UNL     1      41.199 -15.926   4.048  1.00  0.00    -0.267 OA
BRANCH  21  24
HETATM   24  C   UNL     1      43.559 -17.465   4.243  1.00  0.00     0.161 C 
BRANCH  24  25
HETATM   25  C   UNL     1      43.839 -18.833   3.666  1.00  0.00    -0.040 A 
HETATM   26  C   UNL     1      44.610 -19.762   4.382  1.00  0.00     0.012 A 
HETATM   27  C   UNL     1      44.874 -21.025   3.846  1.00  0.00     0.043 A 
HETATM   28  C   UNL     1      44.368 -21.363   2.597  1.00  0.00     0.116 A 
HETATM   29  F   UNL     1      44.632 -22.572   2.082  1.00  0.00    -0.206 F 
HETATM   30  C   UNL     1      43.590 -20.468   1.876  1.00  0.00     0.043 A 
HETATM   31  C   UNL     1      43.314 -19.210   2.414  1.00  0.00     0.012 A 
ENDBRANCH  24  25
ENDBRANCH  21  24
ENDBRANCH   6  20
TORSDOF 5
ENDMDL
MODEL 9
REMARK VINA RESULT:      -8.6      4.918     10.272
REMARK  5 active torsions:
REMARK  status: ('A' for Active; 'I' for Inactive)
REMARK    1  A    between atoms: C_4  and  N_5 
REMARK       I    between atoms: N_5  and  C_6 
REMARK       I    between atoms: C_6  and  N_7 
REMARK    2  A    between atoms: N_7  and  C_8 
REMARK    3  A    between atoms: C_17  and  C_18 
REMARK       I    between atoms: C_18  and  N_19 
REMARK    4  A    between atoms: N_19  and  C_20 
REMARK    5  A    between atoms: C_20  and  C_21 
ROOT
HETATM    1  C   UNL     1      38.613 -11.624   2.994  1.00  0.00     0.072 C 
HETATM    2  C   UNL     1      39.119 -12.367   4.179  1.00  0.00     0.056 C 
HETATM    3  N   UNL     1      38.912 -11.817   5.445  1.00  0.00    -0.228 NA
HETATM    4  C   UNL     1      39.491 -12.563   6.355  1.00  0.00     0.175 C 
HETATM    5  S   UNL     1      40.152 -14.020   5.792  1.00  0.00    -0.044 SA
HETATM    6  C   UNL     1      39.846 -13.548   4.173  1.00  0.00     0.100 C 
ENDROOT
BRANCH   4   7
HETATM    7  N   UNL     1      39.568 -12.171   7.669  1.00  0.00    -0.287 N 
HETATM    8  C   UNL     1      40.505 -11.304   8.199  1.00  0.00     0.326 C 
HETATM    9  N   UNL     1      40.199 -10.984   9.514  1.00  0.00    -0.309 N 
HETATM   10  O   UNL     1      41.469 -10.850   7.596  1.00  0.00    -0.247 OA
HETATM   11  H   UNL     1      39.468 -11.523   9.954  1.00  0.00     0.170 HD
HETATM   12  H   UNL     1      38.741 -12.401   8.193  1.00  0.00     0.172 HD
BRANCH   9  13
HETATM   13  C   UNL     1      40.832 -10.014  10.326  1.00  0.00     0.037 A 
HETATM   14  C   UNL     1      41.807 -10.308  11.285  1.00  0.00     0.053 A 
HETATM   15  C   UNL     1      42.396  -9.282  12.027  1.00  0.00     0.036 A 
HETATM   16 CL   UNL     1      43.597  -9.658  13.203  1.00  0.00    -0.084 Cl
HETATM   17  C   UNL     1      42.028  -7.955  11.823  1.00  0.00     0.024 A 
HETATM   18  C   UNL     1      41.060  -7.651  10.870  1.00  0.00     0.004 A 
HETATM   19  C   UNL     1      40.465  -8.676  10.127  1.00  0.00     0.029 A 
ENDBRANCH   9  13
ENDBRANCH   4   7
BRANCH   6  20
HETATM   20  C   UNL     1      40.371 -14.308   3.051  1.00  0.00     0.260 C 
HETATM   21  N   UNL     1      39.849 -15.575   2.924  1.00  0.00    -0.352 N 
HETATM   22  H   UNL     1      39.090 -15.842   3.541  1.00  0.00     0.163 HD
HETATM   23  O   UNL     1      41.247 -13.894   2.299  1.00  0.00    -0.267 OA
BRANCH  21  24
HETATM   24  C   UNL     1      40.443 -16.593   2.094  1.00  0.00     0.161 C 
BRANCH  24  25
HETATM   25  C   UNL     1      41.533 -17.325   2.841  1.00  0.00    -0.040 A 
HETATM   26  C   UNL     1      42.626 -17.871   2.149  1.00  0.00     0.012 A 
HETATM   27  C   UNL     1      43.631 -18.553   2.839  1.00  0.00     0.043 A 
HETATM   28  C   UNL     1      43.548 -18.690   4.220  1.00  0.00     0.116 A 
HETATM   29  F   UNL     1      44.509 -19.354   4.876  1.00  0.00    -0.206 F 
HETATM   30  C   UNL     1      42.486 -18.146   4.928  1.00  0.00     0.043 A 
HETATM   31  C   UNL     1      41.487 -17.454   4.243  1.00  0.00     0.012 A 
ENDBRANCH  24  25
ENDBRANCH  21  24
ENDBRANCH   6  20
TORSDOF 5
ENDMDL
MODEL 10
REMARK VINA RESULT:      -8.6      2.397      3.082
REMARK  5 active torsions:
REMARK  status: ('A' for Active; 'I' for Inactive)
REMARK    1  A    between atoms: C_4  and  N_5 
REMARK       I    between atoms: N_5  and  C_6 
REMARK       I    between atoms: C_6  and  N_7 
REMARK    2  A    between atoms: N_7  and  C_8 
REMARK    3  A    between atoms: C_17  and  C_18 
REMARK       I    between atoms: C_18  and  N_19 
REMARK    4  A    between atoms: N_19  and  C_20 
REMARK    5  A    between atoms: C_20  and  C_21 
ROOT
HETATM    1  C   UNL     1      38.579 -10.642   4.006  1.00  0.00     0.072 C 
HETATM    2  C   UNL     1      39.253 -11.816   4.624  1.00  0.00     0.056 C 
HETATM    3  N   UNL     1      39.482 -12.941   3.832  1.00  0.00    -0.228 NA
HETATM    4  C   UNL     1      40.008 -13.898   4.559  1.00  0.00     0.175 C 
HETATM    5  S   UNL     1      40.413 -13.468   6.149  1.00  0.00    -0.044 SA
HETATM    6  C   UNL     1      39.640 -11.950   5.948  1.00  0.00     0.100 C 
ENDROOT
BRANCH   4   7
HETATM    7  N   UNL     1      40.195 -15.164   4.062  1.00  0.00    -0.287 N 
HETATM    8  C   UNL     1      41.413 -15.737   3.749  1.00  0.00     0.326 C 
HETATM    9  N   UNL     1      41.266 -17.081   3.437  1.00  0.00    -0.309 N 
HETATM   10  O   UNL     1      42.491 -15.157   3.765  1.00  0.00    -0.247 OA
HETATM   11  H   UNL     1      40.322 -17.418   3.316  1.00  0.00     0.170 HD
HETATM   12  H   UNL     1      39.373 -15.739   4.142  1.00  0.00     0.172 HD
BRANCH   9  13
HETATM   13  C   UNL     1      42.297 -18.025   3.221  1.00  0.00     0.037 A 
HETATM   14  C   UNL     1      43.080 -18.580   4.237  1.00  0.00     0.053 A 
HETATM   15  C   UNL     1      44.062 -19.526   3.933  1.00  0.00     0.036 A 
HETATM   16 CL   UNL     1      45.018 -20.201   5.196  1.00  0.00    -0.084 Cl
HETATM   17  C   UNL     1      44.274 -19.932   2.620  1.00  0.00     0.024 A 
HETATM   18  C   UNL     1      43.499 -19.388   1.600  1.00  0.00     0.004 A 
HETATM   19  C   UNL     1      42.516 -18.439   1.900  1.00  0.00     0.029 A 
ENDBRANCH   9  13
ENDBRANCH   4   7
BRANCH   6  20
HETATM   20  C   UNL     1      39.423 -11.057   7.074  1.00  0.00     0.260 C 
HETATM   21  N   UNL     1      39.837 -11.556   8.288  1.00  0.00    -0.352 N 
HETATM   22  H   UNL     1      40.336 -12.438   8.296  1.00  0.00     0.163 HD
HETATM   23  O   UNL     1      38.869  -9.967   6.979  1.00  0.00    -0.267 OA
BRANCH  21  24
HETATM   24  C   UNL     1      39.439 -10.985   9.551  1.00  0.00     0.161 C 
BRANCH  24  25
HETATM   25  C   UNL     1      40.638 -10.781  10.447  1.00  0.00    -0.040 A 
HETATM   26  C   UNL     1      41.804 -10.178   9.950  1.00  0.00     0.012 A 
HETATM   27  C   UNL     1      42.914  -9.994  10.778  1.00  0.00     0.043 A 
HETATM   28  C   UNL     1      42.862 -10.411  12.103  1.00  0.00     0.116 A 
HETATM   29  F   UNL     1      43.933 -10.242  12.891  1.00  0.00    -0.206 F 
HETATM   30  C   UNL     1      41.716 -10.996  12.622  1.00  0.00     0.043 A 
HETATM   31  C   UNL     1      40.601 -11.170  11.801  1.00  0.00     0.012 A 
ENDBRANCH  24  25
ENDBRANCH  21  24
ENDBRANCH   6  20
TORSDOF 5
ENDMDL
