MODEL 1
REMARK VINA RESULT:      -7.9      0.000      0.000
REMARK  10 active torsions:
REMARK  status: ('A' for Active; 'I' for Inactive)
REMARK    1  A    between atoms: C_2  and  O_3 
REMARK    2  A    between atoms: O_3  and  C_4 
REMARK    3  A    between atoms: C_4  and  C_5 
REMARK    4  A    between atoms: C_10  and  N_11 
REMARK       I    between atoms: N_11  and  C_12 
REMARK    5  A    between atoms: C_12  and  C_13 
REMARK    6  A    between atoms: C_13  and  C_14 
REMARK    7  A    between atoms: C_14  and  N_15 
REMARK    8  A    between atoms: C_19  and  C_20 
REMARK    9  A    between atoms: C_20  and  O_21 
REMARK   10  A    between atoms: O_21  and  C_22 
ROOT
HETATM    1  N   UNL     1      40.889 -16.890   3.370  1.00  0.00    -0.324 N 
HETATM    2  C   UNL     1      40.534 -16.519   2.117  1.00  0.00     0.223 C 
HETATM    3  O   UNL     1      39.378 -16.128   1.926  1.00  0.00    -0.273 OA
HETATM    4  H   UNL     1      40.085 -16.784   3.997  1.00  0.00     0.169 HD
ENDROOT
BRANCH   1   5
HETATM    5  C   UNL     1      42.025 -17.397   3.999  1.00  0.00     0.080 A 
HETATM    6  C   UNL     1      42.496 -16.717   5.124  1.00  0.00     0.137 A 
HETATM    7  N   UNL     1      43.571 -17.406   5.616  1.00  0.00    -0.349 N 
HETATM    8  H   UNL     1      44.093 -17.130   6.439  1.00  0.00     0.166 HD
HETATM    9  C   UNL     1      43.856 -18.490   4.831  1.00  0.00     0.045 A 
HETATM   10  C   UNL     1      42.923 -18.511   3.784  1.00  0.00     0.021 A 
HETATM   11  C   UNL     1      44.886 -19.430   4.988  1.00  0.00     0.032 A 
HETATM   12  C   UNL     1      43.096 -19.547   2.837  1.00  0.00     0.035 A 
HETATM   13  C   UNL     1      44.126 -20.489   2.972  1.00  0.00     0.012 A 
HETATM   14  C   UNL     1      45.007 -20.440   4.037  1.00  0.00     0.021 A 
HETATM   15 BR   UNL     1      44.304 -21.845   1.661  1.00  0.00    -0.051 Br
BRANCH   6  16
HETATM   16  C   UNL     1      41.999 -15.500   5.728  1.00  0.00     0.312 C 
HETATM   17  O   UNL     1      40.888 -15.384   6.227  1.00  0.00    -0.258 OA
BRANCH  16  18
HETATM   18  O   UNL     1      42.937 -14.518   5.636  1.00  0.00    -0.317 OA
BRANCH  18  19
HETATM   19  C   UNL     1      42.619 -13.435   4.747  1.00  0.00     0.175 C 
HETATM   20  C   UNL     1      43.202 -13.697   3.372  1.00  0.00     0.034 C 
ENDBRANCH  18  19
ENDBRANCH  16  18
ENDBRANCH   6  16
ENDBRANCH   1   5
BRANCH   2  21
HETATM   21  C   UNL     1      41.489 -16.560   0.965  1.00  0.00     0.131 C 
BRANCH  21  22
HETATM   22  C   UNL     1      41.418 -15.239   0.206  1.00  0.00     0.244 C 
BRANCH  22  23
HETATM   23  N   UNL     1      40.384 -15.251  -0.927  1.00  0.00    -0.071 N 
HETATM   24  H   UNL     1      39.794 -16.084  -0.787  1.00  0.00     0.279 HD
HETATM   25  C   UNL     1      39.488 -14.034  -0.766  1.00  0.00     0.235 C 
HETATM   26  C   UNL     1      38.444 -13.982  -1.871  1.00  0.00     0.042 C 
HETATM   27  C   UNL     1      39.088 -13.992  -3.258  1.00  0.00     0.088 C 
HETATM   28  C   UNL     1      39.940 -15.259  -3.389  1.00  0.00     0.042 C 
HETATM   29  C   UNL     1      41.007 -15.355  -2.303  1.00  0.00     0.235 C 
BRANCH  27  30
HETATM   30  C   UNL     1      39.940 -12.753  -3.508  1.00  0.00     0.263 C 
HETATM   31  O   UNL     1      39.515 -11.610  -3.409  1.00  0.00    -0.265 OA
BRANCH  30  32
HETATM   32  O   UNL     1      41.190 -13.093  -3.910  1.00  0.00    -0.322 OA
BRANCH  32  33
HETATM   33  C   UNL     1      42.211 -12.104  -3.681  1.00  0.00     0.174 C 
HETATM   34  C   UNL     1      42.756 -12.238  -2.270  1.00  0.00     0.034 C 
ENDBRANCH  32  33
ENDBRANCH  30  32
ENDBRANCH  27  30
ENDBRANCH  22  23
ENDBRANCH  21  22
ENDBRANCH   2  21
TORSDOF 10
ENDMDL
MODEL 2
REMARK VINA RESULT:      -7.8      2.526      3.544
REMARK  10 active torsions:
REMARK  status: ('A' for Active; 'I' for Inactive)
REMARK    1  A    between atoms: C_2  and  O_3 
REMARK    2  A    between atoms: O_3  and  C_4 
REMARK    3  A    between atoms: C_4  and  C_5 
REMARK    4  A    between atoms: C_10  and  N_11 
REMARK       I    between atoms: N_11  and  C_12 
REMARK    5  A    between atoms: C_12  and  C_13 
REMARK    6  A    between atoms: C_13  and  C_14 
REMARK    7  A    between atoms: C_14  and  N_15 
REMARK    8  A    between atoms: C_19  and  C_20 
REMARK    9  A    between atoms: C_20  and  O_21 
REMARK   10  A    between atoms: O_21  and  C_22 
ROOT
HETATM    1  N   UNL     1      43.434 -16.408   4.369  1.00  0.00    -0.324 N 
HETATM    2  C   UNL     1      42.335 -15.913   3.753  1.00  0.00     0.223 C 
HETATM    3  O   UNL     1      42.346 -14.731   3.393  1.00  0.00    -0.273 OA
HETATM    4  H   UNL     1      44.142 -15.671   4.448  1.00  0.00     0.169 HD
ENDROOT
BRANCH   1   5
HETATM    5  C   UNL     1      43.824 -17.619   4.939  1.00  0.00     0.080 A 
HETATM    6  C   UNL     1      44.095 -17.629   6.308  1.00  0.00     0.137 A 
HETATM    7  N   UNL     1      44.400 -18.913   6.670  1.00  0.00    -0.349 N 
HETATM    8  H   UNL     1      44.627 -19.197   7.616  1.00  0.00     0.166 HD
HETATM    9  C   UNL     1      44.385 -19.743   5.583  1.00  0.00     0.045 A 
HETATM   10  C   UNL     1      44.051 -18.966   4.463  1.00  0.00     0.021 A 
HETATM   11  C   UNL     1      44.659 -21.118   5.535  1.00  0.00     0.032 A 
HETATM   12  C   UNL     1      44.036 -19.657   3.229  1.00  0.00     0.035 A 
HETATM   13  C   UNL     1      44.317 -21.029   3.161  1.00  0.00     0.012 A 
HETATM   14  C   UNL     1      44.617 -21.757   4.298  1.00  0.00     0.021 A 
HETATM   15 BR   UNL     1      44.286 -21.887   1.472  1.00  0.00    -0.051 Br
BRANCH   6  16
HETATM   16  C   UNL     1      44.081 -16.529   7.249  1.00  0.00     0.312 C 
HETATM   17  O   UNL     1      43.565 -16.581   8.357  1.00  0.00    -0.258 OA
BRANCH  16  18
HETATM   18  O   UNL     1      44.701 -15.446   6.708  1.00  0.00    -0.317 OA
BRANCH  18  19
HETATM   19  C   UNL     1      44.167 -14.168   7.091  1.00  0.00     0.175 C 
HETATM   20  C   UNL     1      45.249 -13.317   7.727  1.00  0.00     0.034 C 
ENDBRANCH  18  19
ENDBRANCH  16  18
ENDBRANCH   6  16
ENDBRANCH   1   5
BRANCH   2  21
HETATM   21  C   UNL     1      41.118 -16.744   3.488  1.00  0.00     0.131 C 
BRANCH  21  22
HETATM   22  C   UNL     1      41.091 -17.140   2.015  1.00  0.00     0.244 C 
BRANCH  22  23
HETATM   23  N   UNL     1      40.229 -16.203   1.158  1.00  0.00    -0.071 N 
HETATM   24  H   UNL     1      39.666 -16.798   0.534  1.00  0.00     0.279 HD
HETATM   25  C   UNL     1      39.263 -15.473   2.076  1.00  0.00     0.235 C 
HETATM   26  C   UNL     1      38.385 -14.516   1.285  1.00  0.00     0.042 C 
HETATM   27  C   UNL     1      39.219 -13.515   0.484  1.00  0.00     0.088 C 
HETATM   28  C   UNL     1      40.140 -14.296  -0.460  1.00  0.00     0.042 C 
HETATM   29  C   UNL     1      41.046 -15.270   0.289  1.00  0.00     0.235 C 
BRANCH  27  30
HETATM   30  C   UNL     1      40.038 -12.595   1.381  1.00  0.00     0.263 C 
HETATM   31  O   UNL     1      41.210 -12.315   1.171  1.00  0.00    -0.265 OA
BRANCH  30  32
HETATM   32  O   UNL     1      39.317 -12.192   2.456  1.00  0.00    -0.322 OA
BRANCH  32  33
HETATM   33  C   UNL     1      40.073 -11.918   3.650  1.00  0.00     0.174 C 
HETATM   34  C   UNL     1      39.652 -12.866   4.760  1.00  0.00     0.034 C 
ENDBRANCH  32  33
ENDBRANCH  30  32
ENDBRANCH  27  30
ENDBRANCH  22  23
ENDBRANCH  21  22
ENDBRANCH   2  21
TORSDOF 10
ENDMDL
MODEL 3
REMARK VINA RESULT:      -7.8      2.266      2.886
REMARK  10 active torsions:
REMARK  status: ('A' for Active; 'I' for Inactive)
REMARK    1  A    between atoms: C_2  and  O_3 
REMARK    2  A    between atoms: O_3  and  C_4 
REMARK    3  A    between atoms: C_4  and  C_5 
REMARK    4  A    between atoms: C_10  and  N_11 
REMARK       I    between atoms: N_11  and  C_12 
REMARK    5  A    between atoms: C_12  and  C_13 
REMARK    6  A    between atoms: C_13  and  C_14 
REMARK    7  A    between atoms: C_14  and  N_15 
REMARK    8  A    between atoms: C_19  and  C_20 
REMARK    9  A    between atoms: C_20  and  O_21 
REMARK   10  A    between atoms: O_21  and  C_22 
ROOT
HETATM    1  N   UNL     1      43.478 -16.359   4.343  1.00  0.00    -0.324 N 
HETATM    2  C   UNL     1      42.361 -15.813   3.807  1.00  0.00     0.223 C 
HETATM    3  O   UNL     1      42.416 -14.649   3.396  1.00  0.00    -0.273 OA
HETATM    4  H   UNL     1      44.237 -15.671   4.324  1.00  0.00     0.169 HD
ENDROOT
BRANCH   1   5
HETATM    5  C   UNL     1      43.839 -17.572   4.928  1.00  0.00     0.080 A 
HETATM    6  C   UNL     1      44.089 -17.574   6.302  1.00  0.00     0.137 A 
HETATM    7  N   UNL     1      44.367 -18.860   6.679  1.00  0.00    -0.349 N 
HETATM    8  H   UNL     1      44.575 -19.140   7.630  1.00  0.00     0.166 HD
HETATM    9  C   UNL     1      44.355 -19.699   5.598  1.00  0.00     0.045 A 
HETATM   10  C   UNL     1      44.051 -18.926   4.468  1.00  0.00     0.021 A 
HETATM   11  C   UNL     1      44.606 -21.079   5.566  1.00  0.00     0.032 A 
HETATM   12  C   UNL     1      44.042 -19.627   3.239  1.00  0.00     0.035 A 
HETATM   13  C   UNL     1      44.301 -21.004   3.186  1.00  0.00     0.012 A 
HETATM   14  C   UNL     1      44.572 -21.727   4.334  1.00  0.00     0.021 A 
HETATM   15 BR   UNL     1      44.281 -21.876   1.505  1.00  0.00    -0.051 Br
BRANCH   6  16
HETATM   16  C   UNL     1      44.080 -16.467   7.233  1.00  0.00     0.312 C 
HETATM   17  O   UNL     1      43.568 -16.508   8.343  1.00  0.00    -0.258 OA
BRANCH  16  18
HETATM   18  O   UNL     1      44.698 -15.388   6.680  1.00  0.00    -0.317 OA
BRANCH  18  19
HETATM   19  C   UNL     1      44.127 -14.110   7.003  1.00  0.00     0.175 C 
HETATM   20  C   UNL     1      45.067 -13.326   7.897  1.00  0.00     0.034 C 
ENDBRANCH  18  19
ENDBRANCH  16  18
ENDBRANCH   6  16
ENDBRANCH   1   5
BRANCH   2  21
HETATM   21  C   UNL     1      41.072 -16.566   3.692  1.00  0.00     0.131 C 
BRANCH  21  22
HETATM   22  C   UNL     1      41.003 -17.235   2.323  1.00  0.00     0.244 C 
BRANCH  22  23
HETATM   23  N   UNL     1      40.340 -16.354   1.257  1.00  0.00    -0.071 N 
HETATM   24  H   UNL     1      39.738 -16.968   0.690  1.00  0.00     0.279 HD
HETATM   25  C   UNL     1      39.432 -15.359   1.960  1.00  0.00     0.235 C 
HETATM   26  C   UNL     1      38.751 -14.444   0.954  1.00  0.00     0.042 C 
HETATM   27  C   UNL     1      39.768 -13.711   0.078  1.00  0.00     0.088 C 
HETATM   28  C   UNL     1      40.625 -14.755  -0.646  1.00  0.00     0.042 C 
HETATM   29  C   UNL     1      41.334 -15.697   0.323  1.00  0.00     0.235 C 
BRANCH  27  30
HETATM   30  C   UNL     1      40.652 -12.767   0.884  1.00  0.00     0.263 C 
HETATM   31  O   UNL     1      40.259 -12.142   1.860  1.00  0.00    -0.265 OA
BRANCH  30  32
HETATM   32  O   UNL     1      41.890 -12.671   0.339  1.00  0.00    -0.322 OA
BRANCH  32  33
HETATM   33  C   UNL     1      42.311 -11.345  -0.030  1.00  0.00     0.174 C 
HETATM   34  C   UNL     1      42.941 -11.367  -1.412  1.00  0.00     0.034 C 
ENDBRANCH  32  33
ENDBRANCH  30  32
ENDBRANCH  27  30
ENDBRANCH  22  23
ENDBRANCH  21  22
ENDBRANCH   2  21
TORSDOF 10
ENDMDL
MODEL 4
REMARK VINA RESULT:      -7.7      0.973      1.972
REMARK  10 active torsions:
REMARK  status: ('A' for Active; 'I' for Inactive)
REMARK    1  A    between atoms: C_2  and  O_3 
REMARK    2  A    between atoms: O_3  and  C_4 
REMARK    3  A    between atoms: C_4  and  C_5 
REMARK    4  A    between atoms: C_10  and  N_11 
REMARK       I    between atoms: N_11  and  C_12 
REMARK    5  A    between atoms: C_12  and  C_13 
REMARK    6  A    between atoms: C_13  and  C_14 
REMARK    7  A    between atoms: C_14  and  N_15 
REMARK    8  A    between atoms: C_19  and  C_20 
REMARK    9  A    between atoms: C_20  and  O_21 
REMARK   10  A    between atoms: O_21  and  C_22 
ROOT
HETATM    1  N   UNL     1      40.957 -16.876   3.443  1.00  0.00    -0.324 N 
HETATM    2  C   UNL     1      40.734 -16.277   2.249  1.00  0.00     0.223 C 
HETATM    3  O   UNL     1      39.579 -15.944   1.967  1.00  0.00    -0.273 OA
HETATM    4  H   UNL     1      40.070 -16.966   3.950  1.00  0.00     0.169 HD
ENDROOT
BRANCH   1   5
HETATM    5  C   UNL     1      42.046 -17.417   4.125  1.00  0.00     0.080 A 
HETATM    6  C   UNL     1      42.443 -16.788   5.306  1.00  0.00     0.137 A 
HETATM    7  N   UNL     1      43.480 -17.505   5.839  1.00  0.00    -0.349 N 
HETATM    8  H   UNL     1      43.947 -17.267   6.706  1.00  0.00     0.166 HD
HETATM    9  C   UNL     1      43.813 -18.556   5.029  1.00  0.00     0.045 A 
HETATM   10  C   UNL     1      42.952 -18.526   3.923  1.00  0.00     0.021 A 
HETATM   11  C   UNL     1      44.826 -19.509   5.215  1.00  0.00     0.032 A 
HETATM   12  C   UNL     1      43.184 -19.523   2.946  1.00  0.00     0.035 A 
HETATM   13  C   UNL     1      44.199 -20.477   3.110  1.00  0.00     0.012 A 
HETATM   14  C   UNL     1      45.007 -20.479   4.232  1.00  0.00     0.021 A 
HETATM   15 BR   UNL     1      44.459 -21.777   1.757  1.00  0.00    -0.051 Br
BRANCH   6  16
HETATM   16  C   UNL     1      41.912 -15.594   5.928  1.00  0.00     0.312 C 
HETATM   17  O   UNL     1      40.734 -15.437   6.217  1.00  0.00    -0.258 OA
BRANCH  16  18
HETATM   18  O   UNL     1      42.906 -14.684   6.115  1.00  0.00    -0.317 OA
BRANCH  18  19
HETATM   19  C   UNL     1      42.762 -13.448   5.397  1.00  0.00     0.175 C 
HETATM   20  C   UNL     1      43.274 -13.602   3.978  1.00  0.00     0.034 C 
ENDBRANCH  18  19
ENDBRANCH  16  18
ENDBRANCH   6  16
ENDBRANCH   1   5
BRANCH   2  21
HETATM   21  C   UNL     1      41.833 -16.003   1.269  1.00  0.00     0.131 C 
BRANCH  21  22
HETATM   22  C   UNL     1      41.325 -16.272  -0.143  1.00  0.00     0.244 C 
BRANCH  22  23
HETATM   23  N   UNL     1      41.754 -15.197  -1.150  1.00  0.00    -0.071 N 
HETATM   24  H   UNL     1      42.739 -15.382  -1.386  1.00  0.00     0.279 HD
HETATM   25  C   UNL     1      40.944 -15.388  -2.423  1.00  0.00     0.235 C 
HETATM   26  C   UNL     1      41.316 -14.341  -3.461  1.00  0.00     0.042 C 
HETATM   27  C   UNL     1      41.136 -12.921  -2.922  1.00  0.00     0.088 C 
HETATM   28  C   UNL     1      42.008 -12.764  -1.671  1.00  0.00     0.042 C 
HETATM   29  C   UNL     1      41.669 -13.791  -0.595  1.00  0.00     0.235 C 
BRANCH  27  30
HETATM   30  C   UNL     1      39.681 -12.606  -2.596  1.00  0.00     0.263 C 
HETATM   31  O   UNL     1      39.330 -12.003  -1.592  1.00  0.00    -0.265 OA
BRANCH  30  32
HETATM   32  O   UNL     1      38.847 -13.134  -3.526  1.00  0.00    -0.322 OA
BRANCH  32  33
HETATM   33  C   UNL     1      37.644 -13.738  -3.016  1.00  0.00     0.174 C 
HETATM   34  C   UNL     1      37.397 -15.067  -3.709  1.00  0.00     0.034 C 
ENDBRANCH  32  33
ENDBRANCH  30  32
ENDBRANCH  27  30
ENDBRANCH  22  23
ENDBRANCH  21  22
ENDBRANCH   2  21
TORSDOF 10
ENDMDL
MODEL 5
REMARK VINA RESULT:      -7.2      2.053      2.896
REMARK  10 active torsions:
REMARK  status: ('A' for Active; 'I' for Inactive)
REMARK    1  A    between atoms: C_2  and  O_3 
REMARK    2  A    between atoms: O_3  and  C_4 
REMARK    3  A    between atoms: C_4  and  C_5 
REMARK    4  A    between atoms: C_10  and  N_11 
REMARK       I    between atoms: N_11  and  C_12 
REMARK    5  A    between atoms: C_12  and  C_13 
REMARK    6  A    between atoms: C_13  and  C_14 
REMARK    7  A    between atoms: C_14  and  N_15 
REMARK    8  A    between atoms: C_19  and  C_20 
REMARK    9  A    between atoms: C_20  and  O_21 
REMARK   10  A    between atoms: O_21  and  C_22 
ROOT
HETATM    1  N   UNL     1      42.810 -15.827   1.440  1.00  0.00    -0.324 N 
HETATM    2  C   UNL     1      41.631 -15.536   0.843  1.00  0.00     0.223 C 
HETATM    3  O   UNL     1      41.645 -14.837  -0.175  1.00  0.00    -0.273 OA
HETATM    4  H   UNL     1      43.574 -15.385   0.919  1.00  0.00     0.169 HD
ENDROOT
BRANCH   1   5
HETATM    5  C   UNL     1      43.236 -16.524   2.570  1.00  0.00     0.080 A 
HETATM    6  C   UNL     1      43.380 -15.802   3.756  1.00  0.00     0.137 A 
HETATM    7  N   UNL     1      43.745 -16.678   4.743  1.00  0.00    -0.349 N 
HETATM    8  H   UNL     1      43.905 -16.411   5.707  1.00  0.00     0.166 HD
HETATM    9  C   UNL     1      43.894 -17.943   4.242  1.00  0.00     0.045 A 
HETATM   10  C   UNL     1      43.607 -17.890   2.870  1.00  0.00     0.021 A 
HETATM   11  C   UNL     1      44.273 -19.108   4.924  1.00  0.00     0.032 A 
HETATM   12  C   UNL     1      43.757 -19.111   2.172  1.00  0.00     0.035 A 
HETATM   13  C   UNL     1      44.145 -20.284   2.836  1.00  0.00     0.012 A 
HETATM   14  C   UNL     1      44.394 -20.289   4.196  1.00  0.00     0.021 A 
HETATM   15 BR   UNL     1      44.335 -21.881   1.835  1.00  0.00    -0.051 Br
BRANCH   6  16
HETATM   16  C   UNL     1      43.197 -14.386   3.990  1.00  0.00     0.312 C 
HETATM   17  O   UNL     1      43.443 -13.517   3.166  1.00  0.00    -0.258 OA
BRANCH  16  18
HETATM   18  O   UNL     1      42.737 -14.179   5.254  1.00  0.00    -0.317 OA
BRANCH  18  19
HETATM   19  C   UNL     1      41.691 -13.204   5.384  1.00  0.00     0.175 C 
HETATM   20  C   UNL     1      40.414 -13.865   5.864  1.00  0.00     0.034 C 
ENDBRANCH  18  19
ENDBRANCH  16  18
ENDBRANCH   6  16
ENDBRANCH   1   5
BRANCH   2  21
HETATM   21  C   UNL     1      40.319 -16.035   1.366  1.00  0.00     0.131 C 
BRANCH  21  22
HETATM   22  C   UNL     1      39.920 -15.213   2.587  1.00  0.00     0.244 C 
BRANCH  22  23
HETATM   23  N   UNL     1      38.933 -14.086   2.254  1.00  0.00    -0.071 N 
HETATM   24  H   UNL     1      38.253 -14.044   3.026  1.00  0.00     0.279 HD
HETATM   25  C   UNL     1      39.695 -12.771   2.256  1.00  0.00     0.235 C 
HETATM   26  C   UNL     1      38.771 -11.611   1.921  1.00  0.00     0.042 C 
HETATM   27  C   UNL     1      38.068 -11.818   0.579  1.00  0.00     0.088 C 
HETATM   28  C   UNL     1      37.276 -13.129   0.644  1.00  0.00     0.042 C 
HETATM   29  C   UNL     1      38.162 -14.326   0.974  1.00  0.00     0.235 C 
BRANCH  27  30
HETATM   30  C   UNL     1      39.047 -11.849  -0.589  1.00  0.00     0.263 C 
HETATM   31  O   UNL     1      40.181 -11.395  -0.530  1.00  0.00    -0.265 OA
BRANCH  30  32
HETATM   32  O   UNL     1      38.471 -12.381  -1.696  1.00  0.00    -0.322 OA
BRANCH  32  33
HETATM   33  C   UNL     1      39.374 -12.977  -2.645  1.00  0.00     0.174 C 
HETATM   34  C   UNL     1      39.153 -14.479  -2.698  1.00  0.00     0.034 C 
ENDBRANCH  32  33
ENDBRANCH  30  32
ENDBRANCH  27  30
ENDBRANCH  22  23
ENDBRANCH  21  22
ENDBRANCH   2  21
TORSDOF 10
ENDMDL
MODEL 6
REMARK VINA RESULT:      -7.2      2.138      2.985
REMARK  10 active torsions:
REMARK  status: ('A' for Active; 'I' for Inactive)
REMARK    1  A    between atoms: C_2  and  O_3 
REMARK    2  A    between atoms: O_3  and  C_4 
REMARK    3  A    between atoms: C_4  and  C_5 
REMARK    4  A    between atoms: C_10  and  N_11 
REMARK       I    between atoms: N_11  and  C_12 
REMARK    5  A    between atoms: C_12  and  C_13 
REMARK    6  A    between atoms: C_13  and  C_14 
REMARK    7  A    between atoms: C_14  and  N_15 
REMARK    8  A    between atoms: C_19  and  C_20 
REMARK    9  A    between atoms: C_20  and  O_21 
REMARK   10  A    between atoms: O_21  and  C_22 
ROOT
HETATM    1  N   UNL     1      43.465 -14.537   3.686  1.00  0.00    -0.324 N 
HETATM    2  C   UNL     1      42.801 -14.301   2.530  1.00  0.00     0.223 C 
HETATM    3  O   UNL     1      42.851 -13.166   2.046  1.00  0.00    -0.273 OA
HETATM    4  H   UNL     1      43.928 -13.676   3.996  1.00  0.00     0.169 HD
ENDROOT
BRANCH   1   5
HETATM    5  C   UNL     1      43.646 -15.611   4.557  1.00  0.00     0.080 A 
HETATM    6  C   UNL     1      43.748 -15.325   5.920  1.00  0.00     0.137 A 
HETATM    7  N   UNL     1      43.862 -16.511   6.593  1.00  0.00    -0.349 N 
HETATM    8  H   UNL     1      43.940 -16.585   7.601  1.00  0.00     0.166 HD
HETATM    9  C   UNL     1      43.886 -17.566   5.723  1.00  0.00     0.045 A 
HETATM   10  C   UNL     1      43.778 -17.045   4.425  1.00  0.00     0.021 A 
HETATM   11  C   UNL     1      44.008 -18.932   6.017  1.00  0.00     0.032 A 
HETATM   12  C   UNL     1      43.834 -17.999   3.382  1.00  0.00     0.035 A 
HETATM   13  C   UNL     1      43.966 -19.368   3.656  1.00  0.00     0.012 A 
HETATM   14  C   UNL     1      44.045 -19.834   4.956  1.00  0.00     0.021 A 
HETATM   15 BR   UNL     1      44.044 -20.588   2.210  1.00  0.00    -0.051 Br
BRANCH   6  16
HETATM   16  C   UNL     1      43.743 -14.040   6.585  1.00  0.00     0.312 C 
HETATM   17  O   UNL     1      42.940 -13.148   6.350  1.00  0.00    -0.258 OA
BRANCH  16  18
HETATM   18  O   UNL     1      44.766 -13.976   7.480  1.00  0.00    -0.317 OA
BRANCH  18  19
HETATM   19  C   UNL     1      44.758 -12.835   8.353  1.00  0.00     0.175 C 
HETATM   20  C   UNL     1      46.158 -12.268   8.488  1.00  0.00     0.034 C 
ENDBRANCH  18  19
ENDBRANCH  16  18
ENDBRANCH   6  16
ENDBRANCH   1   5
BRANCH   2  21
HETATM   21  C   UNL     1      42.019 -15.363   1.821  1.00  0.00     0.131 C 
BRANCH  21  22
HETATM   22  C   UNL     1      41.046 -14.704   0.848  1.00  0.00     0.244 C 
BRANCH  22  23
HETATM   23  N   UNL     1      41.602 -14.601  -0.579  1.00  0.00    -0.071 N 
HETATM   24  H   UNL     1      42.597 -14.860  -0.534  1.00  0.00     0.279 HD
HETATM   25  C   UNL     1      40.904 -15.643  -1.437  1.00  0.00     0.235 C 
HETATM   26  C   UNL     1      41.404 -15.583  -2.872  1.00  0.00     0.042 C 
HETATM   27  C   UNL     1      41.226 -14.189  -3.475  1.00  0.00     0.088 C 
HETATM   28  C   UNL     1      41.986 -13.183  -2.604  1.00  0.00     0.042 C 
HETATM   29  C   UNL     1      41.516 -13.202  -1.152  1.00  0.00     0.235 C 
BRANCH  27  30
HETATM   30  C   UNL     1      39.759 -13.791  -3.587  1.00  0.00     0.263 C 
HETATM   31  O   UNL     1      39.359 -12.644  -3.444  1.00  0.00    -0.265 OA
BRANCH  30  32
HETATM   32  O   UNL     1      38.973 -14.875  -3.799  1.00  0.00    -0.322 OA
BRANCH  32  33
HETATM   33  C   UNL     1      37.637 -14.792  -3.270  1.00  0.00     0.174 C 
HETATM   34  C   UNL     1      36.663 -14.423  -4.376  1.00  0.00     0.034 C 
ENDBRANCH  32  33
ENDBRANCH  30  32
ENDBRANCH  27  30
ENDBRANCH  22  23
ENDBRANCH  21  22
ENDBRANCH   2  21
TORSDOF 10
ENDMDL
MODEL 7
REMARK VINA RESULT:      -7.2      1.889      2.863
REMARK  10 active torsions:
REMARK  status: ('A' for Active; 'I' for Inactive)
REMARK    1  A    between atoms: C_2  and  O_3 
REMARK    2  A    between atoms: O_3  and  C_4 
REMARK    3  A    between atoms: C_4  and  C_5 
REMARK    4  A    between atoms: C_10  and  N_11 
REMARK       I    between atoms: N_11  and  C_12 
REMARK    5  A    between atoms: C_12  and  C_13 
REMARK    6  A    between atoms: C_13  and  C_14 
REMARK    7  A    between atoms: C_14  and  N_15 
REMARK    8  A    between atoms: C_19  and  C_20 
REMARK    9  A    between atoms: C_20  and  O_21 
REMARK   10  A    between atoms: O_21  and  C_22 
ROOT
HETATM    1  N   UNL     1      39.965 -15.321   3.511  1.00  0.00    -0.324 N 
HETATM    2  C   UNL     1      39.736 -15.393   2.178  1.00  0.00     0.223 C 
HETATM    3  O   UNL     1      38.612 -15.097   1.760  1.00  0.00    -0.273 OA
HETATM    4  H   UNL     1      39.110 -15.018   3.988  1.00  0.00     0.169 HD
ENDROOT
BRANCH   1   5
HETATM    5  C   UNL     1      41.026 -15.580   4.378  1.00  0.00     0.080 A 
HETATM    6  C   UNL     1      41.205 -14.709   5.454  1.00  0.00     0.137 A 
HETATM    7  N   UNL     1      42.253 -15.172   6.203  1.00  0.00    -0.349 N 
HETATM    8  H   UNL     1      42.585 -14.726   7.050  1.00  0.00     0.166 HD
HETATM    9  C   UNL     1      42.801 -16.290   5.637  1.00  0.00     0.045 A 
HETATM   10  C   UNL     1      42.075 -16.571   4.469  1.00  0.00     0.021 A 
HETATM   11  C   UNL     1      43.893 -17.047   6.088  1.00  0.00     0.032 A 
HETATM   12  C   UNL     1      42.537 -17.679   3.720  1.00  0.00     0.035 A 
HETATM   13  C   UNL     1      43.633 -18.440   4.150  1.00  0.00     0.012 A 
HETATM   14  C   UNL     1      44.301 -18.137   5.322  1.00  0.00     0.021 A 
HETATM   15 BR   UNL     1      44.202 -19.904   3.092  1.00  0.00    -0.051 Br
BRANCH   6  16
HETATM   16  C   UNL     1      40.467 -13.511   5.791  1.00  0.00     0.312 C 
HETATM   17  O   UNL     1      39.254 -13.398   5.678  1.00  0.00    -0.258 OA
BRANCH  16  18
HETATM   18  O   UNL     1      41.320 -12.544   6.224  1.00  0.00    -0.317 OA
BRANCH  18  19
HETATM   19  C   UNL     1      40.703 -11.379   6.795  1.00  0.00     0.175 C 
HETATM   20  C   UNL     1      41.747 -10.504   7.459  1.00  0.00     0.034 C 
ENDBRANCH  18  19
ENDBRANCH  16  18
ENDBRANCH   6  16
ENDBRANCH   1   5
BRANCH   2  21
HETATM   21  C   UNL     1      40.791 -15.810   1.202  1.00  0.00     0.131 C 
BRANCH  21  22
HETATM   22  C   UNL     1      41.598 -14.586   0.782  1.00  0.00     0.244 C 
BRANCH  22  23
HETATM   23  N   UNL     1      41.930 -14.570  -0.716  1.00  0.00    -0.071 N 
HETATM   24  H   UNL     1      42.887 -14.937  -0.817  1.00  0.00     0.279 HD
HETATM   25  C   UNL     1      40.998 -15.544  -1.419  1.00  0.00     0.235 C 
HETATM   26  C   UNL     1      41.269 -15.566  -2.915  1.00  0.00     0.042 C 
HETATM   27  C   UNL     1      41.148 -14.172  -3.532  1.00  0.00     0.088 C 
HETATM   28  C   UNL     1      42.139 -13.241  -2.825  1.00  0.00     0.042 C 
HETATM   29  C   UNL     1      41.905 -13.181  -1.318  1.00  0.00     0.235 C 
BRANCH  27  30
HETATM   30  C   UNL     1      39.733 -13.615  -3.430  1.00  0.00     0.263 C 
HETATM   31  O   UNL     1      39.485 -12.425  -3.290  1.00  0.00    -0.265 OA
BRANCH  30  32
HETATM   32  O   UNL     1      38.813 -14.611  -3.451  1.00  0.00    -0.322 OA
BRANCH  32  33
HETATM   33  C   UNL     1      37.460 -14.219  -3.154  1.00  0.00     0.174 C 
HETATM   34  C   UNL     1      36.589 -14.390  -4.386  1.00  0.00     0.034 C 
ENDBRANCH  32  33
ENDBRANCH  30  32
ENDBRANCH  27  30
ENDBRANCH  22  23
ENDBRANCH  21  22
ENDBRANCH   2  21
TORSDOF 10
ENDMDL
MODEL 8
REMARK VINA RESULT:      -7.2      3.541      8.633
REMARK  10 active torsions:
REMARK  status: ('A' for Active; 'I' for Inactive)
REMARK    1  A    between atoms: C_2  and  O_3 
REMARK    2  A    between atoms: O_3  and  C_4 
REMARK    3  A    between atoms: C_4  and  C_5 
REMARK    4  A    between atoms: C_10  and  N_11 
REMARK       I    between atoms: N_11  and  C_12 
REMARK    5  A    between atoms: C_12  and  C_13 
REMARK    6  A    between atoms: C_13  and  C_14 
REMARK    7  A    between atoms: C_14  and  N_15 
REMARK    8  A    between atoms: C_19  and  C_20 
REMARK    9  A    between atoms: C_20  and  O_21 
REMARK   10  A    between atoms: O_21  and  C_22 
ROOT
HETATM    1  N   UNL     1      40.808 -13.811   2.698  1.00  0.00    -0.324 N 
HETATM    2  C   UNL     1      41.316 -13.542   3.924  1.00  0.00     0.223 C 
HETATM    3  O   UNL     1      40.560 -13.608   4.899  1.00  0.00    -0.273 OA
HETATM    4  H   UNL     1      39.812 -14.036   2.783  1.00  0.00     0.169 HD
ENDROOT
BRANCH   1   5
HETATM    5  C   UNL     1      41.273 -13.826   1.383  1.00  0.00     0.080 A 
HETATM    6  C   UNL     1      41.287 -15.054   0.719  1.00  0.00     0.137 A 
HETATM    7  N   UNL     1      41.719 -14.838  -0.561  1.00  0.00    -0.349 N 
HETATM    8  H   UNL     1      41.810 -15.567  -1.259  1.00  0.00     0.166 HD
HETATM    9  C   UNL     1      42.034 -13.521  -0.754  1.00  0.00     0.045 A 
HETATM   10  C   UNL     1      41.793 -12.848   0.453  1.00  0.00     0.021 A 
HETATM   11  C   UNL     1      42.525 -12.905  -1.915  1.00  0.00     0.032 A 
HETATM   12  C   UNL     1      42.112 -11.470   0.454  1.00  0.00     0.035 A 
HETATM   13  C   UNL     1      42.613 -10.840  -0.695  1.00  0.00     0.012 A 
HETATM   14  C   UNL     1      42.812 -11.543  -1.869  1.00  0.00     0.021 A 
HETATM   15 BR   UNL     1      43.028  -8.994  -0.619  1.00  0.00    -0.051 Br
BRANCH   6  16
HETATM   16  C   UNL     1      40.928 -16.365   1.217  1.00  0.00     0.312 C 
HETATM   17  O   UNL     1      39.944 -16.591   1.907  1.00  0.00    -0.258 OA
BRANCH  16  18
HETATM   18  O   UNL     1      41.853 -17.282   0.822  1.00  0.00    -0.317 OA
BRANCH  18  19
HETATM   19  C   UNL     1      42.267 -18.220   1.828  1.00  0.00     0.175 C 
HETATM   20  C   UNL     1      43.710 -18.627   1.603  1.00  0.00     0.034 C 
ENDBRANCH  18  19
ENDBRANCH  16  18
ENDBRANCH   6  16
ENDBRANCH   1   5
BRANCH   2  21
HETATM   21  C   UNL     1      42.751 -13.175   4.137  1.00  0.00     0.131 C 
BRANCH  21  22
HETATM   22  C   UNL     1      43.566 -14.444   4.365  1.00  0.00     0.244 C 
BRANCH  22  23
HETATM   23  N   UNL     1      43.068 -15.270   5.559  1.00  0.00    -0.071 N 
HETATM   24  H   UNL     1      42.267 -14.764   5.962  1.00  0.00     0.279 HD
HETATM   25  C   UNL     1      42.543 -16.596   5.033  1.00  0.00     0.235 C 
HETATM   26  C   UNL     1      42.044 -17.469   6.173  1.00  0.00     0.042 C 
HETATM   27  C   UNL     1      43.132 -17.704   7.223  1.00  0.00     0.088 C 
HETATM   28  C   UNL     1      43.592 -16.344   7.756  1.00  0.00     0.042 C 
HETATM   29  C   UNL     1      44.107 -15.430   6.648  1.00  0.00     0.235 C 
BRANCH  27  30
HETATM   30  C   UNL     1      44.317 -18.483   6.664  1.00  0.00     0.263 C 
HETATM   31  O   UNL     1      45.465 -18.060   6.670  1.00  0.00    -0.265 OA
BRANCH  30  32
HETATM   32  O   UNL     1      43.916 -19.656   6.114  1.00  0.00    -0.322 OA
BRANCH  32  33
HETATM   33  C   UNL     1      44.604 -20.052   4.914  1.00  0.00     0.174 C 
HETATM   34  C   UNL     1      44.911 -21.538   4.959  1.00  0.00     0.034 C 
ENDBRANCH  32  33
ENDBRANCH  30  32
ENDBRANCH  27  30
ENDBRANCH  22  23
ENDBRANCH  21  22
ENDBRANCH   2  21
TORSDOF 10
ENDMDL
MODEL 9
REMARK VINA RESULT:      -7.1      3.231      4.989
REMARK  10 active torsions:
REMARK  status: ('A' for Active; 'I' for Inactive)
REMARK    1  A    between atoms: C_2  and  O_3 
REMARK    2  A    between atoms: O_3  and  C_4 
REMARK    3  A    between atoms: C_4  and  C_5 
REMARK    4  A    between atoms: C_10  and  N_11 
REMARK       I    between atoms: N_11  and  C_12 
REMARK    5  A    between atoms: C_12  and  C_13 
REMARK    6  A    between atoms: C_13  and  C_14 
REMARK    7  A    between atoms: C_14  and  N_15 
REMARK    8  A    between atoms: C_19  and  C_20 
REMARK    9  A    between atoms: C_20  and  O_21 
REMARK   10  A    between atoms: O_21  and  C_22 
ROOT
HETATM    1  N   UNL     1      42.813 -18.658   3.521  1.00  0.00    -0.324 N 
HETATM    2  C   UNL     1      42.749 -18.518   2.175  1.00  0.00     0.223 C 
HETATM    3  O   UNL     1      42.210 -19.413   1.517  1.00  0.00    -0.273 OA
HETATM    4  H   UNL     1      42.380 -19.547   3.791  1.00  0.00     0.169 HD
ENDROOT
BRANCH   1   5
HETATM    5  C   UNL     1      43.333 -17.941   4.597  1.00  0.00     0.080 A 
HETATM    6  C   UNL     1      44.060 -18.651   5.554  1.00  0.00     0.137 A 
HETATM    7  N   UNL     1      44.524 -17.758   6.481  1.00  0.00    -0.349 N 
HETATM    8  H   UNL     1      45.092 -18.015   7.280  1.00  0.00     0.166 HD
HETATM    9  C   UNL     1      44.092 -16.492   6.198  1.00  0.00     0.045 A 
HETATM   10  C   UNL     1      43.316 -16.561   5.031  1.00  0.00     0.021 A 
HETATM   11  C   UNL     1      44.338 -15.310   6.913  1.00  0.00     0.032 A 
HETATM   12  C   UNL     1      42.742 -15.339   4.611  1.00  0.00     0.035 A 
HETATM   13  C   UNL     1      42.967 -14.149   5.319  1.00  0.00     0.012 A 
HETATM   14  C   UNL     1      43.761 -14.129   6.452  1.00  0.00     0.021 A 
HETATM   15 BR   UNL     1      42.158 -12.551   4.704  1.00  0.00    -0.051 Br
BRANCH   6  16
HETATM   16  C   UNL     1      44.323 -20.072   5.629  1.00  0.00     0.312 C 
HETATM   17  O   UNL     1      44.004 -20.780   6.575  1.00  0.00    -0.258 OA
BRANCH  16  18
HETATM   18  O   UNL     1      44.988 -20.483   4.515  1.00  0.00    -0.317 OA
BRANCH  18  19
HETATM   19  C   UNL     1      44.718 -21.828   4.090  1.00  0.00     0.175 C 
HETATM   20  C   UNL     1      44.479 -21.868   2.593  1.00  0.00     0.034 C 
ENDBRANCH  18  19
ENDBRANCH  16  18
ENDBRANCH   6  16
ENDBRANCH   1   5
BRANCH   2  21
HETATM   21  C   UNL     1      43.299 -17.320   1.465  1.00  0.00     0.131 C 
BRANCH  21  22
HETATM   22  C   UNL     1      42.182 -16.652   0.670  1.00  0.00     0.244 C 
BRANCH  22  23
HETATM   23  N   UNL     1      41.510 -15.501   1.430  1.00  0.00    -0.071 N 
HETATM   24  H   UNL     1      42.157 -15.216   2.179  1.00  0.00     0.279 HD
HETATM   25  C   UNL     1      41.373 -14.321   0.482  1.00  0.00     0.235 C 
HETATM   26  C   UNL     1      40.700 -13.147   1.175  1.00  0.00     0.042 C 
HETATM   27  C   UNL     1      39.335 -13.534   1.746  1.00  0.00     0.088 C 
HETATM   28  C   UNL     1      39.532 -14.692   2.731  1.00  0.00     0.042 C 
HETATM   29  C   UNL     1      40.202 -15.899   2.080  1.00  0.00     0.235 C 
BRANCH  27  30
HETATM   30  C   UNL     1      38.343 -13.928   0.658  1.00  0.00     0.263 C 
HETATM   31  O   UNL     1      37.292 -14.512   0.883  1.00  0.00    -0.265 OA
BRANCH  30  32
HETATM   32  O   UNL     1      38.812 -13.603  -0.571  1.00  0.00    -0.322 OA
BRANCH  32  33
HETATM   33  C   UNL     1      37.972 -12.732  -1.352  1.00  0.00     0.174 C 
HETATM   34  C   UNL     1      38.768 -11.528  -1.823  1.00  0.00     0.034 C 
ENDBRANCH  32  33
ENDBRANCH  30  32
ENDBRANCH  27  30
ENDBRANCH  22  23
ENDBRANCH  21  22
ENDBRANCH   2  21
TORSDOF 10
ENDMDL
MODEL 10
REMARK VINA RESULT:      -7.0      5.048      8.789
REMARK  10 active torsions:
REMARK  status: ('A' for Active; 'I' for Inactive)
REMARK    1  A    between atoms: C_2  and  O_3 
REMARK    2  A    between atoms: O_3  and  C_4 
REMARK    3  A    between atoms: C_4  and  C_5 
REMARK    4  A    between atoms: C_10  and  N_11 
REMARK       I    between atoms: N_11  and  C_12 
REMARK    5  A    between atoms: C_12  and  C_13 
REMARK    6  A    between atoms: C_13  and  C_14 
REMARK    7  A    between atoms: C_14  and  N_15 
REMARK    8  A    between atoms: C_19  and  C_20 
REMARK    9  A    between atoms: C_20  and  O_21 
REMARK   10  A    between atoms: O_21  and  C_22 
ROOT
HETATM    1  N   UNL     1      43.301 -14.058   4.033  1.00  0.00    -0.324 N 
HETATM    2  C   UNL     1      43.023 -15.163   3.302  1.00  0.00     0.223 C 
HETATM    3  O   UNL     1      43.882 -15.580   2.518  1.00  0.00    -0.273 OA
HETATM    4  H   UNL     1      44.240 -13.721   3.798  1.00  0.00     0.169 HD
ENDROOT
BRANCH   1   5
HETATM    5  C   UNL     1      42.643 -13.265   4.972  1.00  0.00     0.080 A 
HETATM    6  C   UNL     1      43.111 -13.302   6.287  1.00  0.00     0.137 A 
HETATM    7  N   UNL     1      42.371 -12.417   7.024  1.00  0.00    -0.349 N 
HETATM    8  H   UNL     1      42.514 -12.242   8.012  1.00  0.00     0.166 HD
HETATM    9  C   UNL     1      41.403 -11.831   6.255  1.00  0.00     0.045 A 
HETATM   10  C   UNL     1      41.520 -12.354   4.958  1.00  0.00     0.021 A 
HETATM   11  C   UNL     1      40.438 -10.889   6.641  1.00  0.00     0.032 A 
HETATM   12  C   UNL     1      40.558 -11.892   4.029  1.00  0.00     0.035 A 
HETATM   13  C   UNL     1      39.580 -10.959   4.400  1.00  0.00     0.012 A 
HETATM   14  C   UNL     1      39.521 -10.455   5.687  1.00  0.00     0.021 A 
HETATM   15 BR   UNL     1      38.319 -10.392   3.106  1.00  0.00    -0.051 Br
BRANCH   6  16
HETATM   16  C   UNL     1      44.176 -14.100   6.855  1.00  0.00     0.312 C 
HETATM   17  O   UNL     1      44.629 -15.110   6.334  1.00  0.00    -0.258 OA
BRANCH  16  18
HETATM   18  O   UNL     1      44.569 -13.572   8.046  1.00  0.00    -0.317 OA
BRANCH  18  19
HETATM   19  C   UNL     1      45.764 -12.775   8.009  1.00  0.00     0.175 C 
HETATM   20  C   UNL     1      45.720 -11.713   9.090  1.00  0.00     0.034 C 
ENDBRANCH  18  19
ENDBRANCH  16  18
ENDBRANCH   6  16
ENDBRANCH   1   5
BRANCH   2  21
HETATM   21  C   UNL     1      41.721 -15.895   3.414  1.00  0.00     0.131 C 
BRANCH  21  22
HETATM   22  C   UNL     1      41.990 -17.332   3.849  1.00  0.00     0.244 C 
BRANCH  22  23
HETATM   23  N   UNL     1      43.012 -17.433   4.988  1.00  0.00    -0.071 N 
HETATM   24  H   UNL     1      43.331 -16.475   5.193  1.00  0.00     0.279 HD
HETATM   25  C   UNL     1      42.294 -17.942   6.228  1.00  0.00     0.235 C 
HETATM   26  C   UNL     1      43.260 -18.076   7.394  1.00  0.00     0.042 C 
HETATM   27  C   UNL     1      44.440 -18.986   7.050  1.00  0.00     0.088 C 
HETATM   28  C   UNL     1      45.159 -18.406   5.827  1.00  0.00     0.042 C 
HETATM   29  C   UNL     1      44.230 -18.256   4.625  1.00  0.00     0.235 C 
BRANCH  27  30
HETATM   30  C   UNL     1      44.003 -20.421   6.776  1.00  0.00     0.263 C 
HETATM   31  O   UNL     1      43.473 -21.136   7.615  1.00  0.00    -0.265 OA
BRANCH  30  32
HETATM   32  O   UNL     1      44.337 -20.801   5.519  1.00  0.00    -0.322 OA
BRANCH  32  33
HETATM   33  C   UNL     1      44.764 -22.168   5.371  1.00  0.00     0.174 C 
HETATM   34  C   UNL     1      44.691 -22.580   3.912  1.00  0.00     0.034 C 
ENDBRANCH  32  33
ENDBRANCH  30  32
ENDBRANCH  27  30
ENDBRANCH  22  23
ENDBRANCH  21  22
ENDBRANCH   2  21
TORSDOF 10
ENDMDL
