MODEL 1
REMARK VINA RESULT:      -7.9      0.000      0.000
REMARK  7 active torsions:
REMARK  status: ('A' for Active; 'I' for Inactive)
REMARK    1  A    between atoms: C_2  and  O_3 
REMARK    2  A    between atoms: O_3  and  C_4 
REMARK    3  A    between atoms: C_4  and  C_5 
REMARK    4  A    between atoms: C_6  and  C_7 
REMARK    5  A    between atoms: C_18  and  S_19 
REMARK    6  A    between atoms: S_19  and  C_20 
REMARK    7  A    between atoms: C_20  and  C_21 
ROOT
HETATM    1  C   UNL     1      41.390 -13.666   5.292  1.00  0.00     0.070 A 
HETATM    2  C   UNL     1      41.152 -15.134   4.946  1.00  0.00     0.203 A 
HETATM    3  N   UNL     1      42.077 -16.014   5.674  1.00  0.00    -0.082 N 
HETATM    4  C   UNL     1      43.010 -15.573   6.570  1.00  0.00     0.726 A 
HETATM    5  N   UNL     1      43.101 -14.258   6.834  1.00  0.00    -0.192 N 
HETATM    6  N   UNL     1      42.092 -17.358   5.577  1.00  0.00    -0.128 NA
HETATM    7  C   UNL     1      43.129 -17.655   6.370  1.00  0.00     0.226 A 
HETATM    8  N   UNL     1      43.695 -16.589   7.025  1.00  0.00    -0.035 NA
HETATM    9  C   UNL     1      42.322 -13.294   6.205  1.00  0.00     0.037 A 
HETATM   10  C   UNL     1      42.582 -11.869   6.633  1.00  0.00     0.070 C 
HETATM   11  H   UNL     1      43.813 -13.937   7.486  1.00  0.00     0.184 HD
ENDROOT
BRANCH   7  12
HETATM   12  S   UNL     1      43.706 -19.291   6.513  1.00  0.00    -0.083 SA
BRANCH  12  13
HETATM   13  C   UNL     1      44.986 -19.288   5.227  1.00  0.00     0.123 C 
BRANCH  13  14
HETATM   14  C   UNL     1      44.554 -20.069   4.008  1.00  0.00    -0.027 A 
HETATM   15  C   UNL     1      44.687 -21.464   3.911  1.00  0.00     0.041 A 
HETATM   16 CL   UNL     1      45.355 -22.416   5.190  1.00  0.00    -0.084 Cl
HETATM   17  C   UNL     1      44.277 -22.141   2.757  1.00  0.00     0.024 A 
HETATM   18  C   UNL     1      43.739 -21.435   1.681  1.00  0.00     0.002 A 
HETATM   19  C   UNL     1      43.612 -20.051   1.756  1.00  0.00     0.001 A 
HETATM   20  C   UNL     1      44.015 -19.373   2.908  1.00  0.00     0.009 A 
ENDBRANCH  13  14
ENDBRANCH  12  13
ENDBRANCH   7  12
BRANCH   2  21
HETATM   21  C   UNL     1      41.222 -15.441   3.450  1.00  0.00    -0.028 A 
HETATM   22  C   UNL     1      42.439 -15.722   2.806  1.00  0.00     0.011 A 
HETATM   23  C   UNL     1      42.468 -15.995   1.435  1.00  0.00     0.024 A 
HETATM   24  C   UNL     1      41.284 -15.998   0.701  1.00  0.00     0.034 A 
HETATM   25 CL   UNL     1      41.324 -16.330  -0.986  1.00  0.00    -0.084 Cl
HETATM   26  C   UNL     1      40.067 -15.734   1.324  1.00  0.00     0.024 A 
HETATM   27  C   UNL     1      40.035 -15.460   2.692  1.00  0.00     0.011 A 
ENDBRANCH   2  21
BRANCH   1  28
HETATM   28  C   UNL     1      40.608 -12.659   4.539  1.00  0.00     0.293 C 
HETATM   29  O   UNL     1      39.404 -12.495   4.663  1.00  0.00    -0.259 OA
BRANCH  28  30
HETATM   30  O   UNL     1      41.428 -11.943   3.731  1.00  0.00    -0.318 OA
BRANCH  30  31
HETATM   31  C   UNL     1      40.919 -11.692   2.411  1.00  0.00     0.174 C 
HETATM   32  C   UNL     1      41.822 -12.314   1.359  1.00  0.00     0.034 C 
ENDBRANCH  30  31
ENDBRANCH  28  30
ENDBRANCH   1  28
TORSDOF 7
ENDMDL
MODEL 2
REMARK VINA RESULT:      -7.8      3.610      5.447
REMARK  7 active torsions:
REMARK  status: ('A' for Active; 'I' for Inactive)
REMARK    1  A    between atoms: C_2  and  O_3 
REMARK    2  A    between atoms: O_3  and  C_4 
REMARK    3  A    between atoms: C_4  and  C_5 
REMARK    4  A    between atoms: C_6  and  C_7 
REMARK    5  A    between atoms: C_18  and  S_19 
REMARK    6  A    between atoms: S_19  and  C_20 
REMARK    7  A    between atoms: C_20  and  C_21 
ROOT
HETATM    1  C   UNL     1      41.112 -13.552  -1.397  1.00  0.00     0.070 A 
HETATM    2  C   UNL     1      41.538 -13.550   0.069  1.00  0.00     0.203 A 
HETATM    3  N   UNL     1      41.620 -14.915   0.606  1.00  0.00    -0.082 N 
HETATM    4  C   UNL     1      41.376 -16.043  -0.125  1.00  0.00     0.726 A 
HETATM    5  N   UNL     1      41.051 -15.930  -1.425  1.00  0.00    -0.192 N 
HETATM    6  N   UNL     1      41.982 -15.221   1.868  1.00  0.00    -0.128 NA
HETATM    7  C   UNL     1      41.838 -16.553   1.854  1.00  0.00     0.226 A 
HETATM    8  N   UNL     1      41.502 -17.097   0.639  1.00  0.00    -0.035 NA
HETATM    9  C   UNL     1      40.900 -14.710  -2.074  1.00  0.00     0.037 A 
HETATM   10  C   UNL     1      40.524 -14.793  -3.534  1.00  0.00     0.070 C 
HETATM   11  H   UNL     1      40.850 -16.774  -1.956  1.00  0.00     0.184 HD
ENDROOT
BRANCH   7  12
HETATM   12  S   UNL     1      42.045 -17.490   3.306  1.00  0.00    -0.083 SA
BRANCH  12  13
HETATM   13  C   UNL     1      43.806 -17.905   3.164  1.00  0.00     0.123 C 
BRANCH  13  14
HETATM   14  C   UNL     1      44.023 -19.399   3.104  1.00  0.00    -0.027 A 
HETATM   15  C   UNL     1      44.566 -20.133   4.172  1.00  0.00     0.041 A 
HETATM   16 CL   UNL     1      45.028 -19.387   5.661  1.00  0.00    -0.084 Cl
HETATM   17  C   UNL     1      44.753 -21.516   4.063  1.00  0.00     0.024 A 
HETATM   18  C   UNL     1      44.412 -22.182   2.886  1.00  0.00     0.002 A 
HETATM   19  C   UNL     1      43.885 -21.467   1.815  1.00  0.00     0.001 A 
HETATM   20  C   UNL     1      43.692 -20.088   1.921  1.00  0.00     0.009 A 
ENDBRANCH  13  14
ENDBRANCH  12  13
ENDBRANCH   7  12
BRANCH   2  21
HETATM   21  C   UNL     1      40.651 -12.694   0.974  1.00  0.00    -0.028 A 
HETATM   22  C   UNL     1      39.305 -13.018   1.215  1.00  0.00     0.011 A 
HETATM   23  C   UNL     1      38.521 -12.212   2.045  1.00  0.00     0.024 A 
HETATM   24  C   UNL     1      39.076 -11.085   2.647  1.00  0.00     0.034 A 
HETATM   25 CL   UNL     1      38.107 -10.094   3.665  1.00  0.00    -0.084 Cl
HETATM   26  C   UNL     1      40.411 -10.756   2.431  1.00  0.00     0.024 A 
HETATM   27  C   UNL     1      41.196 -11.558   1.600  1.00  0.00     0.011 A 
ENDBRANCH   2  21
BRANCH   1  28
HETATM   28  C   UNL     1      40.870 -12.237  -2.033  1.00  0.00     0.293 C 
HETATM   29  O   UNL     1      39.768 -11.722  -2.142  1.00  0.00    -0.259 OA
BRANCH  28  30
HETATM   30  O   UNL     1      42.045 -11.693  -2.437  1.00  0.00    -0.318 OA
BRANCH  30  31
HETATM   31  C   UNL     1      42.256 -10.329  -2.038  1.00  0.00     0.174 C 
HETATM   32  C   UNL     1      43.471 -10.215  -1.133  1.00  0.00     0.034 C 
ENDBRANCH  30  31
ENDBRANCH  28  30
ENDBRANCH   1  28
TORSDOF 7
ENDMDL
MODEL 3
REMARK VINA RESULT:      -7.8      4.013      7.788
REMARK  7 active torsions:
REMARK  status: ('A' for Active; 'I' for Inactive)
REMARK    1  A    between atoms: C_2  and  O_3 
REMARK    2  A    between atoms: O_3  and  C_4 
REMARK    3  A    between atoms: C_4  and  C_5 
REMARK    4  A    between atoms: C_6  and  C_7 
REMARK    5  A    between atoms: C_18  and  S_19 
REMARK    6  A    between atoms: S_19  and  C_20 
REMARK    7  A    between atoms: C_20  and  C_21 
ROOT
HETATM    1  C   UNL     1      43.330 -18.819   4.126  1.00  0.00     0.070 A 
HETATM    2  C   UNL     1      42.349 -17.724   4.537  1.00  0.00     0.203 A 
HETATM    3  N   UNL     1      41.627 -17.186   3.376  1.00  0.00    -0.082 N 
HETATM    4  C   UNL     1      41.793 -17.632   2.095  1.00  0.00     0.726 A 
HETATM    5  N   UNL     1      42.653 -18.637   1.853  1.00  0.00    -0.192 N 
HETATM    6  N   UNL     1      40.690 -16.219   3.437  1.00  0.00    -0.128 NA
HETATM    7  C   UNL     1      40.405 -16.063   2.138  1.00  0.00     0.226 A 
HETATM    8  N   UNL     1      41.035 -16.937   1.288  1.00  0.00    -0.035 NA
HETATM    9  C   UNL     1      43.435 -19.230   2.836  1.00  0.00     0.037 A 
HETATM   10  C   UNL     1      44.346 -20.337   2.361  1.00  0.00     0.070 C 
HETATM   11  H   UNL     1      42.786 -18.948   0.893  1.00  0.00     0.184 HD
ENDROOT
BRANCH   7  12
HETATM   12  S   UNL     1      39.324 -14.808   1.604  1.00  0.00    -0.083 SA
BRANCH  12  13
HETATM   13  C   UNL     1      40.389 -13.964   0.403  1.00  0.00     0.123 C 
BRANCH  13  14
HETATM   14  C   UNL     1      40.072 -14.380  -1.014  1.00  0.00    -0.027 A 
HETATM   15  C   UNL     1      38.925 -13.941  -1.698  1.00  0.00     0.041 A 
HETATM   16 CL   UNL     1      37.775 -12.873  -0.974  1.00  0.00    -0.084 Cl
HETATM   17  C   UNL     1      38.673 -14.361  -3.008  1.00  0.00     0.024 A 
HETATM   18  C   UNL     1      39.554 -15.231  -3.650  1.00  0.00     0.002 A 
HETATM   19  C   UNL     1      40.687 -15.685  -2.982  1.00  0.00     0.001 A 
HETATM   20  C   UNL     1      40.945 -15.264  -1.676  1.00  0.00     0.009 A 
ENDBRANCH  13  14
ENDBRANCH  12  13
ENDBRANCH   7  12
BRANCH   2  21
HETATM   21  C   UNL     1      42.987 -16.578   5.322  1.00  0.00    -0.028 A 
HETATM   22  C   UNL     1      43.417 -15.398   4.692  1.00  0.00     0.011 A 
HETATM   23  C   UNL     1      44.001 -14.370   5.439  1.00  0.00     0.024 A 
HETATM   24  C   UNL     1      44.151 -14.509   6.817  1.00  0.00     0.034 A 
HETATM   25 CL   UNL     1      44.873 -13.244   7.732  1.00  0.00    -0.084 Cl
HETATM   26  C   UNL     1      43.719 -15.666   7.459  1.00  0.00     0.024 A 
HETATM   27  C   UNL     1      43.138 -16.695   6.716  1.00  0.00     0.011 A 
ENDBRANCH   2  21
BRANCH   1  28
HETATM   28  C   UNL     1      44.213 -19.367   5.180  1.00  0.00     0.293 C 
HETATM   29  O   UNL     1      45.369 -19.015   5.354  1.00  0.00    -0.259 OA
BRANCH  28  30
HETATM   30  O   UNL     1      43.538 -20.277   5.925  1.00  0.00    -0.318 OA
BRANCH  30  31
HETATM   31  C   UNL     1      44.322 -21.388   6.389  1.00  0.00     0.174 C 
HETATM   32  C   UNL     1      44.698 -22.301   5.235  1.00  0.00     0.034 C 
ENDBRANCH  30  31
ENDBRANCH  28  30
ENDBRANCH   1  28
TORSDOF 7
ENDMDL
MODEL 4
REMARK VINA RESULT:      -7.8      1.475      1.892
REMARK  7 active torsions:
REMARK  status: ('A' for Active; 'I' for Inactive)
REMARK    1  A    between atoms: C_2  and  O_3 
REMARK    2  A    between atoms: O_3  and  C_4 
REMARK    3  A    between atoms: C_4  and  C_5 
REMARK    4  A    between atoms: C_6  and  C_7 
REMARK    5  A    between atoms: C_18  and  S_19 
REMARK    6  A    between atoms: S_19  and  C_20 
REMARK    7  A    between atoms: C_20  and  C_21 
ROOT
HETATM    1  C   UNL     1      40.685 -12.984   4.947  1.00  0.00     0.070 A 
HETATM    2  C   UNL     1      40.511 -14.445   4.537  1.00  0.00     0.203 A 
HETATM    3  N   UNL     1      41.451 -15.319   5.253  1.00  0.00    -0.082 N 
HETATM    4  C   UNL     1      42.345 -14.881   6.188  1.00  0.00     0.726 A 
HETATM    5  N   UNL     1      42.381 -13.575   6.506  1.00  0.00    -0.192 N 
HETATM    6  N   UNL     1      41.518 -16.656   5.103  1.00  0.00    -0.128 NA
HETATM    7  C   UNL     1      42.547 -16.948   5.909  1.00  0.00     0.226 A 
HETATM    8  N   UNL     1      43.057 -15.889   6.619  1.00  0.00    -0.035 NA
HETATM    9  C   UNL     1      41.581 -12.615   5.897  1.00  0.00     0.037 A 
HETATM   10  C   UNL     1      41.777 -11.200   6.387  1.00  0.00     0.070 C 
HETATM   11  H   UNL     1      43.065 -13.255   7.188  1.00  0.00     0.184 HD
ENDROOT
BRANCH   7  12
HETATM   12  S   UNL     1      43.181 -18.566   6.001  1.00  0.00    -0.083 SA
BRANCH  12  13
HETATM   13  C   UNL     1      44.384 -18.511   4.645  1.00  0.00     0.123 C 
BRANCH  13  14
HETATM   14  C   UNL     1      44.237 -19.697   3.720  1.00  0.00    -0.027 A 
HETATM   15  C   UNL     1      43.519 -19.637   2.514  1.00  0.00     0.041 A 
HETATM   16 CL   UNL     1      42.745 -18.189   1.974  1.00  0.00    -0.084 Cl
HETATM   17  C   UNL     1      43.407 -20.766   1.695  1.00  0.00     0.024 A 
HETATM   18  C   UNL     1      43.999 -21.972   2.074  1.00  0.00     0.002 A 
HETATM   19  C   UNL     1      44.702 -22.050   3.273  1.00  0.00     0.001 A 
HETATM   20  C   UNL     1      44.820 -20.924   4.089  1.00  0.00     0.009 A 
ENDBRANCH  13  14
ENDBRANCH  12  13
ENDBRANCH   7  12
BRANCH   2  21
HETATM   21  C   UNL     1      40.627 -14.688   3.032  1.00  0.00    -0.028 A 
HETATM   22  C   UNL     1      39.517 -15.058   2.254  1.00  0.00     0.011 A 
HETATM   23  C   UNL     1      39.658 -15.277   0.880  1.00  0.00     0.024 A 
HETATM   24  C   UNL     1      40.903 -15.120   0.274  1.00  0.00     0.034 A 
HETATM   25 CL   UNL     1      41.073 -15.393  -1.415  1.00  0.00    -0.084 Cl
HETATM   26  C   UNL     1      42.010 -14.741   1.028  1.00  0.00     0.024 A 
HETATM   27  C   UNL     1      41.873 -14.524   2.399  1.00  0.00     0.011 A 
ENDBRANCH   2  21
BRANCH   1  28
HETATM   28  C   UNL     1      39.884 -11.977   4.215  1.00  0.00     0.293 C 
HETATM   29  O   UNL     1      38.704 -11.752   4.433  1.00  0.00    -0.259 OA
BRANCH  28  30
HETATM   30  O   UNL     1      40.661 -11.336   3.307  1.00  0.00    -0.318 OA
BRANCH  30  31
HETATM   31  C   UNL     1      39.948 -10.702   2.232  1.00  0.00     0.174 C 
HETATM   32  C   UNL     1      40.108 -11.490   0.943  1.00  0.00     0.034 C 
ENDBRANCH  30  31
ENDBRANCH  28  30
ENDBRANCH   1  28
TORSDOF 7
ENDMDL
MODEL 5
REMARK VINA RESULT:      -7.6      2.832      4.534
REMARK  7 active torsions:
REMARK  status: ('A' for Active; 'I' for Inactive)
REMARK    1  A    between atoms: C_2  and  O_3 
REMARK    2  A    between atoms: O_3  and  C_4 
REMARK    3  A    between atoms: C_4  and  C_5 
REMARK    4  A    between atoms: C_6  and  C_7 
REMARK    5  A    between atoms: C_18  and  S_19 
REMARK    6  A    between atoms: S_19  and  C_20 
REMARK    7  A    between atoms: C_20  and  C_21 
ROOT
HETATM    1  C   UNL     1      39.735 -13.440   2.554  1.00  0.00     0.070 A 
HETATM    2  C   UNL     1      40.865 -13.631   3.562  1.00  0.00     0.203 A 
HETATM    3  N   UNL     1      41.135 -15.055   3.803  1.00  0.00    -0.082 N 
HETATM    4  C   UNL     1      40.478 -16.077   3.177  1.00  0.00     0.726 A 
HETATM    5  N   UNL     1      39.528 -15.792   2.269  1.00  0.00    -0.192 N 
HETATM    6  N   UNL     1      42.086 -15.525   4.635  1.00  0.00    -0.128 NA
HETATM    7  C   UNL     1      41.878 -16.844   4.535  1.00  0.00     0.226 A 
HETATM    8  N   UNL     1      40.923 -17.222   3.624  1.00  0.00    -0.035 NA
HETATM    9  C   UNL     1      39.132 -14.498   1.954  1.00  0.00     0.037 A 
HETATM   10  C   UNL     1      38.043 -14.387   0.914  1.00  0.00     0.070 C 
HETATM   11  H   UNL     1      39.029 -16.559   1.825  1.00  0.00     0.184 HD
ENDROOT
BRANCH   7  12
HETATM   12  S   UNL     1      42.758 -17.966   5.531  1.00  0.00    -0.083 SA
BRANCH  12  13
HETATM   13  C   UNL     1      44.245 -18.191   4.515  1.00  0.00     0.123 C 
BRANCH  13  14
HETATM   14  C   UNL     1      44.301 -19.572   3.906  1.00  0.00    -0.027 A 
HETATM   15  C   UNL     1      43.954 -19.829   2.569  1.00  0.00     0.041 A 
HETATM   16 CL   UNL     1      43.438 -18.577   1.495  1.00  0.00    -0.084 Cl
HETATM   17  C   UNL     1      44.017 -21.129   2.054  1.00  0.00     0.024 A 
HETATM   18  C   UNL     1      44.415 -22.190   2.868  1.00  0.00     0.002 A 
HETATM   19  C   UNL     1      44.749 -21.953   4.199  1.00  0.00     0.001 A 
HETATM   20  C   UNL     1      44.693 -20.657   4.714  1.00  0.00     0.009 A 
ENDBRANCH  13  14
ENDBRANCH  12  13
ENDBRANCH   7  12
BRANCH   2  21
HETATM   21  C   UNL     1      40.636 -12.919   4.897  1.00  0.00    -0.028 A 
HETATM   22  C   UNL     1      39.554 -13.242   5.733  1.00  0.00     0.011 A 
HETATM   23  C   UNL     1      39.372 -12.569   6.945  1.00  0.00     0.024 A 
HETATM   24  C   UNL     1      40.272 -11.579   7.334  1.00  0.00     0.034 A 
HETATM   25 CL   UNL     1      40.042 -10.751   8.824  1.00  0.00    -0.084 Cl
HETATM   26  C   UNL     1      41.357 -11.255   6.524  1.00  0.00     0.024 A 
HETATM   27  C   UNL     1      41.540 -11.924   5.312  1.00  0.00     0.011 A 
ENDBRANCH   2  21
BRANCH   1  28
HETATM   28  C   UNL     1      39.275 -12.054   2.308  1.00  0.00     0.293 C 
HETATM   29  O   UNL     1      38.331 -11.535   2.884  1.00  0.00    -0.259 OA
BRANCH  28  30
HETATM   30  O   UNL     1      40.070 -11.457   1.387  1.00  0.00    -0.318 OA
BRANCH  30  31
HETATM   31  C   UNL     1      40.779 -10.297   1.852  1.00  0.00     0.174 C 
HETATM   32  C   UNL     1      40.719  -9.181   0.823  1.00  0.00     0.034 C 
ENDBRANCH  30  31
ENDBRANCH  28  30
ENDBRANCH   1  28
TORSDOF 7
ENDMDL
MODEL 6
REMARK VINA RESULT:      -7.6      2.332      2.983
REMARK  7 active torsions:
REMARK  status: ('A' for Active; 'I' for Inactive)
REMARK    1  A    between atoms: C_2  and  O_3 
REMARK    2  A    between atoms: O_3  and  C_4 
REMARK    3  A    between atoms: C_4  and  C_5 
REMARK    4  A    between atoms: C_6  and  C_7 
REMARK    5  A    between atoms: C_18  and  S_19 
REMARK    6  A    between atoms: S_19  and  C_20 
REMARK    7  A    between atoms: C_20  and  C_21 
ROOT
HETATM    1  C   UNL     1      40.329 -13.478   4.097  1.00  0.00     0.070 A 
HETATM    2  C   UNL     1      39.886 -14.637   3.208  1.00  0.00     0.203 A 
HETATM    3  N   UNL     1      40.912 -15.688   3.144  1.00  0.00    -0.082 N 
HETATM    4  C   UNL     1      42.097 -15.644   3.822  1.00  0.00     0.726 A 
HETATM    5  N   UNL     1      42.365 -14.593   4.616  1.00  0.00    -0.192 N 
HETATM    6  N   UNL     1      40.791 -16.834   2.446  1.00  0.00    -0.128 NA
HETATM    7  C   UNL     1      41.988 -17.391   2.670  1.00  0.00     0.226 A 
HETATM    8  N   UNL     1      42.803 -16.708   3.538  1.00  0.00    -0.035 NA
HETATM    9  C   UNL     1      41.515 -13.503   4.758  1.00  0.00     0.037 A 
HETATM   10  C   UNL     1      42.000 -12.418   5.690  1.00  0.00     0.070 C 
HETATM   11  H   UNL     1      43.260 -14.559   5.099  1.00  0.00     0.184 HD
ENDROOT
BRANCH   7  12
HETATM   12  S   UNL     1      42.451 -18.868   1.873  1.00  0.00    -0.083 SA
BRANCH  12  13
HETATM   13  C   UNL     1      44.171 -19.003   2.435  1.00  0.00     0.123 C 
BRANCH  13  14
HETATM   14  C   UNL     1      44.363 -20.177   3.366  1.00  0.00    -0.027 A 
HETATM   15  C   UNL     1      44.442 -21.504   2.913  1.00  0.00     0.041 A 
HETATM   16 CL   UNL     1      44.335 -21.912   1.237  1.00  0.00    -0.084 Cl
HETATM   17  C   UNL     1      44.614 -22.557   3.818  1.00  0.00     0.024 A 
HETATM   18  C   UNL     1      44.698 -22.302   5.187  1.00  0.00     0.002 A 
HETATM   19  C   UNL     1      44.608 -20.994   5.653  1.00  0.00     0.001 A 
HETATM   20  C   UNL     1      44.442 -19.940   4.752  1.00  0.00     0.009 A 
ENDBRANCH  13  14
ENDBRANCH  12  13
ENDBRANCH   7  12
BRANCH   2  21
HETATM   21  C   UNL     1      39.490 -14.220   1.791  1.00  0.00    -0.028 A 
HETATM   22  C   UNL     1      40.436 -13.746   0.866  1.00  0.00     0.011 A 
HETATM   23  C   UNL     1      40.039 -13.369  -0.421  1.00  0.00     0.024 A 
HETATM   24  C   UNL     1      38.701 -13.471  -0.795  1.00  0.00     0.034 A 
HETATM   25 CL   UNL     1      38.218 -13.002  -2.377  1.00  0.00    -0.084 Cl
HETATM   26  C   UNL     1      37.753 -13.950   0.104  1.00  0.00     0.024 A 
HETATM   27  C   UNL     1      38.145 -14.325   1.390  1.00  0.00     0.011 A 
ENDBRANCH   2  21
BRANCH   1  28
HETATM   28  C   UNL     1      39.444 -12.293   4.155  1.00  0.00     0.293 C 
HETATM   29  O   UNL     1      38.552 -12.146   4.976  1.00  0.00    -0.259 OA
BRANCH  28  30
HETATM   30  O   UNL     1      39.793 -11.404   3.193  1.00  0.00    -0.318 OA
BRANCH  30  31
HETATM   31  C   UNL     1      38.771 -10.461   2.831  1.00  0.00     0.174 C 
HETATM   32  C   UNL     1      38.623 -10.382   1.321  1.00  0.00     0.034 C 
ENDBRANCH  30  31
ENDBRANCH  28  30
ENDBRANCH   1  28
TORSDOF 7
ENDMDL
MODEL 7
REMARK VINA RESULT:      -7.4      4.296      8.092
REMARK  7 active torsions:
REMARK  status: ('A' for Active; 'I' for Inactive)
REMARK    1  A    between atoms: C_2  and  O_3 
REMARK    2  A    between atoms: O_3  and  C_4 
REMARK    3  A    between atoms: C_4  and  C_5 
REMARK    4  A    between atoms: C_6  and  C_7 
REMARK    5  A    between atoms: C_18  and  S_19 
REMARK    6  A    between atoms: S_19  and  C_20 
REMARK    7  A    between atoms: C_20  and  C_21 
ROOT
HETATM    1  C   UNL     1      42.163 -17.148   2.964  1.00  0.00     0.070 A 
HETATM    2  C   UNL     1      41.050 -16.112   2.829  1.00  0.00     0.203 A 
HETATM    3  N   UNL     1      40.922 -15.639   1.443  1.00  0.00    -0.082 N 
HETATM    4  C   UNL     1      41.683 -16.094   0.404  1.00  0.00     0.726 A 
HETATM    5  N   UNL     1      42.606 -17.045   0.629  1.00  0.00    -0.192 N 
HETATM    6  N   UNL     1      40.016 -14.733   1.024  1.00  0.00    -0.128 NA
HETATM    7  C   UNL     1      40.357 -14.616  -0.266  1.00  0.00     0.226 A 
HETATM    8  N   UNL     1      41.351 -15.462  -0.691  1.00  0.00    -0.035 NA
HETATM    9  C   UNL     1      42.873 -17.572   1.888  1.00  0.00     0.037 A 
HETATM   10  C   UNL     1      43.954 -18.626   1.934  1.00  0.00     0.070 C 
HETATM   11  H   UNL     1      43.183 -17.362  -0.147  1.00  0.00     0.184 HD
ENDROOT
BRANCH   7  12
HETATM   12  S   UNL     1      39.585 -13.442  -1.292  1.00  0.00    -0.083 SA
BRANCH  12  13
HETATM   13  C   UNL     1      40.829 -13.305  -2.606  1.00  0.00     0.123 C 
BRANCH  13  14
HETATM   14  C   UNL     1      41.668 -12.059  -2.451  1.00  0.00    -0.027 A 
HETATM   15  C   UNL     1      41.642 -11.002  -3.377  1.00  0.00     0.041 A 
HETATM   16 CL   UNL     1      40.632 -11.034  -4.779  1.00  0.00    -0.084 Cl
HETATM   17  C   UNL     1      42.444  -9.871  -3.190  1.00  0.00     0.024 A 
HETATM   18  C   UNL     1      43.292  -9.784  -2.086  1.00  0.00     0.002 A 
HETATM   19  C   UNL     1      43.339 -10.828  -1.167  1.00  0.00     0.001 A 
HETATM   20  C   UNL     1      42.536 -11.955  -1.346  1.00  0.00     0.009 A 
ENDBRANCH  13  14
ENDBRANCH  12  13
ENDBRANCH   7  12
BRANCH   2  21
HETATM   21  C   UNL     1      41.196 -14.915   3.769  1.00  0.00    -0.028 A 
HETATM   22  C   UNL     1      42.218 -13.964   3.606  1.00  0.00     0.011 A 
HETATM   23  C   UNL     1      42.325 -12.883   4.486  1.00  0.00     0.024 A 
HETATM   24  C   UNL     1      41.410 -12.739   5.526  1.00  0.00     0.034 A 
HETATM   25 CL   UNL     1      41.548 -11.409   6.608  1.00  0.00    -0.084 Cl
HETATM   26  C   UNL     1      40.384 -13.663   5.695  1.00  0.00     0.024 A 
HETATM   27  C   UNL     1      40.275 -14.745   4.820  1.00  0.00     0.011 A 
ENDBRANCH   2  21
BRANCH   1  28
HETATM   28  C   UNL     1      42.484 -17.622   4.329  1.00  0.00     0.293 C 
HETATM   29  O   UNL     1      41.802 -18.419   4.955  1.00  0.00    -0.259 OA
BRANCH  28  30
HETATM   30  O   UNL     1      43.646 -17.066   4.753  1.00  0.00    -0.318 OA
BRANCH  30  31
HETATM   31  C   UNL     1      43.806 -16.997   6.179  1.00  0.00     0.174 C 
HETATM   32  C   UNL     1      43.720 -15.559   6.661  1.00  0.00     0.034 C 
ENDBRANCH  30  31
ENDBRANCH  28  30
ENDBRANCH   1  28
TORSDOF 7
ENDMDL
MODEL 8
REMARK VINA RESULT:      -7.4      4.352      8.092
REMARK  7 active torsions:
REMARK  status: ('A' for Active; 'I' for Inactive)
REMARK    1  A    between atoms: C_2  and  O_3 
REMARK    2  A    between atoms: O_3  and  C_4 
REMARK    3  A    between atoms: C_4  and  C_5 
REMARK    4  A    between atoms: C_6  and  C_7 
REMARK    5  A    between atoms: C_18  and  S_19 
REMARK    6  A    between atoms: S_19  and  C_20 
REMARK    7  A    between atoms: C_20  and  C_21 
ROOT
HETATM    1  C   UNL     1      41.340 -14.131   3.177  1.00  0.00     0.070 A 
HETATM    2  C   UNL     1      40.874 -14.128   4.631  1.00  0.00     0.203 A 
HETATM    3  N   UNL     1      40.901 -12.773   5.200  1.00  0.00    -0.082 N 
HETATM    4  C   UNL     1      41.267 -11.656   4.504  1.00  0.00     0.726 A 
HETATM    5  N   UNL     1      41.616 -11.769   3.211  1.00  0.00    -0.192 N 
HETATM    6  N   UNL     1      40.531 -12.464   6.459  1.00  0.00    -0.128 NA
HETATM    7  C   UNL     1      40.796 -11.152   6.483  1.00  0.00     0.226 A 
HETATM    8  N   UNL     1      41.215 -10.613   5.292  1.00  0.00    -0.035 NA
HETATM    9  C   UNL     1      41.675 -12.983   2.536  1.00  0.00     0.037 A 
HETATM   10  C   UNL     1      42.098 -12.901   1.089  1.00  0.00     0.070 C 
HETATM   11  H   UNL     1      41.908 -10.935   2.707  1.00  0.00     0.184 HD
ENDROOT
BRANCH   7  12
HETATM   12  S   UNL     1      40.633 -10.233   7.952  1.00  0.00    -0.083 SA
BRANCH  12  13
HETATM   13  C   UNL     1      42.273 -10.507   8.679  1.00  0.00     0.123 C 
BRANCH  13  14
HETATM   14  C   UNL     1      42.190 -10.736  10.170  1.00  0.00    -0.027 A 
HETATM   15  C   UNL     1      43.324 -10.779  10.998  1.00  0.00     0.041 A 
HETATM   16 CL   UNL     1      44.924 -10.564  10.379  1.00  0.00    -0.084 Cl
HETATM   17  C   UNL     1      43.194 -11.001  12.374  1.00  0.00     0.024 A 
HETATM   18  C   UNL     1      41.934 -11.193  12.939  1.00  0.00     0.002 A 
HETATM   19  C   UNL     1      40.801 -11.167  12.131  1.00  0.00     0.001 A 
HETATM   20  C   UNL     1      40.927 -10.940  10.759  1.00  0.00     0.009 A 
ENDBRANCH  13  14
ENDBRANCH  12  13
ENDBRANCH   7  12
BRANCH   2  21
HETATM   21  C   UNL     1      41.653 -15.081   5.538  1.00  0.00    -0.028 A 
HETATM   22  C   UNL     1      42.992 -14.840   5.891  1.00  0.00     0.011 A 
HETATM   23  C   UNL     1      43.677 -15.735   6.719  1.00  0.00     0.024 A 
HETATM   24  C   UNL     1      43.029 -16.868   7.206  1.00  0.00     0.034 A 
HETATM   25 CL   UNL     1      43.876 -17.968   8.222  1.00  0.00    -0.084 Cl
HETATM   26  C   UNL     1      41.700 -17.116   6.877  1.00  0.00     0.024 A 
HETATM   27  C   UNL     1      41.014 -16.226   6.049  1.00  0.00     0.011 A 
ENDBRANCH   2  21
BRANCH   1  28
HETATM   28  C   UNL     1      41.479 -15.448   2.515  1.00  0.00     0.293 C 
HETATM   29  O   UNL     1      40.543 -16.089   2.064  1.00  0.00    -0.259 OA
BRANCH  28  30
HETATM   30  O   UNL     1      42.786 -15.806   2.462  1.00  0.00    -0.318 OA
BRANCH  30  31
HETATM   31  C   UNL     1      43.027 -17.211   2.279  1.00  0.00     0.174 C 
HETATM   32  C   UNL     1      43.529 -17.842   3.567  1.00  0.00     0.034 C 
ENDBRANCH  30  31
ENDBRANCH  28  30
ENDBRANCH   1  28
TORSDOF 7
ENDMDL
MODEL 9
REMARK VINA RESULT:      -7.2      2.518      3.234
REMARK  7 active torsions:
REMARK  status: ('A' for Active; 'I' for Inactive)
REMARK    1  A    between atoms: C_2  and  O_3 
REMARK    2  A    between atoms: O_3  and  C_4 
REMARK    3  A    between atoms: C_4  and  C_5 
REMARK    4  A    between atoms: C_6  and  C_7 
REMARK    5  A    between atoms: C_18  and  S_19 
REMARK    6  A    between atoms: S_19  and  C_20 
REMARK    7  A    between atoms: C_20  and  C_21 
ROOT
HETATM    1  C   UNL     1      39.568 -11.912   3.051  1.00  0.00     0.070 A 
HETATM    2  C   UNL     1      39.480 -13.365   2.593  1.00  0.00     0.203 A 
HETATM    3  N   UNL     1      40.198 -14.262   3.509  1.00  0.00    -0.082 N 
HETATM    4  C   UNL     1      40.835 -13.848   4.645  1.00  0.00     0.726 A 
HETATM    5  N   UNL     1      40.809 -12.546   4.979  1.00  0.00    -0.192 N 
HETATM    6  N   UNL     1      40.281 -15.599   3.364  1.00  0.00    -0.128 NA
HETATM    7  C   UNL     1      41.070 -15.916   4.399  1.00  0.00     0.226 A 
HETATM    8  N   UNL     1      41.401 -14.873   5.228  1.00  0.00    -0.035 NA
HETATM    9  C   UNL     1      40.202 -11.567   4.200  1.00  0.00     0.037 A 
HETATM   10  C   UNL     1      40.290 -10.160   4.743  1.00  0.00     0.070 C 
HETATM   11  H   UNL     1      41.305 -12.244   5.814  1.00  0.00     0.184 HD
ENDROOT
BRANCH   7  12
HETATM   12  S   UNL     1      41.637 -17.545   4.627  1.00  0.00    -0.083 SA
BRANCH  12  13
HETATM   13  C   UNL     1      43.030 -17.560   3.465  1.00  0.00     0.123 C 
BRANCH  13  14
HETATM   14  C   UNL     1      43.550 -18.960   3.236  1.00  0.00    -0.027 A 
HETATM   15  C   UNL     1      44.438 -19.596   4.119  1.00  0.00     0.041 A 
HETATM   16 CL   UNL     1      45.009 -18.831   5.560  1.00  0.00    -0.084 Cl
HETATM   17  C   UNL     1      44.896 -20.893   3.858  1.00  0.00     0.024 A 
HETATM   18  C   UNL     1      44.484 -21.566   2.708  1.00  0.00     0.002 A 
HETATM   19  C   UNL     1      43.615 -20.944   1.816  1.00  0.00     0.001 A 
HETATM   20  C   UNL     1      43.152 -19.653   2.076  1.00  0.00     0.009 A 
ENDBRANCH  13  14
ENDBRANCH  12  13
ENDBRANCH   7  12
BRANCH   2  21
HETATM   21  C   UNL     1      39.967 -13.598   1.162  1.00  0.00    -0.028 A 
HETATM   22  C   UNL     1      41.325 -13.499   0.815  1.00  0.00     0.011 A 
HETATM   23  C   UNL     1      41.736 -13.713  -0.504  1.00  0.00     0.024 A 
HETATM   24  C   UNL     1      40.797 -14.037  -1.482  1.00  0.00     0.034 A 
HETATM   25 CL   UNL     1      41.307 -14.297  -3.104  1.00  0.00    -0.084 Cl
HETATM   26  C   UNL     1      39.450 -14.152  -1.154  1.00  0.00     0.024 A 
HETATM   27  C   UNL     1      39.036 -13.936   0.162  1.00  0.00     0.011 A 
ENDBRANCH   2  21
BRANCH   1  28
HETATM   28  C   UNL     1      38.991 -10.884   2.155  1.00  0.00     0.293 C 
HETATM   29  O   UNL     1      39.637 -10.259   1.328  1.00  0.00    -0.259 OA
BRANCH  28  30
HETATM   30  O   UNL     1      37.657 -10.774   2.371  1.00  0.00    -0.318 OA
BRANCH  30  31
HETATM   31  C   UNL     1      36.882 -10.394   1.222  1.00  0.00     0.174 C 
HETATM   32  C   UNL     1      36.276 -11.616   0.554  1.00  0.00     0.034 C 
ENDBRANCH  30  31
ENDBRANCH  28  30
ENDBRANCH   1  28
TORSDOF 7
ENDMDL
MODEL 10
REMARK VINA RESULT:      -7.2      4.291      7.875
REMARK  7 active torsions:
REMARK  status: ('A' for Active; 'I' for Inactive)
REMARK    1  A    between atoms: C_2  and  O_3 
REMARK    2  A    between atoms: O_3  and  C_4 
REMARK    3  A    between atoms: C_4  and  C_5 
REMARK    4  A    between atoms: C_6  and  C_7 
REMARK    5  A    between atoms: C_18  and  S_19 
REMARK    6  A    between atoms: S_19  and  C_20 
REMARK    7  A    between atoms: C_20  and  C_21 
ROOT
HETATM    1  C   UNL     1      42.164 -17.134   2.945  1.00  0.00     0.070 A 
HETATM    2  C   UNL     1      41.035 -16.114   2.827  1.00  0.00     0.203 A 
HETATM    3  N   UNL     1      40.874 -15.648   1.443  1.00  0.00    -0.082 N 
HETATM    4  C   UNL     1      41.623 -16.096   0.391  1.00  0.00     0.726 A 
HETATM    5  N   UNL     1      42.563 -17.033   0.602  1.00  0.00    -0.192 N 
HETATM    6  N   UNL     1      39.949 -14.756   1.038  1.00  0.00    -0.128 NA
HETATM    7  C   UNL     1      40.263 -14.639  -0.259  1.00  0.00     0.226 A 
HETATM    8  N   UNL     1      41.262 -15.472  -0.700  1.00  0.00    -0.035 NA
HETATM    9  C   UNL     1      42.861 -17.552   1.857  1.00  0.00     0.037 A 
HETATM   10  C   UNL     1      43.957 -18.590   1.887  1.00  0.00     0.070 C 
HETATM   11  H   UNL     1      43.130 -17.344  -0.183  1.00  0.00     0.184 HD
ENDROOT
BRANCH   7  12
HETATM   12  S   UNL     1      39.456 -13.479  -1.275  1.00  0.00    -0.083 SA
BRANCH  12  13
HETATM   13  C   UNL     1      39.749 -11.965  -0.320  1.00  0.00     0.123 C 
BRANCH  13  14
HETATM   14  C   UNL     1      41.047 -11.300  -0.713  1.00  0.00    -0.027 A 
HETATM   15  C   UNL     1      41.687 -10.343   0.092  1.00  0.00     0.041 A 
HETATM   16 CL   UNL     1      41.045  -9.846   1.618  1.00  0.00    -0.084 Cl
HETATM   17  C   UNL     1      42.886  -9.751  -0.321  1.00  0.00     0.024 A 
HETATM   18  C   UNL     1      43.456 -10.097  -1.546  1.00  0.00     0.002 A 
HETATM   19  C   UNL     1      42.828 -11.034  -2.361  1.00  0.00     0.001 A 
HETATM   20  C   UNL     1      41.634 -11.631  -1.950  1.00  0.00     0.009 A 
ENDBRANCH  13  14
ENDBRANCH  12  13
ENDBRANCH   7  12
BRANCH   2  21
HETATM   21  C   UNL     1      41.181 -14.912   3.760  1.00  0.00    -0.028 A 
HETATM   22  C   UNL     1      42.198 -13.958   3.588  1.00  0.00     0.011 A 
HETATM   23  C   UNL     1      42.306 -12.872   4.462  1.00  0.00     0.024 A 
HETATM   24  C   UNL     1      41.395 -12.726   5.506  1.00  0.00     0.034 A 
HETATM   25 CL   UNL     1      41.534 -11.391   6.581  1.00  0.00    -0.084 Cl
HETATM   26  C   UNL     1      40.373 -13.654   5.684  1.00  0.00     0.024 A 
HETATM   27  C   UNL     1      40.264 -14.740   4.815  1.00  0.00     0.011 A 
ENDBRANCH   2  21
BRANCH   1  28
HETATM   28  C   UNL     1      42.517 -17.598   4.306  1.00  0.00     0.293 C 
HETATM   29  O   UNL     1      41.897 -18.453   4.919  1.00  0.00    -0.259 OA
BRANCH  28  30
HETATM   30  O   UNL     1      43.632 -16.960   4.741  1.00  0.00    -0.318 OA
BRANCH  30  31
HETATM   31  C   UNL     1      43.814 -16.952   6.166  1.00  0.00     0.174 C 
HETATM   32  C   UNL     1      43.743 -15.534   6.708  1.00  0.00     0.034 C 
ENDBRANCH  30  31
ENDBRANCH  28  30
ENDBRANCH   1  28
TORSDOF 7
ENDMDL
