MODEL 1
REMARK VINA RESULT:      -8.2      0.000      0.000
REMARK  3 active torsions:
REMARK  status: ('A' for Active; 'I' for Inactive)
REMARK    1  A    between atoms: C_4  and  C_5 
REMARK    2  A    between atoms: C_11  and  C_12 
REMARK    3  A    between atoms: C_21  and  N_22 
ROOT
HETATM    1  C   UNL     1      42.115 -17.971   2.049  1.00  0.00     0.098 A 
HETATM    2  N   UNL     1      41.172 -17.917   1.086  1.00  0.00    -0.172 NA
HETATM    3  N   UNL     1      40.619 -16.697   1.215  1.00  0.00    -0.256 N 
HETATM    4  H   UNL     1      39.915 -16.406   0.547  1.00  0.00     0.191 HD
HETATM    5  C   UNL     1      41.154 -15.987   2.236  1.00  0.00     0.175 A 
HETATM    6  C   UNL     1      42.065 -16.799   2.857  1.00  0.00     0.036 A 
HETATM    7  C   UNL     1      42.792 -16.304   4.070  1.00  0.00     0.077 C 
HETATM    8  C   UNL     1      42.763 -14.750   4.022  1.00  0.00     0.076 C 
HETATM    9  C   UNL     1      43.792 -14.045   4.712  1.00  0.00     0.100 C 
HETATM   10  N   UNL     1      44.621 -13.474   5.290  1.00  0.00    -0.192 NA
HETATM   11  C   UNL     1      41.830 -14.058   3.307  1.00  0.00     0.140 C 
HETATM   12  O   UNL     1      40.882 -14.716   2.502  1.00  0.00    -0.279 OA
ENDROOT
BRANCH   7  13
HETATM   13  C   UNL     1      42.158 -16.784   5.431  1.00  0.00     0.003 C 
HETATM   14  C   UNL     1      41.922 -18.308   5.579  1.00  0.00     0.032 C 
HETATM   15  C   UNL     1      43.157 -19.079   5.935  1.00  0.00    -0.030 C 
HETATM   16  C   UNL     1      44.255 -18.506   6.447  1.00  0.00    -0.031 C 
HETATM   17  C   UNL     1      44.343 -17.042   6.756  1.00  0.00     0.027 C 
HETATM   18  C   UNL     1      42.987 -16.332   6.659  1.00  0.00     0.009 C 
ENDBRANCH   7  13
BRANCH  11  19
HETATM   19  N   UNL     1      41.712 -12.689   3.253  1.00  0.00    -0.282 NA
HETATM   20  H   UNL     1      40.798 -12.337   2.977  1.00  0.00     0.126 HD
HETATM   21  H   UNL     1      42.478 -12.259   2.739  1.00  0.00     0.126 HD
ENDBRANCH  11  19
BRANCH   1  22
HETATM   22  C   UNL     1      43.002 -19.127   2.156  1.00  0.00    -0.005 A 
HETATM   23  C   UNL     1      44.283 -19.005   2.712  1.00  0.00     0.014 A 
HETATM   24  C   UNL     1      45.115 -20.122   2.826  1.00  0.00     0.001 A 
HETATM   25  C   UNL     1      44.679 -21.367   2.376  1.00  0.00     0.000 A 
HETATM   26  C   UNL     1      43.416 -21.496   1.801  1.00  0.00     0.001 A 
HETATM   27  C   UNL     1      42.583 -20.379   1.686  1.00  0.00     0.014 A 
ENDBRANCH   1  22
TORSDOF 3
ENDMDL
MODEL 2
REMARK VINA RESULT:      -8.1      1.991      2.768
REMARK  3 active torsions:
REMARK  status: ('A' for Active; 'I' for Inactive)
REMARK    1  A    between atoms: C_4  and  C_5 
REMARK    2  A    between atoms: C_11  and  C_12 
REMARK    3  A    between atoms: C_21  and  N_22 
ROOT
HETATM    1  C   UNL     1      41.588 -15.401   3.348  1.00  0.00     0.098 A 
HETATM    2  N   UNL     1      40.466 -14.835   2.858  1.00  0.00    -0.172 NA
HETATM    3  N   UNL     1      40.142 -13.883   3.753  1.00  0.00    -0.256 N 
HETATM    4  H   UNL     1      39.354 -13.277   3.560  1.00  0.00     0.191 HD
HETATM    5  C   UNL     1      40.998 -13.840   4.802  1.00  0.00     0.175 A 
HETATM    6  C   UNL     1      41.899 -14.856   4.627  1.00  0.00     0.036 A 
HETATM    7  C   UNL     1      42.952 -15.099   5.666  1.00  0.00     0.077 C 
HETATM    8  C   UNL     1      43.141 -13.769   6.449  1.00  0.00     0.076 C 
HETATM    9  C   UNL     1      44.393 -13.549   7.092  1.00  0.00     0.100 C 
HETATM   10  N   UNL     1      45.408 -13.381   7.630  1.00  0.00    -0.192 NA
HETATM   11  C   UNL     1      42.179 -12.803   6.490  1.00  0.00     0.140 C 
HETATM   12  O   UNL     1      40.984 -12.919   5.757  1.00  0.00    -0.279 OA
ENDROOT
BRANCH   7  13
HETATM   13  C   UNL     1      42.587 -16.244   6.685  1.00  0.00     0.003 C 
HETATM   14  C   UNL     1      41.841 -17.470   6.104  1.00  0.00     0.032 C 
HETATM   15  C   UNL     1      42.735 -18.445   5.399  1.00  0.00    -0.030 C 
HETATM   16  C   UNL     1      44.064 -18.474   5.572  1.00  0.00    -0.031 C 
HETATM   17  C   UNL     1      44.784 -17.563   6.520  1.00  0.00     0.027 C 
HETATM   18  C   UNL     1      43.831 -16.784   7.435  1.00  0.00     0.009 C 
ENDBRANCH   7  13
BRANCH  11  19
HETATM   19  N   UNL     1      42.254 -11.624   7.196  1.00  0.00    -0.282 NA
HETATM   20  H   UNL     1      42.985 -10.981   6.902  1.00  0.00     0.126 HD
HETATM   21  H   UNL     1      42.238 -11.778   8.201  1.00  0.00     0.126 HD
ENDBRANCH  11  19
BRANCH   1  22
HETATM   22  C   UNL     1      42.296 -16.426   2.586  1.00  0.00    -0.005 A 
HETATM   23  C   UNL     1      43.655 -16.285   2.274  1.00  0.00     0.014 A 
HETATM   24  C   UNL     1      44.326 -17.281   1.560  1.00  0.00     0.001 A 
HETATM   25  C   UNL     1      43.643 -18.422   1.143  1.00  0.00     0.000 A 
HETATM   26  C   UNL     1      42.286 -18.563   1.427  1.00  0.00     0.001 A 
HETATM   27  C   UNL     1      41.614 -17.567   2.141  1.00  0.00     0.014 A 
ENDBRANCH   1  22
TORSDOF 3
ENDMDL
MODEL 3
REMARK VINA RESULT:      -7.8      2.596      5.195
REMARK  3 active torsions:
REMARK  status: ('A' for Active; 'I' for Inactive)
REMARK    1  A    between atoms: C_4  and  C_5 
REMARK    2  A    between atoms: C_11  and  C_12 
REMARK    3  A    between atoms: C_21  and  N_22 
ROOT
HETATM    1  C   UNL     1      42.199 -16.589   1.596  1.00  0.00     0.098 A 
HETATM    2  N   UNL     1      42.815 -17.289   0.621  1.00  0.00    -0.172 NA
HETATM    3  N   UNL     1      43.754 -18.013   1.258  1.00  0.00    -0.256 N 
HETATM    4  H   UNL     1      44.310 -18.671   0.726  1.00  0.00     0.191 HD
HETATM    5  C   UNL     1      43.776 -17.780   2.592  1.00  0.00     0.175 A 
HETATM    6  C   UNL     1      42.847 -16.806   2.846  1.00  0.00     0.036 A 
HETATM    7  C   UNL     1      42.675 -16.294   4.243  1.00  0.00     0.077 C 
HETATM    8  C   UNL     1      43.202 -17.395   5.206  1.00  0.00     0.076 C 
HETATM    9  C   UNL     1      42.687 -17.418   6.535  1.00  0.00     0.100 C 
HETATM   10  N   UNL     1      42.279 -17.422   7.621  1.00  0.00    -0.192 NA
HETATM   11  C   UNL     1      44.086 -18.353   4.805  1.00  0.00     0.140 C 
HETATM   12  O   UNL     1      44.514 -18.449   3.469  1.00  0.00    -0.279 OA
ENDROOT
BRANCH   7  13
HETATM   13  C   UNL     1      43.452 -14.952   4.528  1.00  0.00     0.003 C 
HETATM   14  C   UNL     1      43.576 -13.965   3.341  1.00  0.00     0.032 C 
HETATM   15  C   UNL     1      42.344 -13.147   3.101  1.00  0.00    -0.030 C 
HETATM   16  C   UNL     1      41.381 -12.990   4.020  1.00  0.00    -0.031 C 
HETATM   17  C   UNL     1      41.461 -13.581   5.395  1.00  0.00     0.027 C 
HETATM   18  C   UNL     1      42.845 -14.160   5.714  1.00  0.00     0.009 C 
ENDBRANCH   7  13
BRANCH  11  19
HETATM   19  N   UNL     1      44.632 -19.329   5.607  1.00  0.00    -0.282 NA
HETATM   20  H   UNL     1      45.619 -19.522   5.455  1.00  0.00     0.126 HD
HETATM   21  H   UNL     1      44.059 -20.170   5.630  1.00  0.00     0.126 HD
ENDBRANCH  11  19
BRANCH   1  22
HETATM   22  C   UNL     1      41.042 -15.751   1.291  1.00  0.00    -0.005 A 
HETATM   23  C   UNL     1      39.889 -15.796   2.085  1.00  0.00     0.014 A 
HETATM   24  C   UNL     1      38.795 -14.976   1.794  1.00  0.00     0.001 A 
HETATM   25  C   UNL     1      38.841 -14.112   0.701  1.00  0.00     0.000 A 
HETATM   26  C   UNL     1      39.974 -14.075  -0.110  1.00  0.00     0.001 A 
HETATM   27  C   UNL     1      41.068 -14.896   0.181  1.00  0.00     0.014 A 
ENDBRANCH   1  22
TORSDOF 3
ENDMDL
MODEL 4
REMARK VINA RESULT:      -7.8      2.611      5.337
REMARK  3 active torsions:
REMARK  status: ('A' for Active; 'I' for Inactive)
REMARK    1  A    between atoms: C_4  and  C_5 
REMARK    2  A    between atoms: C_11  and  C_12 
REMARK    3  A    between atoms: C_21  and  N_22 
ROOT
HETATM    1  C   UNL     1      40.808 -14.983   4.306  1.00  0.00     0.098 A 
HETATM    2  N   UNL     1      39.752 -14.617   5.061  1.00  0.00    -0.172 NA
HETATM    3  N   UNL     1      39.832 -15.386   6.162  1.00  0.00    -0.256 N 
HETATM    4  H   UNL     1      39.166 -15.242   6.911  1.00  0.00     0.191 HD
HETATM    5  C   UNL     1      40.881 -16.243   6.124  1.00  0.00     0.175 A 
HETATM    6  C   UNL     1      41.491 -16.079   4.909  1.00  0.00     0.036 A 
HETATM    7  C   UNL     1      42.666 -16.936   4.548  1.00  0.00     0.077 C 
HETATM    8  C   UNL     1      43.291 -17.443   5.878  1.00  0.00     0.076 C 
HETATM    9  C   UNL     1      44.670 -17.806   5.868  1.00  0.00     0.100 C 
HETATM   10  N   UNL     1      45.787 -18.117   5.852  1.00  0.00    -0.192 NA
HETATM   11  C   UNL     1      42.585 -17.497   7.044  1.00  0.00     0.140 C 
HETATM   12  O   UNL     1      41.264 -17.020   7.128  1.00  0.00    -0.279 OA
ENDROOT
BRANCH   7  13
HETATM   13  C   UNL     1      42.294 -18.179   3.653  1.00  0.00     0.003 C 
HETATM   14  C   UNL     1      41.318 -17.913   2.480  1.00  0.00     0.032 C 
HETATM   15  C   UNL     1      41.969 -17.300   1.278  1.00  0.00    -0.030 C 
HETATM   16  C   UNL     1      43.293 -17.325   1.071  1.00  0.00    -0.031 C 
HETATM   17  C   UNL     1      44.251 -18.008   1.999  1.00  0.00     0.027 C 
HETATM   18  C   UNL     1      43.545 -18.869   3.054  1.00  0.00     0.009 C 
ENDBRANCH   7  13
BRANCH  11  19
HETATM   19  N   UNL     1      43.053 -17.975   8.246  1.00  0.00    -0.282 NA
HETATM   20  H   UNL     1      42.493 -17.738   9.062  1.00  0.00     0.126 HD
HETATM   21  H   UNL     1      44.045 -17.784   8.373  1.00  0.00     0.126 HD
ENDBRANCH  11  19
BRANCH   1  22
HETATM   22  C   UNL     1      41.107 -14.285   3.058  1.00  0.00    -0.005 A 
HETATM   23  C   UNL     1      42.294 -13.558   2.904  1.00  0.00     0.014 A 
HETATM   24  C   UNL     1      42.578 -12.910   1.699  1.00  0.00     0.001 A 
HETATM   25  C   UNL     1      41.671 -12.974   0.642  1.00  0.00     0.000 A 
HETATM   26  C   UNL     1      40.476 -13.675   0.791  1.00  0.00     0.001 A 
HETATM   27  C   UNL     1      40.193 -14.323   1.996  1.00  0.00     0.014 A 
ENDBRANCH   1  22
TORSDOF 3
ENDMDL
MODEL 5
REMARK VINA RESULT:      -7.7      3.136      5.585
REMARK  3 active torsions:
REMARK  status: ('A' for Active; 'I' for Inactive)
REMARK    1  A    between atoms: C_4  and  C_5 
REMARK    2  A    between atoms: C_11  and  C_12 
REMARK    3  A    between atoms: C_21  and  N_22 
ROOT
HETATM    1  C   UNL     1      43.269 -17.777   3.282  1.00  0.00     0.098 A 
HETATM    2  N   UNL     1      43.646 -18.001   2.006  1.00  0.00    -0.172 NA
HETATM    3  N   UNL     1      44.382 -19.126   2.057  1.00  0.00    -0.256 N 
HETATM    4  H   UNL     1      44.727 -19.525   1.192  1.00  0.00     0.191 HD
HETATM    5  C   UNL     1      44.509 -19.610   3.316  1.00  0.00     0.175 A 
HETATM    6  C   UNL     1      43.878 -18.727   4.151  1.00  0.00     0.036 A 
HETATM    7  C   UNL     1      43.893 -18.968   5.630  1.00  0.00     0.077 C 
HETATM    8  C   UNL     1      44.144 -20.487   5.847  1.00  0.00     0.076 C 
HETATM    9  C   UNL     1      43.685 -21.069   7.064  1.00  0.00     0.100 C 
HETATM   10  N   UNL     1      43.327 -21.536   8.064  1.00  0.00    -0.192 NA
HETATM   11  C   UNL     1      44.730 -21.273   4.899  1.00  0.00     0.140 C 
HETATM   12  O   UNL     1      45.073 -20.768   3.631  1.00  0.00    -0.279 OA
ENDROOT
BRANCH   7  13
HETATM   13  C   UNL     1      45.005 -18.153   6.395  1.00  0.00     0.003 C 
HETATM   14  C   UNL     1      45.159 -16.664   6.000  1.00  0.00     0.032 C 
HETATM   15  C   UNL     1      44.135 -15.763   6.622  1.00  0.00    -0.030 C 
HETATM   16  C   UNL     1      43.408 -16.113   7.692  1.00  0.00    -0.031 C 
HETATM   17  C   UNL     1      43.576 -17.423   8.400  1.00  0.00     0.027 C 
HETATM   18  C   UNL     1      44.815 -18.198   7.932  1.00  0.00     0.009 C 
ENDBRANCH   7  13
BRANCH  11  19
HETATM   19  N   UNL     1      45.026 -22.610   5.034  1.00  0.00    -0.282 NA
HETATM   20  H   UNL     1      45.581 -22.858   5.850  1.00  0.00     0.126 HD
HETATM   21  H   UNL     1      45.384 -23.012   4.170  1.00  0.00     0.126 HD
ENDBRANCH  11  19
BRANCH   1  22
HETATM   22  C   UNL     1      42.364 -16.678   3.607  1.00  0.00    -0.005 A 
HETATM   23  C   UNL     1      41.336 -16.842   4.545  1.00  0.00     0.014 A 
HETATM   24  C   UNL     1      40.488 -15.777   4.862  1.00  0.00     0.001 A 
HETATM   25  C   UNL     1      40.653 -14.543   4.236  1.00  0.00     0.000 A 
HETATM   26  C   UNL     1      41.658 -14.374   3.284  1.00  0.00     0.001 A 
HETATM   27  C   UNL     1      42.506 -15.439   2.967  1.00  0.00     0.014 A 
ENDBRANCH   1  22
TORSDOF 3
ENDMDL
MODEL 6
REMARK VINA RESULT:      -7.6      1.898      4.617
REMARK  3 active torsions:
REMARK  status: ('A' for Active; 'I' for Inactive)
REMARK    1  A    between atoms: C_4  and  C_5 
REMARK    2  A    between atoms: C_11  and  C_12 
REMARK    3  A    between atoms: C_21  and  N_22 
ROOT
HETATM    1  C   UNL     1      43.272 -15.395   5.543  1.00  0.00     0.098 A 
HETATM    2  N   UNL     1      43.805 -14.420   6.309  1.00  0.00    -0.172 NA
HETATM    3  N   UNL     1      43.302 -13.276   5.810  1.00  0.00    -0.256 N 
HETATM    4  H   UNL     1      43.520 -12.402   6.272  1.00  0.00     0.191 HD
HETATM    5  C   UNL     1      42.493 -13.484   4.743  1.00  0.00     0.175 A 
HETATM    6  C   UNL     1      42.509 -14.828   4.482  1.00  0.00     0.036 A 
HETATM    7  C   UNL     1      41.740 -15.364   3.313  1.00  0.00     0.077 C 
HETATM    8  C   UNL     1      40.623 -14.334   2.984  1.00  0.00     0.076 C 
HETATM    9  C   UNL     1      39.458 -14.807   2.314  1.00  0.00     0.100 C 
HETATM   10  N   UNL     1      38.519 -15.193   1.752  1.00  0.00    -0.192 NA
HETATM   11  C   UNL     1      40.703 -13.025   3.362  1.00  0.00     0.140 C 
HETATM   12  O   UNL     1      41.770 -12.547   4.144  1.00  0.00    -0.279 OA
ENDROOT
BRANCH   7  13
HETATM   13  C   UNL     1      42.619 -15.592   2.024  1.00  0.00     0.003 C 
HETATM   14  C   UNL     1      43.970 -16.320   2.234  1.00  0.00     0.032 C 
HETATM   15  C   UNL     1      43.844 -17.808   2.355  1.00  0.00    -0.030 C 
HETATM   16  C   UNL     1      42.760 -18.484   1.949  1.00  0.00    -0.031 C 
HETATM   17  C   UNL     1      41.585 -17.825   1.293  1.00  0.00     0.027 C 
HETATM   18  C   UNL     1      41.855 -16.363   0.919  1.00  0.00     0.009 C 
ENDBRANCH   7  13
BRANCH  11  19
HETATM   19  N   UNL     1      39.780 -12.047   3.070  1.00  0.00    -0.282 NA
HETATM   20  H   UNL     1      40.143 -11.097   3.035  1.00  0.00     0.126 HD
HETATM   21  H   UNL     1      38.939 -12.134   3.635  1.00  0.00     0.126 HD
ENDBRANCH  11  19
BRANCH   1  22
HETATM   22  C   UNL     1      43.519 -16.801   5.852  1.00  0.00    -0.005 A 
HETATM   23  C   UNL     1      42.543 -17.776   5.608  1.00  0.00     0.014 A 
HETATM   24  C   UNL     1      42.798 -19.121   5.891  1.00  0.00     0.001 A 
HETATM   25  C   UNL     1      44.026 -19.501   6.430  1.00  0.00     0.000 A 
HETATM   26  C   UNL     1      44.996 -18.536   6.698  1.00  0.00     0.001 A 
HETATM   27  C   UNL     1      44.741 -17.192   6.416  1.00  0.00     0.014 A 
ENDBRANCH   1  22
TORSDOF 3
ENDMDL
MODEL 7
REMARK VINA RESULT:      -7.3      2.699      4.702
REMARK  3 active torsions:
REMARK  status: ('A' for Active; 'I' for Inactive)
REMARK    1  A    between atoms: C_4  and  C_5 
REMARK    2  A    between atoms: C_11  and  C_12 
REMARK    3  A    between atoms: C_21  and  N_22 
ROOT
HETATM    1  C   UNL     1      42.348 -16.937   3.734  1.00  0.00     0.098 A 
HETATM    2  N   UNL     1      42.315 -18.200   3.262  1.00  0.00    -0.172 NA
HETATM    3  N   UNL     1      41.937 -18.077   1.976  1.00  0.00    -0.256 N 
HETATM    4  H   UNL     1      41.902 -18.905   1.394  1.00  0.00     0.191 HD
HETATM    5  C   UNL     1      41.704 -16.790   1.622  1.00  0.00     0.175 A 
HETATM    6  C   UNL     1      41.875 -16.027   2.746  1.00  0.00     0.036 A 
HETATM    7  C   UNL     1      41.633 -14.549   2.681  1.00  0.00     0.077 C 
HETATM    8  C   UNL     1      41.790 -14.122   1.195  1.00  0.00     0.076 C 
HETATM    9  C   UNL     1      42.142 -12.767   0.927  1.00  0.00     0.100 C 
HETATM   10  N   UNL     1      42.411 -11.659   0.712  1.00  0.00    -0.192 NA
HETATM   11  C   UNL     1      41.656 -15.004   0.163  1.00  0.00     0.140 C 
HETATM   12  O   UNL     1      41.445 -16.376   0.389  1.00  0.00    -0.279 OA
ENDROOT
BRANCH   7  13
HETATM   13  C   UNL     1      40.204 -14.117   3.189  1.00  0.00     0.003 C 
HETATM   14  C   UNL     1      39.720 -14.763   4.510  1.00  0.00     0.032 C 
HETATM   15  C   UNL     1      40.298 -14.132   5.740  1.00  0.00    -0.030 C 
HETATM   16  C   UNL     1      40.860 -12.915   5.742  1.00  0.00    -0.031 C 
HETATM   17  C   UNL     1      40.927 -12.045   4.523  1.00  0.00     0.027 C 
HETATM   18  C   UNL     1      40.081 -12.582   3.362  1.00  0.00     0.009 C 
ENDBRANCH   7  13
BRANCH  11  19
HETATM   19  N   UNL     1      41.735 -14.693  -1.175  1.00  0.00    -0.282 NA
HETATM   20  H   UNL     1      42.675 -14.634  -1.558  1.00  0.00     0.126 HD
HETATM   21  H   UNL     1      41.153 -13.894  -1.417  1.00  0.00     0.126 HD
ENDBRANCH  11  19
BRANCH   1  22
HETATM   22  C   UNL     1      42.815 -16.664   5.091  1.00  0.00    -0.005 A 
HETATM   23  C   UNL     1      42.391 -17.448   6.172  1.00  0.00     0.014 A 
HETATM   24  C   UNL     1      42.860 -17.189   7.463  1.00  0.00     0.001 A 
HETATM   25  C   UNL     1      43.747 -16.137   7.686  1.00  0.00     0.000 A 
HETATM   26  C   UNL     1      44.158 -15.336   6.622  1.00  0.00     0.001 A 
HETATM   27  C   UNL     1      43.690 -15.595   5.331  1.00  0.00     0.014 A 
ENDBRANCH   1  22
TORSDOF 3
ENDMDL
MODEL 8
REMARK VINA RESULT:      -7.2      2.187      3.601
REMARK  3 active torsions:
REMARK  status: ('A' for Active; 'I' for Inactive)
REMARK    1  A    between atoms: C_4  and  C_5 
REMARK    2  A    between atoms: C_11  and  C_12 
REMARK    3  A    between atoms: C_21  and  N_22 
ROOT
HETATM    1  C   UNL     1      43.197 -18.425   3.534  1.00  0.00     0.098 A 
HETATM    2  N   UNL     1      43.309 -19.532   2.771  1.00  0.00    -0.172 NA
HETATM    3  N   UNL     1      42.846 -19.165   1.562  1.00  0.00    -0.256 N 
HETATM    4  H   UNL     1      42.891 -19.828   0.798  1.00  0.00     0.191 HD
HETATM    5  C   UNL     1      42.420 -17.879   1.535  1.00  0.00     0.175 A 
HETATM    6  C   UNL     1      42.549 -17.386   2.806  1.00  0.00     0.036 A 
HETATM    7  C   UNL     1      42.104 -15.987   3.106  1.00  0.00     0.077 C 
HETATM    8  C   UNL     1      42.116 -15.202   1.764  1.00  0.00     0.076 C 
HETATM    9  C   UNL     1      42.264 -13.786   1.824  1.00  0.00     0.100 C 
HETATM   10  N   UNL     1      42.367 -12.631   1.878  1.00  0.00    -0.192 NA
HETATM   11  C   UNL     1      42.045 -15.825   0.553  1.00  0.00     0.140 C 
HETATM   12  O   UNL     1      42.037 -17.228   0.445  1.00  0.00    -0.279 OA
ENDROOT
BRANCH   7  13
HETATM   13  C   UNL     1      40.661 -15.900   3.735  1.00  0.00     0.003 C 
HETATM   14  C   UNL     1      40.301 -16.985   4.779  1.00  0.00     0.032 C 
HETATM   15  C   UNL     1      40.861 -16.724   6.144  1.00  0.00    -0.030 C 
HETATM   16  C   UNL     1      41.296 -15.517   6.536  1.00  0.00    -0.031 C 
HETATM   17  C   UNL     1      41.224 -14.301   5.664  1.00  0.00     0.027 C 
HETATM   18  C   UNL     1      40.389 -14.526   4.397  1.00  0.00     0.009 C 
ENDBRANCH   7  13
BRANCH  11  19
HETATM   19  N   UNL     1      42.005 -15.199  -0.672  1.00  0.00    -0.282 NA
HETATM   20  H   UNL     1      42.735 -15.468  -1.327  1.00  0.00     0.126 HD
HETATM   21  H   UNL     1      41.899 -14.192  -0.583  1.00  0.00     0.126 HD
ENDBRANCH  11  19
BRANCH   1  22
HETATM   22  C   UNL     1      43.699 -18.415   4.906  1.00  0.00    -0.005 A 
HETATM   23  C   UNL     1      44.380 -17.303   5.417  1.00  0.00     0.014 A 
HETATM   24  C   UNL     1      44.840 -17.297   6.737  1.00  0.00     0.001 A 
HETATM   25  C   UNL     1      44.633 -18.408   7.553  1.00  0.00     0.000 A 
HETATM   26  C   UNL     1      43.977 -19.530   7.048  1.00  0.00     0.001 A 
HETATM   27  C   UNL     1      43.517 -19.535   5.728  1.00  0.00     0.014 A 
ENDBRANCH   1  22
TORSDOF 3
ENDMDL
MODEL 9
REMARK VINA RESULT:      -7.1      2.957      5.982
REMARK  3 active torsions:
REMARK  status: ('A' for Active; 'I' for Inactive)
REMARK    1  A    between atoms: C_4  and  C_5 
REMARK    2  A    between atoms: C_11  and  C_12 
REMARK    3  A    between atoms: C_21  and  N_22 
ROOT
HETATM    1  C   UNL     1      40.886 -15.314   0.768  1.00  0.00     0.098 A 
HETATM    2  N   UNL     1      41.579 -15.877  -0.243  1.00  0.00    -0.172 NA
HETATM    3  N   UNL     1      42.468 -16.688   0.359  1.00  0.00    -0.256 N 
HETATM    4  H   UNL     1      43.067 -17.270  -0.214  1.00  0.00     0.191 HD
HETATM    5  C   UNL     1      42.385 -16.642   1.710  1.00  0.00     0.175 A 
HETATM    6  C   UNL     1      41.435 -15.706   2.023  1.00  0.00     0.036 A 
HETATM    7  C   UNL     1      41.152 -15.390   3.460  1.00  0.00     0.077 C 
HETATM    8  C   UNL     1      41.607 -16.617   4.300  1.00  0.00     0.076 C 
HETATM    9  C   UNL     1      40.990 -16.820   5.568  1.00  0.00     0.100 C 
HETATM   10  N   UNL     1      40.499 -16.972   6.608  1.00  0.00    -0.192 NA
HETATM   11  C   UNL     1      42.523 -17.517   3.840  1.00  0.00     0.140 C 
HETATM   12  O   UNL     1      43.054 -17.431   2.540  1.00  0.00    -0.279 OA
ENDROOT
BRANCH   7  13
HETATM   13  C   UNL     1      41.900 -14.106   3.987  1.00  0.00     0.003 C 
HETATM   14  C   UNL     1      42.109 -12.964   2.963  1.00  0.00     0.032 C 
HETATM   15  C   UNL     1      40.894 -12.113   2.748  1.00  0.00    -0.030 C 
HETATM   16  C   UNL     1      39.864 -12.081   3.605  1.00  0.00    -0.031 C 
HETATM   17  C   UNL     1      39.843 -12.858   4.886  1.00  0.00     0.027 C 
HETATM   18  C   UNL     1      41.202 -13.485   5.223  1.00  0.00     0.009 C 
ENDBRANCH   7  13
BRANCH  11  19
HETATM   19  N   UNL     1      43.008 -18.599   4.539  1.00  0.00    -0.282 NA
HETATM   20  H   UNL     1      43.879 -18.994   4.190  1.00  0.00     0.126 HD
HETATM   21  H   UNL     1      42.290 -19.299   4.707  1.00  0.00     0.126 HD
ENDBRANCH  11  19
BRANCH   1  22
HETATM   22  C   UNL     1      39.753 -14.434   0.493  1.00  0.00    -0.005 A 
HETATM   23  C   UNL     1      39.846 -13.417  -0.467  1.00  0.00     0.014 A 
HETATM   24  C   UNL     1      38.749 -12.593  -0.735  1.00  0.00     0.001 A 
HETATM   25  C   UNL     1      37.555 -12.771  -0.038  1.00  0.00     0.000 A 
HETATM   26  C   UNL     1      37.458 -13.764   0.936  1.00  0.00     0.001 A 
HETATM   27  C   UNL     1      38.555 -14.588   1.204  1.00  0.00     0.014 A 
ENDBRANCH   1  22
TORSDOF 3
ENDMDL
MODEL 10
REMARK VINA RESULT:      -7.1      3.072      4.958
REMARK  3 active torsions:
REMARK  status: ('A' for Active; 'I' for Inactive)
REMARK    1  A    between atoms: C_4  and  C_5 
REMARK    2  A    between atoms: C_11  and  C_12 
REMARK    3  A    between atoms: C_21  and  N_22 
ROOT
HETATM    1  C   UNL     1      41.623 -16.437   2.465  1.00  0.00     0.098 A 
HETATM    2  N   UNL     1      41.381 -17.639   1.901  1.00  0.00    -0.172 NA
HETATM    3  N   UNL     1      41.127 -17.367   0.607  1.00  0.00    -0.256 N 
HETATM    4  H   UNL     1      40.974 -18.135  -0.034  1.00  0.00     0.191 HD
HETATM    5  C   UNL     1      41.172 -16.041   0.335  1.00  0.00     0.175 A 
HETATM    6  C   UNL     1      41.406 -15.394   1.519  1.00  0.00     0.036 A 
HETATM    7  C   UNL     1      41.458 -13.897   1.548  1.00  0.00     0.077 C 
HETATM    8  C   UNL     1      41.799 -13.420   0.108  1.00  0.00     0.076 C 
HETATM    9  C   UNL     1      42.424 -12.148  -0.041  1.00  0.00     0.100 C 
HETATM   10  N   UNL     1      42.915 -11.104  -0.159  1.00  0.00    -0.192 NA
HETATM   11  C   UNL     1      41.572 -14.196  -0.991  1.00  0.00     0.140 C 
HETATM   12  O   UNL     1      41.085 -15.511  -0.879  1.00  0.00    -0.279 OA
ENDROOT
BRANCH   7  13
HETATM   13  C   UNL     1      40.107 -13.223   2.001  1.00  0.00     0.003 C 
HETATM   14  C   UNL     1      39.298 -13.970   3.091  1.00  0.00     0.032 C 
HETATM   15  C   UNL     1      39.817 -13.759   4.481  1.00  0.00    -0.030 C 
HETATM   16  C   UNL     1      40.635 -12.749   4.810  1.00  0.00    -0.031 C 
HETATM   17  C   UNL     1      41.078 -11.705   3.831  1.00  0.00     0.027 C 
HETATM   18  C   UNL     1      40.312 -11.772   2.503  1.00  0.00     0.009 C 
ENDBRANCH   7  13
BRANCH  11  19
HETATM   19  N   UNL     1      41.804 -13.827  -2.297  1.00  0.00    -0.282 NA
HETATM   20  H   UNL     1      41.819 -12.826  -2.475  1.00  0.00     0.126 HD
HETATM   21  H   UNL     1      41.217 -14.341  -2.949  1.00  0.00     0.126 HD
ENDBRANCH  11  19
BRANCH   1  22
HETATM   22  C   UNL     1      42.036 -16.343   3.862  1.00  0.00    -0.005 A 
HETATM   23  C   UNL     1      43.110 -15.527   4.244  1.00  0.00     0.014 A 
HETATM   24  C   UNL     1      43.484 -15.431   5.588  1.00  0.00     0.001 A 
HETATM   25  C   UNL     1      42.796 -16.157   6.558  1.00  0.00     0.000 A 
HETATM   26  C   UNL     1      41.742 -16.990   6.187  1.00  0.00     0.001 A 
HETATM   27  C   UNL     1      41.367 -17.087   4.844  1.00  0.00     0.014 A 
ENDBRANCH   1  22
TORSDOF 3
ENDMDL
