MODEL 1
REMARK VINA RESULT:      -9.7      0.000      0.000
REMARK  7 active torsions:
REMARK  status: ('A' for Active; 'I' for Inactive)
REMARK    1  A    between atoms: C_10  and  C_11 
REMARK    2  A    between atoms: C_11  and  C_12 
REMARK       I    between atoms: C_12  and  N_13 
REMARK    3  A    between atoms: N_13  and  N_14 
REMARK       I    between atoms: N_14  and  C_15 
REMARK    4  A    between atoms: C_15  and  C_16 
REMARK    5  A    between atoms: C_16  and  C_17 
REMARK    6  A    between atoms: C_17  and  C_18 
REMARK       I    between atoms: C_18  and  N_19 
REMARK    7  A    between atoms: N_19  and  C_20 
ROOT
HETATM    1  C   UNL     1      43.078 -10.739  11.392  1.00  0.00     0.034 A 
HETATM    2  C   UNL     1      43.777  -9.843  12.202  1.00  0.00     0.031 A 
HETATM    3  C   UNL     1      43.316  -9.537  13.489  1.00  0.00     0.025 A 
HETATM    4  C   UNL     1      42.150 -10.130  13.979  1.00  0.00     0.044 A 
HETATM    5  C   UNL     1      41.680  -9.819  15.297  1.00  0.00     0.099 C 
HETATM    6  N   UNL     1      41.295  -9.571  16.363  1.00  0.00    -0.191 NA
HETATM    7  C   UNL     1      41.445 -11.027  13.173  1.00  0.00     0.025 A 
HETATM    8  C   UNL     1      41.905 -11.326  11.886  1.00  0.00     0.031 A 
ENDROOT
BRANCH   1   9
HETATM    9  N   UNL     1      43.471 -11.094  10.087  1.00  0.00    -0.327 N 
HETATM   10  C   UNL     1      44.373 -12.072   9.716  1.00  0.00     0.222 C 
HETATM   11  O   UNL     1      44.977 -12.834  10.464  1.00  0.00    -0.273 OA
HETATM   12  H   UNL     1      43.010 -10.588   9.327  1.00  0.00     0.169 HD
BRANCH  10  13
HETATM   13  C   UNL     1      44.564 -12.166   8.213  1.00  0.00     0.112 C 
BRANCH  13  14
HETATM   14  C   UNL     1      45.268 -13.457   7.813  1.00  0.00     0.114 C 
BRANCH  14  15
HETATM   15  C   UNL     1      44.340 -14.401   7.077  1.00  0.00     0.236 C 
HETATM   16  N   UNL     1      43.182 -13.799   6.644  1.00  0.00    -0.268 N 
HETATM   17  H   UNL     1      42.928 -12.835   6.865  1.00  0.00     0.190 HD
HETATM   18  O   UNL     1      44.615 -15.579   6.855  1.00  0.00    -0.272 OA
BRANCH  16  19
HETATM   19  N   UNL     1      42.159 -14.597   6.121  1.00  0.00    -0.267 N 
HETATM   20  C   UNL     1      41.443 -14.098   5.049  1.00  0.00     0.240 C 
HETATM   21  O   UNL     1      41.644 -12.969   4.599  1.00  0.00    -0.272 OA
HETATM   22  H   UNL     1      42.165 -15.587   6.364  1.00  0.00     0.190 HD
BRANCH  20  23
HETATM   23  C   UNL     1      40.366 -15.021   4.535  1.00  0.00     0.146 C 
BRANCH  23  24
HETATM   24  C   UNL     1      40.732 -15.920   3.390  1.00  0.00    -0.015 A 
HETATM   25  C   UNL     1      41.712 -16.972   3.301  1.00  0.00    -0.000 A 
HETATM   26  C   UNL     1      42.676 -17.530   4.174  1.00  0.00     0.021 A 
HETATM   27  C   UNL     1      41.617 -17.520   2.021  1.00  0.00     0.043 A 
HETATM   28  C   UNL     1      43.491 -18.599   3.757  1.00  0.00    -0.061 A 
HETATM   29  C   UNL     1      44.478 -19.208   4.709  1.00  0.00     0.048 C 
HETATM   30  C   UNL     1      43.339 -19.124   2.473  1.00  0.00     0.009 A 
HETATM   31  C   UNL     1      42.409 -18.587   1.580  1.00  0.00     0.031 A 
HETATM   32  N   UNL     1      40.649 -16.822   1.346  1.00  0.00    -0.359 N 
HETATM   33  H   UNL     1      40.383 -17.003   0.388  1.00  0.00     0.166 HD
HETATM   34  C   UNL     1      40.101 -15.861   2.151  1.00  0.00     0.013 A 
HETATM   35  C   UNL     1      39.018 -14.968   1.658  1.00  0.00     0.068 C 
ENDBRANCH  23  24
ENDBRANCH  20  23
ENDBRANCH  16  19
ENDBRANCH  14  15
ENDBRANCH  13  14
ENDBRANCH  10  13
ENDBRANCH   1   9
TORSDOF 7
ENDMDL
MODEL 2
REMARK VINA RESULT:      -9.7      1.685      3.433
REMARK  7 active torsions:
REMARK  status: ('A' for Active; 'I' for Inactive)
REMARK    1  A    between atoms: C_10  and  C_11 
REMARK    2  A    between atoms: C_11  and  C_12 
REMARK       I    between atoms: C_12  and  N_13 
REMARK    3  A    between atoms: N_13  and  N_14 
REMARK       I    between atoms: N_14  and  C_15 
REMARK    4  A    between atoms: C_15  and  C_16 
REMARK    5  A    between atoms: C_16  and  C_17 
REMARK    6  A    between atoms: C_17  and  C_18 
REMARK       I    between atoms: C_18  and  N_19 
REMARK    7  A    between atoms: N_19  and  C_20 
ROOT
HETATM    1  C   UNL     1      42.869 -10.955  11.342  1.00  0.00     0.034 A 
HETATM    2  C   UNL     1      41.743 -11.398  12.037  1.00  0.00     0.031 A 
HETATM    3  C   UNL     1      41.487 -10.948  13.339  1.00  0.00     0.025 A 
HETATM    4  C   UNL     1      42.357 -10.046  13.956  1.00  0.00     0.044 A 
HETATM    5  C   UNL     1      42.094  -9.583  15.287  1.00  0.00     0.099 C 
HETATM    6  N   UNL     1      41.885  -9.205  16.364  1.00  0.00    -0.191 NA
HETATM    7  C   UNL     1      43.487  -9.599  13.266  1.00  0.00     0.025 A 
HETATM    8  C   UNL     1      43.742 -10.055  11.968  1.00  0.00     0.031 A 
ENDROOT
BRANCH   1   9
HETATM    9  N   UNL     1      43.200 -11.365  10.035  1.00  0.00    -0.327 N 
HETATM   10  C   UNL     1      44.312 -12.078   9.633  1.00  0.00     0.222 C 
HETATM   11  O   UNL     1      45.205 -12.512  10.354  1.00  0.00    -0.273 OA
HETATM   12  H   UNL     1      42.521 -11.133   9.307  1.00  0.00     0.169 HD
BRANCH  10  13
HETATM   13  C   UNL     1      44.349 -12.329   8.137  1.00  0.00     0.112 C 
BRANCH  13  14
HETATM   14  C   UNL     1      45.124 -13.596   7.795  1.00  0.00     0.114 C 
BRANCH  14  15
HETATM   15  C   UNL     1      44.309 -14.543   6.940  1.00  0.00     0.236 C 
HETATM   16  N   UNL     1      43.937 -15.691   7.600  1.00  0.00    -0.268 N 
HETATM   17  H   UNL     1      44.246 -15.927   8.544  1.00  0.00     0.190 HD
HETATM   18  O   UNL     1      43.978 -14.291   5.782  1.00  0.00    -0.272 OA
BRANCH  16  19
HETATM   19  N   UNL     1      43.348 -16.730   6.872  1.00  0.00    -0.267 N 
HETATM   20  C   UNL     1      44.072 -17.899   6.724  1.00  0.00     0.240 C 
HETATM   21  O   UNL     1      45.219 -18.014   7.157  1.00  0.00    -0.272 OA
HETATM   22  H   UNL     1      42.340 -16.687   6.723  1.00  0.00     0.190 HD
BRANCH  20  23
HETATM   23  C   UNL     1      43.365 -18.975   5.938  1.00  0.00     0.146 C 
BRANCH  23  24
HETATM   24  C   UNL     1      43.640 -19.030   4.463  1.00  0.00    -0.015 A 
HETATM   25  C   UNL     1      43.252 -18.135   3.404  1.00  0.00    -0.000 A 
HETATM   26  C   UNL     1      42.490 -16.946   3.316  1.00  0.00     0.021 A 
HETATM   27  C   UNL     1      43.803 -18.629   2.221  1.00  0.00     0.043 A 
HETATM   28  C   UNL     1      42.313 -16.295   2.080  1.00  0.00    -0.061 A 
HETATM   29  C   UNL     1      41.540 -15.011   2.011  1.00  0.00     0.048 C 
HETATM   30  C   UNL     1      42.907 -16.820   0.932  1.00  0.00     0.009 A 
HETATM   31  C   UNL     1      43.651 -18.000   0.979  1.00  0.00     0.031 A 
HETATM   32  N   UNL     1      44.473 -19.785   2.531  1.00  0.00    -0.359 N 
HETATM   33  H   UNL     1      44.957 -20.359   1.854  1.00  0.00     0.166 HD
HETATM   34  C   UNL     1      44.392 -20.041   3.872  1.00  0.00     0.013 A 
HETATM   35  C   UNL     1      45.044 -21.238   4.469  1.00  0.00     0.068 C 
ENDBRANCH  23  24
ENDBRANCH  20  23
ENDBRANCH  16  19
ENDBRANCH  14  15
ENDBRANCH  13  14
ENDBRANCH  10  13
ENDBRANCH   1   9
TORSDOF 7
ENDMDL
MODEL 3
REMARK VINA RESULT:      -9.5      1.290      2.098
REMARK  7 active torsions:
REMARK  status: ('A' for Active; 'I' for Inactive)
REMARK    1  A    between atoms: C_10  and  C_11 
REMARK    2  A    between atoms: C_11  and  C_12 
REMARK       I    between atoms: C_12  and  N_13 
REMARK    3  A    between atoms: N_13  and  N_14 
REMARK       I    between atoms: N_14  and  C_15 
REMARK    4  A    between atoms: C_15  and  C_16 
REMARK    5  A    between atoms: C_16  and  C_17 
REMARK    6  A    between atoms: C_17  and  C_18 
REMARK       I    between atoms: C_18  and  N_19 
REMARK    7  A    between atoms: N_19  and  C_20 
ROOT
HETATM    1  C   UNL     1      43.404 -10.626  11.613  1.00  0.00     0.034 A 
HETATM    2  C   UNL     1      42.224 -11.273  11.984  1.00  0.00     0.031 A 
HETATM    3  C   UNL     1      41.615 -10.993  13.214  1.00  0.00     0.025 A 
HETATM    4  C   UNL     1      42.182 -10.058  14.084  1.00  0.00     0.044 A 
HETATM    5  C   UNL     1      41.557  -9.769  15.341  1.00  0.00     0.099 C 
HETATM    6  N   UNL     1      41.055  -9.531  16.360  1.00  0.00    -0.191 NA
HETATM    7  C   UNL     1      43.363  -9.408  13.719  1.00  0.00     0.025 A 
HETATM    8  C   UNL     1      43.972  -9.695  12.492  1.00  0.00     0.031 A 
ENDROOT
BRANCH   1   9
HETATM    9  N   UNL     1      44.081 -10.857  10.399  1.00  0.00    -0.327 N 
HETATM   10  C   UNL     1      45.013 -11.839  10.128  1.00  0.00     0.222 C 
HETATM   11  O   UNL     1      45.399 -12.715  10.896  1.00  0.00    -0.273 OA
HETATM   12  H   UNL     1      43.827 -10.244   9.621  1.00  0.00     0.169 HD
BRANCH  10  13
HETATM   13  C   UNL     1      45.547 -11.778   8.709  1.00  0.00     0.112 C 
BRANCH  13  14
HETATM   14  C   UNL     1      45.733 -13.169   8.114  1.00  0.00     0.114 C 
BRANCH  14  15
HETATM   15  C   UNL     1      44.527 -13.602   7.307  1.00  0.00     0.236 C 
HETATM   16  N   UNL     1      43.959 -14.771   7.759  1.00  0.00    -0.268 N 
HETATM   17  H   UNL     1      44.355 -15.339   8.509  1.00  0.00     0.190 HD
HETATM   18  O   UNL     1      44.077 -12.951   6.365  1.00  0.00    -0.272 OA
BRANCH  16  19
HETATM   19  N   UNL     1      42.962 -15.380   6.991  1.00  0.00    -0.267 N 
HETATM   20  C   UNL     1      42.736 -16.729   7.190  1.00  0.00     0.240 C 
HETATM   21  O   UNL     1      43.421 -17.398   7.965  1.00  0.00    -0.272 OA
HETATM   22  H   UNL     1      42.283 -14.772   6.534  1.00  0.00     0.190 HD
BRANCH  20  23
HETATM   23  C   UNL     1      41.637 -17.311   6.334  1.00  0.00     0.146 C 
BRANCH  23  24
HETATM   24  C   UNL     1      41.769 -17.136   4.849  1.00  0.00    -0.015 A 
HETATM   25  C   UNL     1      42.494 -17.912   3.875  1.00  0.00    -0.000 A 
HETATM   26  C   UNL     1      43.335 -19.049   3.914  1.00  0.00     0.021 A 
HETATM   27  C   UNL     1      42.250 -17.340   2.625  1.00  0.00     0.043 A 
HETATM   28  C   UNL     1      43.886 -19.576   2.731  1.00  0.00    -0.061 A 
HETATM   29  C   UNL     1      44.740 -20.809   2.783  1.00  0.00     0.048 C 
HETATM   30  C   UNL     1      43.591 -18.979   1.505  1.00  0.00     0.009 A 
HETATM   31  C   UNL     1      42.778 -17.846   1.432  1.00  0.00     0.031 A 
HETATM   32  N   UNL     1      41.440 -16.251   2.823  1.00  0.00    -0.359 N 
HETATM   33  H   UNL     1      41.116 -15.643   2.083  1.00  0.00     0.166 HD
HETATM   34  C   UNL     1      41.135 -16.114   4.149  1.00  0.00     0.013 A 
HETATM   35  C   UNL     1      40.261 -15.009   4.630  1.00  0.00     0.068 C 
ENDBRANCH  23  24
ENDBRANCH  20  23
ENDBRANCH  16  19
ENDBRANCH  14  15
ENDBRANCH  13  14
ENDBRANCH  10  13
ENDBRANCH   1   9
TORSDOF 7
ENDMDL
MODEL 4
REMARK VINA RESULT:      -9.3      4.838      7.430
REMARK  7 active torsions:
REMARK  status: ('A' for Active; 'I' for Inactive)
REMARK    1  A    between atoms: C_10  and  C_11 
REMARK    2  A    between atoms: C_11  and  C_12 
REMARK       I    between atoms: C_12  and  N_13 
REMARK    3  A    between atoms: N_13  and  N_14 
REMARK       I    between atoms: N_14  and  C_15 
REMARK    4  A    between atoms: C_15  and  C_16 
REMARK    5  A    between atoms: C_16  and  C_17 
REMARK    6  A    between atoms: C_17  and  C_18 
REMARK       I    between atoms: C_18  and  N_19 
REMARK    7  A    between atoms: N_19  and  C_20 
ROOT
HETATM    1  C   UNL     1      42.054 -13.339   3.232  1.00  0.00     0.034 A 
HETATM    2  C   UNL     1      41.622 -12.694   4.392  1.00  0.00     0.031 A 
HETATM    3  C   UNL     1      42.328 -12.842   5.593  1.00  0.00     0.025 A 
HETATM    4  C   UNL     1      43.477 -13.634   5.642  1.00  0.00     0.044 A 
HETATM    5  C   UNL     1      44.201 -13.782   6.870  1.00  0.00     0.099 C 
HETATM    6  N   UNL     1      44.791 -13.905   7.862  1.00  0.00    -0.191 NA
HETATM    7  C   UNL     1      43.914 -14.282   4.484  1.00  0.00     0.025 A 
HETATM    8  C   UNL     1      43.203 -14.137   3.288  1.00  0.00     0.031 A 
ENDROOT
BRANCH   1   9
HETATM    9  N   UNL     1      41.397 -13.247   1.989  1.00  0.00    -0.327 N 
HETATM   10  C   UNL     1      41.773 -12.496   0.892  1.00  0.00     0.222 C 
HETATM   11  O   UNL     1      42.772 -11.791   0.793  1.00  0.00    -0.273 OA
HETATM   12  H   UNL     1      40.564 -13.828   1.878  1.00  0.00     0.169 HD
BRANCH  10  13
HETATM   13  C   UNL     1      40.814 -12.629  -0.277  1.00  0.00     0.112 C 
BRANCH  13  14
HETATM   14  C   UNL     1      41.008 -13.945  -1.020  1.00  0.00     0.114 C 
BRANCH  14  15
HETATM   15  C   UNL     1      40.866 -15.139  -0.100  1.00  0.00     0.236 C 
HETATM   16  N   UNL     1      41.984 -15.941  -0.070  1.00  0.00    -0.268 N 
HETATM   17  H   UNL     1      42.798 -15.799  -0.670  1.00  0.00     0.190 HD
HETATM   18  O   UNL     1      39.865 -15.347   0.585  1.00  0.00    -0.272 OA
BRANCH  16  19
HETATM   19  N   UNL     1      41.916 -17.173   0.588  1.00  0.00    -0.267 N 
HETATM   20  C   UNL     1      43.055 -17.618   1.232  1.00  0.00     0.240 C 
HETATM   21  O   UNL     1      44.117 -16.995   1.185  1.00  0.00    -0.272 OA
HETATM   22  H   UNL     1      40.989 -17.546   0.792  1.00  0.00     0.190 HD
BRANCH  20  23
HETATM   23  C   UNL     1      42.899 -18.948   1.928  1.00  0.00     0.146 C 
BRANCH  23  24
HETATM   24  C   UNL     1      43.290 -19.006   3.376  1.00  0.00    -0.015 A 
HETATM   25  C   UNL     1      42.780 -18.285   4.515  1.00  0.00    -0.000 A 
HETATM   26  C   UNL     1      41.800 -17.286   4.720  1.00  0.00     0.021 A 
HETATM   27  C   UNL     1      43.468 -18.747   5.639  1.00  0.00     0.043 A 
HETATM   28  C   UNL     1      41.533 -16.795   6.012  1.00  0.00    -0.061 A 
HETATM   29  C   UNL     1      40.459 -15.768   6.219  1.00  0.00     0.048 C 
HETATM   30  C   UNL     1      42.233 -17.308   7.104  1.00  0.00     0.009 A 
HETATM   31  C   UNL     1      43.219 -18.283   6.936  1.00  0.00     0.031 A 
HETATM   32  N   UNL     1      44.374 -19.682   5.211  1.00  0.00    -0.359 N 
HETATM   33  H   UNL     1      45.015 -20.171   5.821  1.00  0.00     0.166 HD
HETATM   34  C   UNL     1      44.281 -19.857   3.857  1.00  0.00     0.013 A 
HETATM   35  C   UNL     1      45.154 -20.827   3.143  1.00  0.00     0.068 C 
ENDBRANCH  23  24
ENDBRANCH  20  23
ENDBRANCH  16  19
ENDBRANCH  14  15
ENDBRANCH  13  14
ENDBRANCH  10  13
ENDBRANCH   1   9
TORSDOF 7
ENDMDL
MODEL 5
REMARK VINA RESULT:      -9.3      1.445      2.330
REMARK  7 active torsions:
REMARK  status: ('A' for Active; 'I' for Inactive)
REMARK    1  A    between atoms: C_10  and  C_11 
REMARK    2  A    between atoms: C_11  and  C_12 
REMARK       I    between atoms: C_12  and  N_13 
REMARK    3  A    between atoms: N_13  and  N_14 
REMARK       I    between atoms: N_14  and  C_15 
REMARK    4  A    between atoms: C_15  and  C_16 
REMARK    5  A    between atoms: C_16  and  C_17 
REMARK    6  A    between atoms: C_17  and  C_18 
REMARK       I    between atoms: C_18  and  N_19 
REMARK    7  A    between atoms: N_19  and  C_20 
ROOT
HETATM    1  C   UNL     1      43.202 -11.079  11.425  1.00  0.00     0.034 A 
HETATM    2  C   UNL     1      41.962 -11.505  11.903  1.00  0.00     0.031 A 
HETATM    3  C   UNL     1      41.457 -11.011  13.113  1.00  0.00     0.025 A 
HETATM    4  C   UNL     1      42.190 -10.081  13.855  1.00  0.00     0.044 A 
HETATM    5  C   UNL     1      41.672  -9.573  15.090  1.00  0.00     0.099 C 
HETATM    6  N   UNL     1      41.257  -9.158  16.092  1.00  0.00    -0.191 NA
HETATM    7  C   UNL     1      43.432  -9.651  13.382  1.00  0.00     0.025 A 
HETATM    8  C   UNL     1      43.936 -10.151  12.176  1.00  0.00     0.031 A 
ENDROOT
BRANCH   1   9
HETATM    9  N   UNL     1      43.782 -11.533  10.224  1.00  0.00    -0.327 N 
HETATM   10  C   UNL     1      44.896 -12.335  10.077  1.00  0.00     0.222 C 
HETATM   11  O   UNL     1      45.570 -12.826  10.977  1.00  0.00    -0.273 OA
HETATM   12  H   UNL     1      43.301 -11.260   9.364  1.00  0.00     0.169 HD
BRANCH  10  13
HETATM   13  C   UNL     1      45.244 -12.611   8.626  1.00  0.00     0.112 C 
BRANCH  13  14
HETATM   14  C   UNL     1      44.019 -12.516   7.723  1.00  0.00     0.114 C 
BRANCH  14  15
HETATM   15  C   UNL     1      43.723 -13.832   7.035  1.00  0.00     0.236 C 
HETATM   16  N   UNL     1      42.529 -13.834   6.351  1.00  0.00    -0.268 N 
HETATM   17  H   UNL     1      41.865 -13.059   6.371  1.00  0.00     0.190 HD
HETATM   18  O   UNL     1      44.494 -14.791   7.053  1.00  0.00    -0.272 OA
BRANCH  16  19
HETATM   19  N   UNL     1      42.047 -15.040   5.834  1.00  0.00    -0.267 N 
HETATM   20  C   UNL     1      42.195 -15.259   4.477  1.00  0.00     0.240 C 
HETATM   21  O   UNL     1      42.674 -14.407   3.727  1.00  0.00    -0.272 OA
HETATM   22  H   UNL     1      41.863 -15.795   6.495  1.00  0.00     0.190 HD
BRANCH  20  23
HETATM   23  C   UNL     1      41.661 -16.586   3.997  1.00  0.00     0.146 C 
BRANCH  23  24
HETATM   24  C   UNL     1      42.673 -17.623   3.604  1.00  0.00    -0.015 A 
HETATM   25  C   UNL     1      43.270 -18.687   4.370  1.00  0.00    -0.000 A 
HETATM   26  C   UNL     1      43.180 -19.143   5.706  1.00  0.00     0.021 A 
HETATM   27  C   UNL     1      44.122 -19.387   3.513  1.00  0.00     0.043 A 
HETATM   28  C   UNL     1      43.917 -20.263   6.136  1.00  0.00    -0.061 A 
HETATM   29  C   UNL     1      43.776 -20.760   7.545  1.00  0.00     0.048 C 
HETATM   30  C   UNL     1      44.735 -20.940   5.231  1.00  0.00     0.009 A 
HETATM   31  C   UNL     1      44.861 -20.508   3.909  1.00  0.00     0.031 A 
HETATM   32  N   UNL     1      44.073 -18.768   2.290  1.00  0.00    -0.359 N 
HETATM   33  H   UNL     1      44.606 -19.063   1.484  1.00  0.00     0.166 HD
HETATM   34  C   UNL     1      43.205 -17.711   2.321  1.00  0.00     0.013 A 
HETATM   35  C   UNL     1      42.966 -16.874   1.114  1.00  0.00     0.068 C 
ENDBRANCH  23  24
ENDBRANCH  20  23
ENDBRANCH  16  19
ENDBRANCH  14  15
ENDBRANCH  13  14
ENDBRANCH  10  13
ENDBRANCH   1   9
TORSDOF 7
ENDMDL
MODEL 6
REMARK VINA RESULT:      -9.1      2.063      2.776
REMARK  7 active torsions:
REMARK  status: ('A' for Active; 'I' for Inactive)
REMARK    1  A    between atoms: C_10  and  C_11 
REMARK    2  A    between atoms: C_11  and  C_12 
REMARK       I    between atoms: C_12  and  N_13 
REMARK    3  A    between atoms: N_13  and  N_14 
REMARK       I    between atoms: N_14  and  C_15 
REMARK    4  A    between atoms: C_15  and  C_16 
REMARK    5  A    between atoms: C_16  and  C_17 
REMARK    6  A    between atoms: C_17  and  C_18 
REMARK       I    between atoms: C_18  and  N_19 
REMARK    7  A    between atoms: N_19  and  C_20 
ROOT
HETATM    1  C   UNL     1      41.788 -10.746  10.837  1.00  0.00     0.034 A 
HETATM    2  C   UNL     1      40.625 -10.594  11.594  1.00  0.00     0.031 A 
HETATM    3  C   UNL     1      40.698 -10.303  12.962  1.00  0.00     0.025 A 
HETATM    4  C   UNL     1      41.940 -10.158  13.586  1.00  0.00     0.044 A 
HETATM    5  C   UNL     1      42.014  -9.857  14.985  1.00  0.00     0.099 C 
HETATM    6  N   UNL     1      42.080  -9.614  16.118  1.00  0.00    -0.191 NA
HETATM    7  C   UNL     1      43.108 -10.309  12.834  1.00  0.00     0.025 A 
HETATM    8  C   UNL     1      43.031 -10.605  11.469  1.00  0.00     0.031 A 
ENDROOT
BRANCH   1   9
HETATM    9  N   UNL     1      41.800 -11.045   9.460  1.00  0.00    -0.327 N 
HETATM   10  C   UNL     1      41.555 -10.182   8.410  1.00  0.00     0.222 C 
HETATM   11  O   UNL     1      41.311  -8.982   8.488  1.00  0.00    -0.273 OA
HETATM   12  H   UNL     1      42.048 -12.004   9.212  1.00  0.00     0.169 HD
BRANCH  10  13
HETATM   13  C   UNL     1      41.639 -10.857   7.053  1.00  0.00     0.112 C 
BRANCH  13  14
HETATM   14  C   UNL     1      40.306 -10.809   6.315  1.00  0.00     0.114 C 
BRANCH  14  15
HETATM   15  C   UNL     1      39.859 -12.186   5.870  1.00  0.00     0.236 C 
HETATM   16  N   UNL     1      40.306 -13.197   6.688  1.00  0.00    -0.268 N 
HETATM   17  H   UNL     1      40.945 -13.050   7.471  1.00  0.00     0.190 HD
HETATM   18  O   UNL     1      39.133 -12.376   4.894  1.00  0.00    -0.272 OA
BRANCH  16  19
HETATM   19  N   UNL     1      40.126 -14.524   6.286  1.00  0.00    -0.267 N 
HETATM   20  C   UNL     1      41.252 -15.241   5.924  1.00  0.00     0.240 C 
HETATM   21  O   UNL     1      42.370 -14.726   5.891  1.00  0.00    -0.272 OA
HETATM   22  H   UNL     1      39.244 -14.974   6.530  1.00  0.00     0.190 HD
BRANCH  20  23
HETATM   23  C   UNL     1      40.978 -16.667   5.515  1.00  0.00     0.146 C 
BRANCH  23  24
HETATM   24  C   UNL     1      41.515 -17.106   4.183  1.00  0.00    -0.015 A 
HETATM   25  C   UNL     1      42.523 -18.081   3.855  1.00  0.00    -0.000 A 
HETATM   26  C   UNL     1      43.375 -18.939   4.591  1.00  0.00     0.021 A 
HETATM   27  C   UNL     1      42.614 -18.131   2.463  1.00  0.00     0.043 A 
HETATM   28  C   UNL     1      44.264 -19.808   3.931  1.00  0.00    -0.061 A 
HETATM   29  C   UNL     1      45.129 -20.743   4.724  1.00  0.00     0.048 C 
HETATM   30  C   UNL     1      44.297 -19.835   2.536  1.00  0.00     0.009 A 
HETATM   31  C   UNL     1      43.483 -18.990   1.779  1.00  0.00     0.031 A 
HETATM   32  N   UNL     1      41.727 -17.214   1.961  1.00  0.00    -0.359 N 
HETATM   33  H   UNL     1      41.596 -17.033   0.974  1.00  0.00     0.166 HD
HETATM   34  C   UNL     1      41.053 -16.591   2.975  1.00  0.00     0.013 A 
HETATM   35  C   UNL     1      40.026 -15.553   2.695  1.00  0.00     0.068 C 
ENDBRANCH  23  24
ENDBRANCH  20  23
ENDBRANCH  16  19
ENDBRANCH  14  15
ENDBRANCH  13  14
ENDBRANCH  10  13
ENDBRANCH   1   9
TORSDOF 7
ENDMDL
MODEL 7
REMARK VINA RESULT:      -8.8      2.304      3.601
REMARK  7 active torsions:
REMARK  status: ('A' for Active; 'I' for Inactive)
REMARK    1  A    between atoms: C_10  and  C_11 
REMARK    2  A    between atoms: C_11  and  C_12 
REMARK       I    between atoms: C_12  and  N_13 
REMARK    3  A    between atoms: N_13  and  N_14 
REMARK       I    between atoms: N_14  and  C_15 
REMARK    4  A    between atoms: C_15  and  C_16 
REMARK    5  A    between atoms: C_16  and  C_17 
REMARK    6  A    between atoms: C_17  and  C_18 
REMARK       I    between atoms: C_18  and  N_19 
REMARK    7  A    between atoms: N_19  and  C_20 
ROOT
HETATM    1  C   UNL     1      41.218 -10.629  10.355  1.00  0.00     0.034 A 
HETATM    2  C   UNL     1      40.584 -11.399  11.331  1.00  0.00     0.031 A 
HETATM    3  C   UNL     1      40.783 -11.128  12.691  1.00  0.00     0.025 A 
HETATM    4  C   UNL     1      41.619 -10.081  13.087  1.00  0.00     0.044 A 
HETATM    5  C   UNL     1      41.820  -9.802  14.478  1.00  0.00     0.099 C 
HETATM    6  N   UNL     1      41.987  -9.573  15.603  1.00  0.00    -0.191 NA
HETATM    7  C   UNL     1      42.257  -9.307  12.114  1.00  0.00     0.025 A 
HETATM    8  C   UNL     1      42.059  -9.583  10.756  1.00  0.00     0.031 A 
ENDROOT
BRANCH   1   9
HETATM    9  N   UNL     1      41.075 -10.840   8.969  1.00  0.00    -0.327 N 
HETATM   10  C   UNL     1      42.077 -11.041   8.040  1.00  0.00     0.222 C 
HETATM   11  O   UNL     1      43.282 -11.102   8.264  1.00  0.00    -0.273 OA
HETATM   12  H   UNL     1      40.116 -10.880   8.619  1.00  0.00     0.169 HD
BRANCH  10  13
HETATM   13  C   UNL     1      41.552 -11.220   6.628  1.00  0.00     0.112 C 
BRANCH  13  14
HETATM   14  C   UNL     1      40.089 -11.648   6.618  1.00  0.00     0.114 C 
BRANCH  14  15
HETATM   15  C   UNL     1      39.888 -12.953   5.876  1.00  0.00     0.236 C 
HETATM   16  N   UNL     1      39.865 -14.052   6.702  1.00  0.00    -0.268 N 
HETATM   17  H   UNL     1      40.048 -14.010   7.706  1.00  0.00     0.190 HD
HETATM   18  O   UNL     1      39.721 -13.017   4.659  1.00  0.00    -0.272 OA
BRANCH  16  19
HETATM   19  N   UNL     1      39.878 -15.329   6.131  1.00  0.00    -0.267 N 
HETATM   20  C   UNL     1      41.057 -16.048   6.199  1.00  0.00     0.240 C 
HETATM   21  O   UNL     1      42.084 -15.572   6.683  1.00  0.00    -0.272 OA
HETATM   22  H   UNL     1      38.977 -15.768   5.942  1.00  0.00     0.190 HD
BRANCH  20  23
HETATM   23  C   UNL     1      40.988 -17.419   5.572  1.00  0.00     0.146 C 
BRANCH  23  24
HETATM   24  C   UNL     1      42.141 -17.827   4.702  1.00  0.00    -0.015 A 
HETATM   25  C   UNL     1      42.382 -17.604   3.300  1.00  0.00    -0.000 A 
HETATM   26  C   UNL     1      41.677 -16.984   2.241  1.00  0.00     0.021 A 
HETATM   27  C   UNL     1      43.628 -18.158   3.000  1.00  0.00     0.043 A 
HETATM   28  C   UNL     1      42.227 -16.929   0.946  1.00  0.00    -0.061 A 
HETATM   29  C   UNL     1      41.487 -16.229  -0.156  1.00  0.00     0.048 C 
HETATM   30  C   UNL     1      43.487 -17.478   0.707  1.00  0.00     0.009 A 
HETATM   31  C   UNL     1      44.203 -18.111   1.724  1.00  0.00     0.031 A 
HETATM   32  N   UNL     1      44.116 -18.718   4.152  1.00  0.00    -0.359 N 
HETATM   33  H   UNL     1      45.002 -19.201   4.217  1.00  0.00     0.166 HD
HETATM   34  C   UNL     1      43.243 -18.526   5.187  1.00  0.00     0.013 A 
HETATM   35  C   UNL     1      43.542 -19.034   6.553  1.00  0.00     0.068 C 
ENDBRANCH  23  24
ENDBRANCH  20  23
ENDBRANCH  16  19
ENDBRANCH  14  15
ENDBRANCH  13  14
ENDBRANCH  10  13
ENDBRANCH   1   9
TORSDOF 7
ENDMDL
MODEL 8
REMARK VINA RESULT:      -8.8      4.871      7.374
REMARK  7 active torsions:
REMARK  status: ('A' for Active; 'I' for Inactive)
REMARK    1  A    between atoms: C_10  and  C_11 
REMARK    2  A    between atoms: C_11  and  C_12 
REMARK       I    between atoms: C_12  and  N_13 
REMARK    3  A    between atoms: N_13  and  N_14 
REMARK       I    between atoms: N_14  and  C_15 
REMARK    4  A    between atoms: C_15  and  C_16 
REMARK    5  A    between atoms: C_16  and  C_17 
REMARK    6  A    between atoms: C_17  and  C_18 
REMARK       I    between atoms: C_18  and  N_19 
REMARK    7  A    between atoms: N_19  and  C_20 
ROOT
HETATM    1  C   UNL     1      39.449 -12.177   3.084  1.00  0.00     0.034 A 
HETATM    2  C   UNL     1      38.760 -11.489   4.084  1.00  0.00     0.031 A 
HETATM    3  C   UNL     1      39.432 -11.023   5.221  1.00  0.00     0.025 A 
HETATM    4  C   UNL     1      40.805 -11.240   5.366  1.00  0.00     0.044 A 
HETATM    5  C   UNL     1      41.493 -10.760   6.528  1.00  0.00     0.099 C 
HETATM    6  N   UNL     1      42.056 -10.374   7.467  1.00  0.00    -0.191 NA
HETATM    7  C   UNL     1      41.500 -11.928   4.369  1.00  0.00     0.025 A 
HETATM    8  C   UNL     1      40.824 -12.397   3.237  1.00  0.00     0.031 A 
ENDROOT
BRANCH   1   9
HETATM    9  N   UNL     1      38.845 -12.682   1.916  1.00  0.00    -0.327 N 
HETATM   10  C   UNL     1      38.665 -14.006   1.566  1.00  0.00     0.222 C 
HETATM   11  O   UNL     1      38.976 -14.989   2.232  1.00  0.00    -0.273 OA
HETATM   12  H   UNL     1      38.470 -11.986   1.268  1.00  0.00     0.169 HD
BRANCH  10  13
HETATM   13  C   UNL     1      37.987 -14.180   0.220  1.00  0.00     0.112 C 
BRANCH  13  14
HETATM   14  C   UNL     1      38.838 -13.625  -0.917  1.00  0.00     0.114 C 
BRANCH  14  15
HETATM   15  C   UNL     1      40.297 -14.000  -0.764  1.00  0.00     0.236 C 
HETATM   16  N   UNL     1      40.497 -15.348  -0.576  1.00  0.00    -0.268 N 
HETATM   17  H   UNL     1      39.739 -16.023  -0.465  1.00  0.00     0.190 HD
HETATM   18  O   UNL     1      41.215 -13.184  -0.841  1.00  0.00    -0.272 OA
BRANCH  16  19
HETATM   19  N   UNL     1      41.775 -15.801  -0.231  1.00  0.00    -0.267 N 
HETATM   20  C   UNL     1      41.860 -16.886   0.622  1.00  0.00     0.240 C 
HETATM   21  O   UNL     1      40.860 -17.405   1.119  1.00  0.00    -0.272 OA
HETATM   22  H   UNL     1      42.554 -15.501  -0.817  1.00  0.00     0.190 HD
BRANCH  20  23
HETATM   23  C   UNL     1      43.270 -17.322   0.936  1.00  0.00     0.146 C 
BRANCH  23  24
HETATM   24  C   UNL     1      43.569 -17.673   2.365  1.00  0.00    -0.015 A 
HETATM   25  C   UNL     1      43.937 -18.931   2.963  1.00  0.00    -0.000 A 
HETATM   26  C   UNL     1      44.126 -20.254   2.497  1.00  0.00     0.021 A 
HETATM   27  C   UNL     1      44.141 -18.698   4.324  1.00  0.00     0.043 A 
HETATM   28  C   UNL     1      44.513 -21.279   3.381  1.00  0.00    -0.061 A 
HETATM   29  C   UNL     1      44.752 -22.667   2.863  1.00  0.00     0.048 C 
HETATM   30  C   UNL     1      44.726 -20.986   4.728  1.00  0.00     0.009 A 
HETATM   31  C   UNL     1      44.533 -19.696   5.225  1.00  0.00     0.031 A 
HETATM   32  N   UNL     1      43.885 -17.371   4.557  1.00  0.00    -0.359 N 
HETATM   33  H   UNL     1      43.945 -16.933   5.466  1.00  0.00     0.166 HD
HETATM   34  C   UNL     1      43.546 -16.736   3.394  1.00  0.00     0.013 A 
HETATM   35  C   UNL     1      43.225 -15.284   3.373  1.00  0.00     0.068 C 
ENDBRANCH  23  24
ENDBRANCH  20  23
ENDBRANCH  16  19
ENDBRANCH  14  15
ENDBRANCH  13  14
ENDBRANCH  10  13
ENDBRANCH   1   9
TORSDOF 7
ENDMDL
MODEL 9
REMARK VINA RESULT:      -8.6      6.108     11.424
REMARK  7 active torsions:
REMARK  status: ('A' for Active; 'I' for Inactive)
REMARK    1  A    between atoms: C_10  and  C_11 
REMARK    2  A    between atoms: C_11  and  C_12 
REMARK       I    between atoms: C_12  and  N_13 
REMARK    3  A    between atoms: N_13  and  N_14 
REMARK       I    between atoms: N_14  and  C_15 
REMARK    4  A    between atoms: C_15  and  C_16 
REMARK    5  A    between atoms: C_16  and  C_17 
REMARK    6  A    between atoms: C_17  and  C_18 
REMARK       I    between atoms: C_18  and  N_19 
REMARK    7  A    between atoms: N_19  and  C_20 
ROOT
HETATM    1  C   UNL     1      38.368 -14.056  -2.174  1.00  0.00     0.034 A 
HETATM    2  C   UNL     1      37.755 -12.817  -2.371  1.00  0.00     0.031 A 
HETATM    3  C   UNL     1      36.824 -12.640  -3.404  1.00  0.00     0.025 A 
HETATM    4  C   UNL     1      36.497 -13.704  -4.248  1.00  0.00     0.044 A 
HETATM    5  C   UNL     1      35.542 -13.523  -5.301  1.00  0.00     0.099 C 
HETATM    6  N   UNL     1      34.770 -13.382  -6.156  1.00  0.00    -0.191 NA
HETATM    7  C   UNL     1      37.107 -14.946  -4.055  1.00  0.00     0.025 A 
HETATM    8  C   UNL     1      38.041 -15.118  -3.027  1.00  0.00     0.031 A 
ENDROOT
BRANCH   1   9
HETATM    9  N   UNL     1      39.317 -14.314  -1.165  1.00  0.00    -0.327 N 
HETATM   10  C   UNL     1      39.114 -14.316   0.201  1.00  0.00     0.222 C 
HETATM   11  O   UNL     1      38.052 -14.122   0.784  1.00  0.00    -0.273 OA
HETATM   12  H   UNL     1      40.257 -14.557  -1.485  1.00  0.00     0.169 HD
BRANCH  10  13
HETATM   13  C   UNL     1      40.373 -14.622   0.989  1.00  0.00     0.112 C 
BRANCH  13  14
HETATM   14  C   UNL     1      41.269 -15.617   0.261  1.00  0.00     0.114 C 
BRANCH  14  15
HETATM   15  C   UNL     1      42.401 -16.106   1.140  1.00  0.00     0.236 C 
HETATM   16  N   UNL     1      43.088 -17.170   0.604  1.00  0.00    -0.268 N 
HETATM   17  H   UNL     1      42.816 -17.642  -0.259  1.00  0.00     0.190 HD
HETATM   18  O   UNL     1      42.700 -15.576   2.210  1.00  0.00    -0.272 OA
BRANCH  16  19
HETATM   19  N   UNL     1      44.029 -17.837   1.395  1.00  0.00    -0.267 N 
HETATM   20  C   UNL     1      43.654 -19.044   1.955  1.00  0.00     0.240 C 
HETATM   21  O   UNL     1      42.516 -19.498   1.824  1.00  0.00    -0.272 OA
HETATM   22  H   UNL     1      45.004 -17.553   1.304  1.00  0.00     0.190 HD
BRANCH  20  23
HETATM   23  C   UNL     1      44.726 -19.707   2.784  1.00  0.00     0.146 C 
BRANCH  23  24
HETATM   24  C   UNL     1      44.473 -19.817   4.259  1.00  0.00    -0.015 A 
HETATM   25  C   UNL     1      44.158 -18.805   5.235  1.00  0.00    -0.000 A 
HETATM   26  C   UNL     1      43.999 -17.399   5.214  1.00  0.00     0.021 A 
HETATM   27  C   UNL     1      43.981 -19.450   6.460  1.00  0.00     0.043 A 
HETATM   28  C   UNL     1      43.665 -16.696   6.388  1.00  0.00    -0.061 A 
HETATM   29  C   UNL     1      43.456 -15.211   6.340  1.00  0.00     0.048 C 
HETATM   30  C   UNL     1      43.476 -17.394   7.581  1.00  0.00     0.009 A 
HETATM   31  C   UNL     1      43.641 -18.779   7.641  1.00  0.00     0.031 A 
HETATM   32  N   UNL     1      44.202 -20.788   6.255  1.00  0.00    -0.359 N 
HETATM   33  H   UNL     1      44.151 -21.488   6.982  1.00  0.00     0.166 HD
HETATM   34  C   UNL     1      44.493 -21.031   4.941  1.00  0.00     0.013 A 
HETATM   35  C   UNL     1      44.769 -22.410   4.454  1.00  0.00     0.068 C 
ENDBRANCH  23  24
ENDBRANCH  20  23
ENDBRANCH  16  19
ENDBRANCH  14  15
ENDBRANCH  13  14
ENDBRANCH  10  13
ENDBRANCH   1   9
TORSDOF 7
ENDMDL
MODEL 10
REMARK VINA RESULT:      -8.6      2.781     10.583
REMARK  7 active torsions:
REMARK  status: ('A' for Active; 'I' for Inactive)
REMARK    1  A    between atoms: C_10  and  C_11 
REMARK    2  A    between atoms: C_11  and  C_12 
REMARK       I    between atoms: C_12  and  N_13 
REMARK    3  A    between atoms: N_13  and  N_14 
REMARK       I    between atoms: N_14  and  C_15 
REMARK    4  A    between atoms: C_15  and  C_16 
REMARK    5  A    between atoms: C_16  and  C_17 
REMARK    6  A    between atoms: C_17  and  C_18 
REMARK       I    between atoms: C_18  and  N_19 
REMARK    7  A    between atoms: N_19  and  C_20 
ROOT
HETATM    1  C   UNL     1      43.443 -17.637   3.776  1.00  0.00     0.034 A 
HETATM    2  C   UNL     1      44.012 -18.603   4.607  1.00  0.00     0.031 A 
HETATM    3  C   UNL     1      44.331 -19.873   4.109  1.00  0.00     0.025 A 
HETATM    4  C   UNL     1      44.086 -20.186   2.769  1.00  0.00     0.044 A 
HETATM    5  C   UNL     1      44.415 -21.484   2.259  1.00  0.00     0.099 C 
HETATM    6  N   UNL     1      44.680 -22.534   1.841  1.00  0.00    -0.191 NA
HETATM    7  C   UNL     1      43.516 -19.223   1.932  1.00  0.00     0.025 A 
HETATM    8  C   UNL     1      43.194 -17.958   2.435  1.00  0.00     0.031 A 
ENDROOT
BRANCH   1   9
HETATM    9  N   UNL     1      43.089 -16.341   4.201  1.00  0.00    -0.327 N 
HETATM   10  C   UNL     1      41.833 -15.767   4.192  1.00  0.00     0.222 C 
HETATM   11  O   UNL     1      40.786 -16.299   3.835  1.00  0.00    -0.273 OA
HETATM   12  H   UNL     1      43.845 -15.774   4.590  1.00  0.00     0.169 HD
BRANCH  10  13
HETATM   13  C   UNL     1      41.826 -14.342   4.712  1.00  0.00     0.112 C 
BRANCH  13  14
HETATM   14  C   UNL     1      43.034 -14.057   5.596  1.00  0.00     0.114 C 
BRANCH  14  15
HETATM   15  C   UNL     1      42.766 -12.931   6.572  1.00  0.00     0.236 C 
HETATM   16  N   UNL     1      41.505 -12.395   6.454  1.00  0.00    -0.268 N 
HETATM   17  H   UNL     1      40.840 -12.667   5.728  1.00  0.00     0.190 HD
HETATM   18  O   UNL     1      43.583 -12.560   7.414  1.00  0.00    -0.272 OA
BRANCH  16  19
HETATM   19  N   UNL     1      41.195 -11.229   7.161  1.00  0.00    -0.267 N 
HETATM   20  C   UNL     1      39.996 -11.196   7.847  1.00  0.00     0.240 C 
HETATM   21  O   UNL     1      39.190 -12.126   7.798  1.00  0.00    -0.272 OA
HETATM   22  H   UNL     1      41.959 -10.583   7.359  1.00  0.00     0.190 HD
BRANCH  20  23
HETATM   23  C   UNL     1      39.740  -9.910   8.594  1.00  0.00     0.146 C 
BRANCH  23  24
HETATM   24  C   UNL     1      40.246  -9.832  10.005  1.00  0.00    -0.015 A 
HETATM   25  C   UNL     1      41.571 -10.023  10.537  1.00  0.00    -0.000 A 
HETATM   26  C   UNL     1      42.835 -10.362  10.000  1.00  0.00     0.021 A 
HETATM   27  C   UNL     1      41.502  -9.795  11.913  1.00  0.00     0.043 A 
HETATM   28  C   UNL     1      43.969 -10.453  10.830  1.00  0.00    -0.061 A 
HETATM   29  C   UNL     1      45.310 -10.771  10.238  1.00  0.00     0.048 C 
HETATM   30  C   UNL     1      43.848 -10.193  12.195  1.00  0.00     0.009 A 
HETATM   31  C   UNL     1      42.613  -9.871  12.761  1.00  0.00     0.031 A 
HETATM   32  N   UNL     1      40.196  -9.507  12.216  1.00  0.00    -0.359 N 
HETATM   33  H   UNL     1      39.861  -9.312  13.150  1.00  0.00     0.166 HD
HETATM   34  C   UNL     1      39.427  -9.518  11.085  1.00  0.00     0.013 A 
HETATM   35  C   UNL     1      37.968  -9.229  11.142  1.00  0.00     0.068 C 
ENDBRANCH  23  24
ENDBRANCH  20  23
ENDBRANCH  16  19
ENDBRANCH  14  15
ENDBRANCH  13  14
ENDBRANCH  10  13
ENDBRANCH   1   9
TORSDOF 7
ENDMDL
