MODEL 1
REMARK VINA RESULT:      -8.0      0.000      0.000
REMARK  10 active torsions:
REMARK  status: ('A' for Active; 'I' for Inactive)
REMARK    1  A    between atoms: C_2  and  C_3 
REMARK    2  A    between atoms: C_3  and  N_4 
REMARK    3  A    between atoms: C_7  and  C_8 
REMARK       I    between atoms: C_8  and  N_9 
REMARK    4  A    between atoms: N_9  and  C_10 
REMARK    5  A    between atoms: C_10  and  C_11 
REMARK    6  A    between atoms: C_11  and  O_12 
REMARK    7  A    between atoms: C_11  and  C_13 
REMARK    8  A    between atoms: C_13  and  O_14 
REMARK    9  A    between atoms: O_14  and  C_15 
REMARK   10  A    between atoms: C_23  and  C_24 
ROOT
HETATM    1  C   UNL     1      44.774 -12.121   9.094  1.00  0.00     0.255 C 
HETATM    2  N   UNL     1      44.481 -13.263   8.395  1.00  0.00    -0.354 N 
HETATM    3  O   UNL     1      45.668 -11.347   8.770  1.00  0.00    -0.268 OA
HETATM    4  H   UNL     1      43.873 -13.953   8.818  1.00  0.00     0.162 HD
ENDROOT
BRANCH   2   5
HETATM    5  C   UNL     1      45.123 -13.601   7.139  1.00  0.00     0.156 C 
BRANCH   5   6
HETATM    6  C   UNL     1      44.248 -14.463   6.225  1.00  0.00     0.160 C 
BRANCH   6   7
HETATM    7  O   UNL     1      42.887 -14.006   6.310  1.00  0.00    -0.392 OA
HETATM    8  H   UNL     1      42.609 -13.840   5.388  1.00  0.00     0.210 HD
ENDBRANCH   6   7
BRANCH   6   9
HETATM    9  C   UNL     1      44.316 -15.960   6.549  1.00  0.00     0.209 C 
BRANCH   9  10
HETATM   10  O   UNL     1      43.437 -16.615   5.622  1.00  0.00    -0.349 OA
BRANCH  10  11
HETATM   11  C   UNL     1      43.862 -17.804   5.095  1.00  0.00     0.069 A 
HETATM   12  C   UNL     1      43.438 -18.044   3.784  1.00  0.00     0.043 A 
HETATM   13  C   UNL     1      43.795 -19.221   3.114  1.00  0.00    -0.059 A 
HETATM   14  C   UNL     1      43.340 -19.476   1.708  1.00  0.00     0.048 C 
HETATM   15  C   UNL     1      44.574 -20.170   3.782  1.00  0.00     0.007 A 
HETATM   16  C   UNL     1      44.994 -19.939   5.093  1.00  0.00     0.003 A 
HETATM   17  C   UNL     1      44.641 -18.757   5.750  1.00  0.00     0.037 A 
ENDBRANCH  10  11
ENDBRANCH   9  10
ENDBRANCH   6   9
ENDBRANCH   5   6
ENDBRANCH   2   5
BRANCH   1  18
HETATM   18  C   UNL     1      43.995 -11.945  10.298  1.00  0.00     0.075 A 
HETATM   19  C   UNL     1      44.267 -12.587  11.526  1.00  0.00     0.158 A 
HETATM   20  N   UNL     1      43.416 -12.242  12.489  1.00  0.00    -0.183 NA
HETATM   21  N   UNL     1      42.648 -11.293  11.918  1.00  0.00    -0.268 N 
HETATM   22  C   UNL     1      42.912 -11.116  10.570  1.00  0.00     0.052 A 
BRANCH  21  23
HETATM   23  C   UNL     1      41.648 -10.608  12.736  1.00  0.00     0.106 C 
HETATM   24  C   UNL     1      40.416 -11.498  12.910  1.00  0.00     0.034 C 
BRANCH  23  25
HETATM   25  C   UNL     1      42.178 -10.138  14.107  1.00  0.00     0.022 C 
HETATM   26  C   UNL     1      43.354  -9.176  13.991  1.00  0.00     0.007 C 
ENDBRANCH  23  25
ENDBRANCH  21  23
BRANCH  22  27
HETATM   27  C   UNL     1      42.161 -10.136   9.666  1.00  0.00     0.038 A 
HETATM   28  C   UNL     1      41.774 -10.535   8.260  1.00  0.00     0.011 A 
HETATM   29  C   UNL     1      40.716 -10.366   9.296  1.00  0.00     0.011 A 
ENDBRANCH  22  27
ENDBRANCH   1  18
TORSDOF 10
ENDMDL
MODEL 2
REMARK VINA RESULT:      -7.8      6.682      9.858
REMARK  10 active torsions:
REMARK  status: ('A' for Active; 'I' for Inactive)
REMARK    1  A    between atoms: C_2  and  C_3 
REMARK    2  A    between atoms: C_3  and  N_4 
REMARK    3  A    between atoms: C_7  and  C_8 
REMARK       I    between atoms: C_8  and  N_9 
REMARK    4  A    between atoms: N_9  and  C_10 
REMARK    5  A    between atoms: C_10  and  C_11 
REMARK    6  A    between atoms: C_11  and  O_12 
REMARK    7  A    between atoms: C_11  and  C_13 
REMARK    8  A    between atoms: C_13  and  O_14 
REMARK    9  A    between atoms: O_14  and  C_15 
REMARK   10  A    between atoms: C_23  and  C_24 
ROOT
HETATM    1  C   UNL     1      42.622 -16.306   4.301  1.00  0.00     0.255 C 
HETATM    2  N   UNL     1      41.328 -16.324   3.851  1.00  0.00    -0.354 N 
HETATM    3  O   UNL     1      43.257 -15.272   4.476  1.00  0.00    -0.268 OA
HETATM    4  H   UNL     1      40.929 -17.202   3.541  1.00  0.00     0.162 HD
ENDROOT
BRANCH   2   5
HETATM    5  C   UNL     1      40.548 -15.116   3.655  1.00  0.00     0.156 C 
BRANCH   5   6
HETATM    6  C   UNL     1      39.553 -15.219   2.496  1.00  0.00     0.160 C 
BRANCH   6   7
HETATM    7  O   UNL     1      39.427 -16.598   2.106  1.00  0.00    -0.392 OA
HETATM    8  H   UNL     1      38.834 -16.597   1.331  1.00  0.00     0.210 HD
ENDBRANCH   6   7
BRANCH   6   9
HETATM    9  C   UNL     1      39.941 -14.369   1.280  1.00  0.00     0.209 C 
BRANCH   9  10
HETATM   10  O   UNL     1      41.057 -15.029   0.664  1.00  0.00    -0.349 OA
BRANCH  10  11
HETATM   11  C   UNL     1      41.249 -14.812  -0.673  1.00  0.00     0.069 A 
HETATM   12  C   UNL     1      41.798 -13.565  -0.986  1.00  0.00     0.043 A 
HETATM   13  C   UNL     1      42.051 -13.200  -2.315  1.00  0.00    -0.059 A 
HETATM   14  C   UNL     1      42.641 -11.863  -2.650  1.00  0.00     0.048 C 
HETATM   15  C   UNL     1      41.729 -14.100  -3.336  1.00  0.00     0.007 A 
HETATM   16  C   UNL     1      41.174 -15.343  -3.029  1.00  0.00     0.003 A 
HETATM   17  C   UNL     1      40.935 -15.701  -1.699  1.00  0.00     0.037 A 
ENDBRANCH  10  11
ENDBRANCH   9  10
ENDBRANCH   6   9
ENDBRANCH   5   6
ENDBRANCH   2   5
BRANCH   1  18
HETATM   18  C   UNL     1      43.209 -17.615   4.472  1.00  0.00     0.075 A 
HETATM   19  C   UNL     1      43.188 -18.348   5.679  1.00  0.00     0.158 A 
HETATM   20  N   UNL     1      43.778 -19.536   5.573  1.00  0.00    -0.183 NA
HETATM   21  N   UNL     1      44.093 -19.625   4.265  1.00  0.00    -0.268 N 
HETATM   22  C   UNL     1      43.829 -18.463   3.561  1.00  0.00     0.052 A 
BRANCH  21  23
HETATM   23  C   UNL     1      44.679 -20.868   3.763  1.00  0.00     0.106 C 
HETATM   24  C   UNL     1      45.078 -21.768   4.934  1.00  0.00     0.034 C 
BRANCH  23  25
HETATM   25  C   UNL     1      43.773 -21.630   2.774  1.00  0.00     0.022 C 
HETATM   26  C   UNL     1      44.456 -21.919   1.444  1.00  0.00     0.007 C 
ENDBRANCH  23  25
ENDBRANCH  21  23
BRANCH  22  27
HETATM   27  C   UNL     1      44.128 -18.271   2.072  1.00  0.00     0.038 A 
HETATM   28  C   UNL     1      43.006 -17.998   1.096  1.00  0.00     0.011 A 
HETATM   29  C   UNL     1      43.984 -16.919   1.415  1.00  0.00     0.011 A 
ENDBRANCH  22  27
ENDBRANCH   1  18
TORSDOF 10
ENDMDL
MODEL 3
REMARK VINA RESULT:      -7.7      5.302      7.742
REMARK  10 active torsions:
REMARK  status: ('A' for Active; 'I' for Inactive)
REMARK    1  A    between atoms: C_2  and  C_3 
REMARK    2  A    between atoms: C_3  and  N_4 
REMARK    3  A    between atoms: C_7  and  C_8 
REMARK       I    between atoms: C_8  and  N_9 
REMARK    4  A    between atoms: N_9  and  C_10 
REMARK    5  A    between atoms: C_10  and  C_11 
REMARK    6  A    between atoms: C_11  and  O_12 
REMARK    7  A    between atoms: C_11  and  C_13 
REMARK    8  A    between atoms: C_13  and  O_14 
REMARK    9  A    between atoms: O_14  and  C_15 
REMARK   10  A    between atoms: C_23  and  C_24 
ROOT
HETATM    1  C   UNL     1      41.857 -15.899   5.411  1.00  0.00     0.255 C 
HETATM    2  N   UNL     1      43.138 -16.291   5.697  1.00  0.00    -0.354 N 
HETATM    3  O   UNL     1      41.026 -15.638   6.274  1.00  0.00    -0.268 OA
HETATM    4  H   UNL     1      43.709 -16.678   4.955  1.00  0.00     0.162 HD
ENDROOT
BRANCH   2   5
HETATM    5  C   UNL     1      43.668 -16.319   7.047  1.00  0.00     0.156 C 
BRANCH   5   6
HETATM    6  C   UNL     1      43.153 -17.498   7.876  1.00  0.00     0.160 C 
BRANCH   6   7
HETATM    7  O   UNL     1      43.583 -17.338   9.239  1.00  0.00    -0.392 OA
HETATM    8  H   UNL     1      43.270 -18.135   9.707  1.00  0.00     0.210 HD
ENDBRANCH   6   7
BRANCH   6   9
HETATM    9  C   UNL     1      43.606 -18.863   7.344  1.00  0.00     0.209 C 
BRANCH   9  10
HETATM   10  O   UNL     1      44.577 -18.597   6.321  1.00  0.00    -0.349 OA
BRANCH  10  11
HETATM   11  C   UNL     1      44.536 -19.385   5.204  1.00  0.00     0.069 A 
HETATM   12  C   UNL     1      44.159 -18.716   4.035  1.00  0.00     0.043 A 
HETATM   13  C   UNL     1      44.072 -19.394   2.812  1.00  0.00    -0.059 A 
HETATM   14  C   UNL     1      43.668 -18.675   1.559  1.00  0.00     0.048 C 
HETATM   15  C   UNL     1      44.355 -20.762   2.775  1.00  0.00     0.007 A 
HETATM   16  C   UNL     1      44.725 -21.436   3.940  1.00  0.00     0.003 A 
HETATM   17  C   UNL     1      44.818 -20.749   5.154  1.00  0.00     0.037 A 
ENDBRANCH  10  11
ENDBRANCH   9  10
ENDBRANCH   6   9
ENDBRANCH   5   6
ENDBRANCH   2   5
BRANCH   1  18
HETATM   18  C   UNL     1      41.536 -15.898   4.002  1.00  0.00     0.075 A 
HETATM   19  C   UNL     1      40.873 -16.950   3.333  1.00  0.00     0.158 A 
HETATM   20  N   UNL     1      40.676 -16.699   2.041  1.00  0.00    -0.183 NA
HETATM   21  N   UNL     1      41.118 -15.435   1.887  1.00  0.00    -0.268 N 
HETATM   22  C   UNL     1      41.710 -14.921   3.028  1.00  0.00     0.052 A 
BRANCH  21  23
HETATM   23  C   UNL     1      40.961 -14.787   0.585  1.00  0.00     0.106 C 
HETATM   24  C   UNL     1      41.274 -15.781  -0.535  1.00  0.00     0.034 C 
BRANCH  23  25
HETATM   25  C   UNL     1      39.575 -14.144   0.371  1.00  0.00     0.022 C 
HETATM   26  C   UNL     1      39.297 -13.800  -1.087  1.00  0.00     0.007 C 
ENDBRANCH  23  25
ENDBRANCH  21  23
BRANCH  22  27
HETATM   27  C   UNL     1      42.336 -13.527   3.121  1.00  0.00     0.038 A 
HETATM   28  C   UNL     1      41.459 -12.304   3.263  1.00  0.00     0.011 A 
HETATM   29  C   UNL     1      42.304 -12.742   4.410  1.00  0.00     0.011 A 
ENDBRANCH  22  27
ENDBRANCH   1  18
TORSDOF 10
ENDMDL
MODEL 4
REMARK VINA RESULT:      -7.6      4.633      6.751
REMARK  10 active torsions:
REMARK  status: ('A' for Active; 'I' for Inactive)
REMARK    1  A    between atoms: C_2  and  C_3 
REMARK    2  A    between atoms: C_3  and  N_4 
REMARK    3  A    between atoms: C_7  and  C_8 
REMARK       I    between atoms: C_8  and  N_9 
REMARK    4  A    between atoms: N_9  and  C_10 
REMARK    5  A    between atoms: C_10  and  C_11 
REMARK    6  A    between atoms: C_11  and  O_12 
REMARK    7  A    between atoms: C_11  and  C_13 
REMARK    8  A    between atoms: C_13  and  O_14 
REMARK    9  A    between atoms: O_14  and  C_15 
REMARK   10  A    between atoms: C_23  and  C_24 
ROOT
HETATM    1  C   UNL     1      43.256 -14.133   5.667  1.00  0.00     0.255 C 
HETATM    2  N   UNL     1      42.849 -15.066   6.583  1.00  0.00    -0.354 N 
HETATM    3  O   UNL     1      44.428 -13.802   5.522  1.00  0.00    -0.268 OA
HETATM    4  H   UNL     1      41.861 -15.151   6.791  1.00  0.00     0.162 HD
ENDROOT
BRANCH   2   5
HETATM    5  C   UNL     1      43.780 -15.839   7.384  1.00  0.00     0.156 C 
BRANCH   5   6
HETATM    6  C   UNL     1      43.209 -17.180   7.852  1.00  0.00     0.160 C 
BRANCH   6   7
HETATM    7  O   UNL     1      43.569 -17.388   9.230  1.00  0.00    -0.392 OA
HETATM    8  H   UNL     1      42.784 -17.127   9.748  1.00  0.00     0.210 HD
ENDBRANCH   6   7
BRANCH   6   9
HETATM    9  C   UNL     1      43.672 -18.372   7.007  1.00  0.00     0.209 C 
BRANCH   9  10
HETATM   10  O   UNL     1      44.295 -17.819   5.837  1.00  0.00    -0.349 OA
BRANCH  10  11
HETATM   11  C   UNL     1      44.274 -18.583   4.702  1.00  0.00     0.069 A 
HETATM   12  C   UNL     1      43.997 -17.873   3.529  1.00  0.00     0.043 A 
HETATM   13  C   UNL     1      43.942 -18.522   2.288  1.00  0.00    -0.059 A 
HETATM   14  C   UNL     1      43.646 -17.759   1.032  1.00  0.00     0.048 C 
HETATM   15  C   UNL     1      44.154 -19.903   2.238  1.00  0.00     0.007 A 
HETATM   16  C   UNL     1      44.424 -20.617   3.406  1.00  0.00     0.003 A 
HETATM   17  C   UNL     1      44.486 -19.959   4.638  1.00  0.00     0.037 A 
ENDBRANCH  10  11
ENDBRANCH   9  10
ENDBRANCH   6   9
ENDBRANCH   5   6
ENDBRANCH   2   5
BRANCH   1  18
HETATM   18  C   UNL     1      42.177 -13.504   4.941  1.00  0.00     0.075 A 
HETATM   19  C   UNL     1      41.687 -12.207   5.204  1.00  0.00     0.158 A 
HETATM   20  N   UNL     1      40.703 -11.848   4.382  1.00  0.00    -0.183 NA
HETATM   21  N   UNL     1      40.621 -12.874   3.511  1.00  0.00    -0.268 N 
HETATM   22  C   UNL     1      41.448 -13.935   3.838  1.00  0.00     0.052 A 
BRANCH  21  23
HETATM   23  C   UNL     1      39.691 -12.771   2.386  1.00  0.00     0.106 C 
HETATM   24  C   UNL     1      38.584 -11.768   2.714  1.00  0.00     0.034 C 
BRANCH  23  25
HETATM   25  C   UNL     1      40.368 -12.418   1.046  1.00  0.00     0.022 C 
HETATM   26  C   UNL     1      39.612 -12.955  -0.162  1.00  0.00     0.007 C 
ENDBRANCH  23  25
ENDBRANCH  21  23
BRANCH  22  27
HETATM   27  C   UNL     1      41.524 -15.244   3.048  1.00  0.00     0.038 A 
HETATM   28  C   UNL     1      40.979 -16.525   3.636  1.00  0.00     0.011 A 
HETATM   29  C   UNL     1      40.281 -15.888   2.484  1.00  0.00     0.011 A 
ENDBRANCH  22  27
ENDBRANCH   1  18
TORSDOF 10
ENDMDL
MODEL 5
REMARK VINA RESULT:      -7.6      1.935      3.089
REMARK  10 active torsions:
REMARK  status: ('A' for Active; 'I' for Inactive)
REMARK    1  A    between atoms: C_2  and  C_3 
REMARK    2  A    between atoms: C_3  and  N_4 
REMARK    3  A    between atoms: C_7  and  C_8 
REMARK       I    between atoms: C_8  and  N_9 
REMARK    4  A    between atoms: N_9  and  C_10 
REMARK    5  A    between atoms: C_10  and  C_11 
REMARK    6  A    between atoms: C_11  and  O_12 
REMARK    7  A    between atoms: C_11  and  C_13 
REMARK    8  A    between atoms: C_13  and  O_14 
REMARK    9  A    between atoms: O_14  and  C_15 
REMARK   10  A    between atoms: C_23  and  C_24 
ROOT
HETATM    1  C   UNL     1      41.832 -10.485   7.821  1.00  0.00     0.255 C 
HETATM    2  N   UNL     1      41.589 -11.788   7.473  1.00  0.00    -0.354 N 
HETATM    3  O   UNL     1      42.087  -9.608   7.002  1.00  0.00    -0.268 OA
HETATM    4  H   UNL     1      41.581 -12.495   8.198  1.00  0.00     0.162 HD
ENDROOT
BRANCH   2   5
HETATM    5  C   UNL     1      41.489 -12.227   6.095  1.00  0.00     0.156 C 
BRANCH   5   6
HETATM    6  C   UNL     1      40.441 -13.322   5.882  1.00  0.00     0.160 C 
BRANCH   6   7
HETATM    7  O   UNL     1      39.580 -13.378   7.033  1.00  0.00    -0.392 OA
HETATM    8  H   UNL     1      40.170 -13.549   7.792  1.00  0.00     0.210 HD
ENDBRANCH   6   7
BRANCH   6   9
HETATM    9  C   UNL     1      41.047 -14.706   5.618  1.00  0.00     0.209 C 
BRANCH   9  10
HETATM   10  O   UNL     1      42.441 -14.606   5.948  1.00  0.00    -0.349 OA
BRANCH  10  11
HETATM   11  C   UNL     1      43.175 -15.759   5.906  1.00  0.00     0.069 A 
HETATM   12  C   UNL     1      42.948 -16.552   4.777  1.00  0.00     0.043 A 
HETATM   13  C   UNL     1      43.627 -17.764   4.597  1.00  0.00    -0.059 A 
HETATM   14  C   UNL     1      43.383 -18.613   3.385  1.00  0.00     0.048 C 
HETATM   15  C   UNL     1      44.532 -18.184   5.577  1.00  0.00     0.007 A 
HETATM   16  C   UNL     1      44.757 -17.400   6.709  1.00  0.00     0.003 A 
HETATM   17  C   UNL     1      44.082 -16.187   6.874  1.00  0.00     0.037 A 
ENDBRANCH  10  11
ENDBRANCH   9  10
ENDBRANCH   6   9
ENDBRANCH   5   6
ENDBRANCH   2   5
BRANCH   1  18
HETATM   18  C   UNL     1      41.850 -10.244   9.246  1.00  0.00     0.075 A 
HETATM   19  C   UNL     1      40.896  -9.466   9.936  1.00  0.00     0.158 A 
HETATM   20  N   UNL     1      41.120  -9.414  11.247  1.00  0.00    -0.183 NA
HETATM   21  N   UNL     1      42.164 -10.246  11.428  1.00  0.00    -0.268 N 
HETATM   22  C   UNL     1      42.690 -10.729  10.242  1.00  0.00     0.052 A 
BRANCH  21  23
HETATM   23  C   UNL     1      42.626 -10.512  12.791  1.00  0.00     0.106 C 
HETATM   24  C   UNL     1      43.583  -9.407  13.243  1.00  0.00     0.034 C 
BRANCH  23  25
HETATM   25  C   UNL     1      41.484 -10.695  13.812  1.00  0.00     0.022 C 
HETATM   26  C   UNL     1      41.708  -9.913  15.100  1.00  0.00     0.007 C 
ENDBRANCH  23  25
ENDBRANCH  21  23
BRANCH  22  27
HETATM   27  C   UNL     1      43.904 -11.658  10.152  1.00  0.00     0.038 A 
HETATM   28  C   UNL     1      45.057 -11.320   9.235  1.00  0.00     0.011 A 
HETATM   29  C   UNL     1      45.244 -11.247  10.712  1.00  0.00     0.011 A 
ENDBRANCH  22  27
ENDBRANCH   1  18
TORSDOF 10
ENDMDL
MODEL 6
REMARK VINA RESULT:      -7.5      5.036      8.967
REMARK  10 active torsions:
REMARK  status: ('A' for Active; 'I' for Inactive)
REMARK    1  A    between atoms: C_2  and  C_3 
REMARK    2  A    between atoms: C_3  and  N_4 
REMARK    3  A    between atoms: C_7  and  C_8 
REMARK       I    between atoms: C_8  and  N_9 
REMARK    4  A    between atoms: N_9  and  C_10 
REMARK    5  A    between atoms: C_10  and  C_11 
REMARK    6  A    between atoms: C_11  and  O_12 
REMARK    7  A    between atoms: C_11  and  C_13 
REMARK    8  A    between atoms: C_13  and  O_14 
REMARK    9  A    between atoms: O_14  and  C_15 
REMARK   10  A    between atoms: C_23  and  C_24 
ROOT
HETATM    1  C   UNL     1      41.175 -16.993   2.478  1.00  0.00     0.255 C 
HETATM    2  N   UNL     1      40.880 -15.659   2.375  1.00  0.00    -0.354 N 
HETATM    3  O   UNL     1      40.806 -17.827   1.658  1.00  0.00    -0.268 OA
HETATM    4  H   UNL     1      41.040 -15.059   3.175  1.00  0.00     0.162 HD
ENDROOT
BRANCH   2   5
HETATM    5  C   UNL     1      40.206 -15.091   1.222  1.00  0.00     0.156 C 
BRANCH   5   6
HETATM    6  C   UNL     1      41.119 -14.218   0.357  1.00  0.00     0.160 C 
BRANCH   6   7
HETATM    7  O   UNL     1      42.254 -14.997  -0.062  1.00  0.00    -0.392 OA
HETATM    8  H   UNL     1      42.936 -14.852   0.621  1.00  0.00     0.210 HD
ENDBRANCH   6   7
BRANCH   6   9
HETATM    9  C   UNL     1      41.595 -12.943   1.064  1.00  0.00     0.209 C 
BRANCH   9  10
HETATM   10  O   UNL     1      42.683 -13.336   1.916  1.00  0.00    -0.349 OA
BRANCH  10  11
HETATM   11  C   UNL     1      42.529 -13.124   3.258  1.00  0.00     0.069 A 
HETATM   12  C   UNL     1      43.418 -13.841   4.065  1.00  0.00     0.043 A 
HETATM   13  C   UNL     1      43.380 -13.727   5.461  1.00  0.00    -0.059 A 
HETATM   14  C   UNL     1      44.335 -14.495   6.324  1.00  0.00     0.048 C 
HETATM   15  C   UNL     1      42.423 -12.892   6.045  1.00  0.00     0.007 A 
HETATM   16  C   UNL     1      41.528 -12.179   5.245  1.00  0.00     0.003 A 
HETATM   17  C   UNL     1      41.581 -12.293   3.852  1.00  0.00     0.037 A 
ENDBRANCH  10  11
ENDBRANCH   9  10
ENDBRANCH   6   9
ENDBRANCH   5   6
ENDBRANCH   2   5
BRANCH   1  18
HETATM   18  C   UNL     1      41.887 -17.352   3.683  1.00  0.00     0.075 A 
HETATM   19  C   UNL     1      41.455 -17.039   4.989  1.00  0.00     0.158 A 
HETATM   20  N   UNL     1      42.276 -17.499   5.931  1.00  0.00    -0.183 NA
HETATM   21  N   UNL     1      43.193 -18.206   5.241  1.00  0.00    -0.268 N 
HETATM   22  C   UNL     1      43.045 -18.100   3.869  1.00  0.00     0.052 A 
BRANCH  21  23
HETATM   23  C   UNL     1      44.215 -18.948   5.981  1.00  0.00     0.106 C 
HETATM   24  C   UNL     1      45.271 -17.983   6.523  1.00  0.00     0.034 C 
BRANCH  23  25
HETATM   25  C   UNL     1      43.649 -19.828   7.114  1.00  0.00     0.022 C 
HETATM   26  C   UNL     1      43.745 -21.319   6.813  1.00  0.00     0.007 C 
ENDBRANCH  23  25
ENDBRANCH  21  23
BRANCH  22  27
HETATM   27  C   UNL     1      43.972 -18.764   2.847  1.00  0.00     0.038 A 
HETATM   28  C   UNL     1      44.374 -20.212   3.008  1.00  0.00     0.011 A 
HETATM   29  C   UNL     1      43.460 -19.820   1.898  1.00  0.00     0.011 A 
ENDBRANCH  22  27
ENDBRANCH   1  18
TORSDOF 10
ENDMDL
MODEL 7
REMARK VINA RESULT:      -7.5      6.863      9.363
REMARK  10 active torsions:
REMARK  status: ('A' for Active; 'I' for Inactive)
REMARK    1  A    between atoms: C_2  and  C_3 
REMARK    2  A    between atoms: C_3  and  N_4 
REMARK    3  A    between atoms: C_7  and  C_8 
REMARK       I    between atoms: C_8  and  N_9 
REMARK    4  A    between atoms: N_9  and  C_10 
REMARK    5  A    between atoms: C_10  and  C_11 
REMARK    6  A    between atoms: C_11  and  O_12 
REMARK    7  A    between atoms: C_11  and  C_13 
REMARK    8  A    between atoms: C_13  and  O_14 
REMARK    9  A    between atoms: O_14  and  C_15 
REMARK   10  A    between atoms: C_23  and  C_24 
ROOT
HETATM    1  C   UNL     1      40.651 -16.606   2.969  1.00  0.00     0.255 C 
HETATM    2  N   UNL     1      40.281 -15.328   3.296  1.00  0.00    -0.354 N 
HETATM    3  O   UNL     1      40.154 -17.230   2.038  1.00  0.00    -0.268 OA
HETATM    4  H   UNL     1      40.580 -14.943   4.183  1.00  0.00     0.162 HD
ENDROOT
BRANCH   2   5
HETATM    5  C   UNL     1      39.352 -14.550   2.497  1.00  0.00     0.156 C 
BRANCH   5   6
HETATM    6  C   UNL     1      39.749 -13.077   2.370  1.00  0.00     0.160 C 
BRANCH   6   7
HETATM    7  O   UNL     1      38.668 -12.351   1.758  1.00  0.00    -0.392 OA
HETATM    8  H   UNL     1      38.375 -12.902   1.007  1.00  0.00     0.210 HD
ENDBRANCH   6   7
BRANCH   6   9
HETATM    9  C   UNL     1      41.040 -12.858   1.572  1.00  0.00     0.209 C 
BRANCH   9  10
HETATM   10  O   UNL     1      41.287 -14.080   0.860  1.00  0.00    -0.349 OA
BRANCH  10  11
HETATM   11  C   UNL     1      41.412 -13.994  -0.500  1.00  0.00     0.069 A 
HETATM   12  C   UNL     1      40.770 -15.015  -1.208  1.00  0.00     0.043 A 
HETATM   13  C   UNL     1      40.810 -15.059  -2.608  1.00  0.00    -0.059 A 
HETATM   14  C   UNL     1      40.121 -16.154  -3.366  1.00  0.00     0.048 C 
HETATM   15  C   UNL     1      41.520 -14.069  -3.295  1.00  0.00     0.007 A 
HETATM   16  C   UNL     1      42.167 -13.052  -2.593  1.00  0.00     0.003 A 
HETATM   17  C   UNL     1      42.113 -13.011  -1.196  1.00  0.00     0.037 A 
ENDBRANCH  10  11
ENDBRANCH   9  10
ENDBRANCH   6   9
ENDBRANCH   5   6
ENDBRANCH   2   5
BRANCH   1  18
HETATM   18  C   UNL     1      41.619 -17.192   3.867  1.00  0.00     0.075 A 
HETATM   19  C   UNL     1      41.323 -17.659   5.166  1.00  0.00     0.158 A 
HETATM   20  N   UNL     1      42.382 -18.175   5.784  1.00  0.00    -0.183 NA
HETATM   21  N   UNL     1      43.351 -18.140   4.847  1.00  0.00    -0.268 N 
HETATM   22  C   UNL     1      42.964 -17.496   3.685  1.00  0.00     0.052 A 
BRANCH  21  23
HETATM   23  C   UNL     1      44.653 -18.731   5.157  1.00  0.00     0.106 C 
HETATM   24  C   UNL     1      45.192 -18.152   6.467  1.00  0.00     0.034 C 
BRANCH  23  25
HETATM   25  C   UNL     1      44.643 -20.273   5.207  1.00  0.00     0.022 C 
HETATM   26  C   UNL     1      44.710 -20.913   3.826  1.00  0.00     0.007 C 
ENDBRANCH  23  25
ENDBRANCH  21  23
BRANCH  22  27
HETATM   27  C   UNL     1      43.877 -17.274   2.477  1.00  0.00     0.038 A 
HETATM   28  C   UNL     1      43.924 -18.290   1.358  1.00  0.00     0.011 A 
HETATM   29  C   UNL     1      43.306 -16.956   1.116  1.00  0.00     0.011 A 
ENDBRANCH  22  27
ENDBRANCH   1  18
TORSDOF 10
ENDMDL
MODEL 8
REMARK VINA RESULT:      -7.5      5.673      8.949
REMARK  10 active torsions:
REMARK  status: ('A' for Active; 'I' for Inactive)
REMARK    1  A    between atoms: C_2  and  C_3 
REMARK    2  A    between atoms: C_3  and  N_4 
REMARK    3  A    between atoms: C_7  and  C_8 
REMARK       I    between atoms: C_8  and  N_9 
REMARK    4  A    between atoms: N_9  and  C_10 
REMARK    5  A    between atoms: C_10  and  C_11 
REMARK    6  A    between atoms: C_11  and  O_12 
REMARK    7  A    between atoms: C_11  and  C_13 
REMARK    8  A    between atoms: C_13  and  O_14 
REMARK    9  A    between atoms: O_14  and  C_15 
REMARK   10  A    between atoms: C_23  and  C_24 
ROOT
HETATM    1  C   UNL     1      42.364 -14.455   3.230  1.00  0.00     0.255 C 
HETATM    2  N   UNL     1      41.446 -14.464   4.247  1.00  0.00    -0.354 N 
HETATM    3  O   UNL     1      43.528 -14.815   3.375  1.00  0.00    -0.268 OA
HETATM    4  H   UNL     1      40.568 -13.975   4.118  1.00  0.00     0.162 HD
ENDROOT
BRANCH   2   5
HETATM    5  C   UNL     1      41.731 -15.013   5.559  1.00  0.00     0.156 C 
BRANCH   5   6
HETATM    6  C   UNL     1      41.388 -16.499   5.682  1.00  0.00     0.160 C 
BRANCH   6   7
HETATM    7  O   UNL     1      40.112 -16.634   6.334  1.00  0.00    -0.392 OA
HETATM    8  H   UNL     1      39.802 -17.534   6.116  1.00  0.00     0.210 HD
ENDBRANCH   6   7
BRANCH   6   9
HETATM    9  C   UNL     1      42.446 -17.312   6.436  1.00  0.00     0.209 C 
BRANCH   9  10
HETATM   10  O   UNL     1      43.653 -17.222   5.662  1.00  0.00    -0.349 OA
BRANCH  10  11
HETATM   11  C   UNL     1      43.898 -18.232   4.773  1.00  0.00     0.069 A 
HETATM   12  C   UNL     1      44.257 -19.449   5.361  1.00  0.00     0.043 A 
HETATM   13  C   UNL     1      44.538 -20.575   4.576  1.00  0.00    -0.059 A 
HETATM   14  C   UNL     1      44.922 -21.880   5.207  1.00  0.00     0.048 C 
HETATM   15  C   UNL     1      44.472 -20.462   3.184  1.00  0.00     0.007 A 
HETATM   16  C   UNL     1      44.121 -19.248   2.592  1.00  0.00     0.003 A 
HETATM   17  C   UNL     1      43.832 -18.133   3.384  1.00  0.00     0.037 A 
ENDBRANCH  10  11
ENDBRANCH   9  10
ENDBRANCH   6   9
ENDBRANCH   5   6
ENDBRANCH   2   5
BRANCH   1  18
HETATM   18  C   UNL     1      41.871 -13.905   1.989  1.00  0.00     0.075 A 
HETATM   19  C   UNL     1      42.132 -12.594   1.536  1.00  0.00     0.158 A 
HETATM   20  N   UNL     1      41.583 -12.336   0.352  1.00  0.00    -0.183 NA
HETATM   21  N   UNL     1      41.048 -13.516  -0.020  1.00  0.00    -0.268 N 
HETATM   22  C   UNL     1      41.137 -14.488   0.962  1.00  0.00     0.052 A 
BRANCH  21  23
HETATM   23  C   UNL     1      40.435 -13.627  -1.343  1.00  0.00     0.106 C 
HETATM   24  C   UNL     1      39.898 -12.265  -1.786  1.00  0.00     0.034 C 
BRANCH  23  25
HETATM   25  C   UNL     1      41.372 -14.219  -2.417  1.00  0.00     0.022 C 
HETATM   26  C   UNL     1      40.951 -15.611  -2.870  1.00  0.00     0.007 C 
ENDBRANCH  23  25
ENDBRANCH  21  23
BRANCH  22  27
HETATM   27  C   UNL     1      40.574 -15.905   0.824  1.00  0.00     0.038 A 
HETATM   28  C   UNL     1      41.504 -17.083   0.641  1.00  0.00     0.011 A 
HETATM   29  C   UNL     1      40.757 -16.927   1.920  1.00  0.00     0.011 A 
ENDBRANCH  22  27
ENDBRANCH   1  18
TORSDOF 10
ENDMDL
MODEL 9
REMARK VINA RESULT:      -7.4      1.628      2.681
REMARK  10 active torsions:
REMARK  status: ('A' for Active; 'I' for Inactive)
REMARK    1  A    between atoms: C_2  and  C_3 
REMARK    2  A    between atoms: C_3  and  N_4 
REMARK    3  A    between atoms: C_7  and  C_8 
REMARK       I    between atoms: C_8  and  N_9 
REMARK    4  A    between atoms: N_9  and  C_10 
REMARK    5  A    between atoms: C_10  and  C_11 
REMARK    6  A    between atoms: C_11  and  O_12 
REMARK    7  A    between atoms: C_11  and  C_13 
REMARK    8  A    between atoms: C_13  and  O_14 
REMARK    9  A    between atoms: O_14  and  C_15 
REMARK   10  A    between atoms: C_23  and  C_24 
ROOT
HETATM    1  C   UNL     1      44.330 -12.388   8.260  1.00  0.00     0.255 C 
HETATM    2  N   UNL     1      43.749 -13.405   7.549  1.00  0.00    -0.354 N 
HETATM    3  O   UNL     1      45.528 -12.350   8.520  1.00  0.00    -0.268 OA
HETATM    4  H   UNL     1      42.739 -13.480   7.537  1.00  0.00     0.162 HD
ENDROOT
BRANCH   2   5
HETATM    5  C   UNL     1      44.517 -14.471   6.933  1.00  0.00     0.156 C 
BRANCH   5   6
HETATM    6  C   UNL     1      43.873 -15.850   7.090  1.00  0.00     0.160 C 
BRANCH   6   7
HETATM    7  O   UNL     1      43.613 -16.091   8.484  1.00  0.00    -0.392 OA
HETATM    8  H   UNL     1      44.244 -16.788   8.750  1.00  0.00     0.210 HD
ENDBRANCH   6   7
BRANCH   6   9
HETATM    9  C   UNL     1      44.720 -16.991   6.514  1.00  0.00     0.209 C 
BRANCH   9  10
HETATM   10  O   UNL     1      43.806 -18.049   6.187  1.00  0.00    -0.349 OA
BRANCH  10  11
HETATM   11  C   UNL     1      44.031 -18.727   5.021  1.00  0.00     0.069 A 
HETATM   12  C   UNL     1      43.808 -17.979   3.860  1.00  0.00     0.043 A 
HETATM   13  C   UNL     1      43.997 -18.541   2.591  1.00  0.00    -0.059 A 
HETATM   14  C   UNL     1      43.757 -17.737   1.348  1.00  0.00     0.048 C 
HETATM   15  C   UNL     1      44.400 -19.876   2.496  1.00  0.00     0.007 A 
HETATM   16  C   UNL     1      44.619 -20.629   3.650  1.00  0.00     0.003 A 
HETATM   17  C   UNL     1      44.437 -20.056   4.913  1.00  0.00     0.037 A 
ENDBRANCH  10  11
ENDBRANCH   9  10
ENDBRANCH   6   9
ENDBRANCH   5   6
ENDBRANCH   2   5
BRANCH   1  18
HETATM   18  C   UNL     1      43.398 -11.402   8.755  1.00  0.00     0.075 A 
HETATM   19  C   UNL     1      42.379 -10.806   7.980  1.00  0.00     0.158 A 
HETATM   20  N   UNL     1      41.639  -9.943   8.672  1.00  0.00    -0.183 NA
HETATM   21  N   UNL     1      42.109 -10.053   9.931  1.00  0.00    -0.268 N 
HETATM   22  C   UNL     1      43.218 -10.876  10.029  1.00  0.00     0.052 A 
BRANCH  21  23
HETATM   23  C   UNL     1      41.448  -9.303  10.999  1.00  0.00     0.106 C 
HETATM   24  C   UNL     1      41.465  -7.808  10.676  1.00  0.00     0.034 C 
BRANCH  23  25
HETATM   25  C   UNL     1      40.011  -9.780  11.298  1.00  0.00     0.022 C 
HETATM   26  C   UNL     1      39.962 -11.179  11.899  1.00  0.00     0.007 C 
ENDBRANCH  23  25
ENDBRANCH  21  23
BRANCH  22  27
HETATM   27  C   UNL     1      43.980 -11.144  11.330  1.00  0.00     0.038 A 
HETATM   28  C   UNL     1      43.282 -11.794  12.504  1.00  0.00     0.011 A 
HETATM   29  C   UNL     1      44.325 -12.551  11.755  1.00  0.00     0.011 A 
ENDBRANCH  22  27
ENDBRANCH   1  18
TORSDOF 10
ENDMDL
MODEL 10
REMARK VINA RESULT:      -7.4      6.406      9.107
REMARK  10 active torsions:
REMARK  status: ('A' for Active; 'I' for Inactive)
REMARK    1  A    between atoms: C_2  and  C_3 
REMARK    2  A    between atoms: C_3  and  N_4 
REMARK    3  A    between atoms: C_7  and  C_8 
REMARK       I    between atoms: C_8  and  N_9 
REMARK    4  A    between atoms: N_9  and  C_10 
REMARK    5  A    between atoms: C_10  and  C_11 
REMARK    6  A    between atoms: C_11  and  O_12 
REMARK    7  A    between atoms: C_11  and  C_13 
REMARK    8  A    between atoms: C_13  and  O_14 
REMARK    9  A    between atoms: O_14  and  C_15 
REMARK   10  A    between atoms: C_23  and  C_24 
ROOT
HETATM    1  C   UNL     1      41.867 -14.479   3.113  1.00  0.00     0.255 C 
HETATM    2  N   UNL     1      42.999 -15.199   3.392  1.00  0.00    -0.354 N 
HETATM    3  O   UNL     1      40.935 -14.362   3.901  1.00  0.00    -0.268 OA
HETATM    4  H   UNL     1      43.637 -15.420   2.638  1.00  0.00     0.162 HD
ENDROOT
BRANCH   2   5
HETATM    5  C   UNL     1      43.252 -15.791   4.692  1.00  0.00     0.156 C 
BRANCH   5   6
HETATM    6  C   UNL     1      42.628 -17.179   4.858  1.00  0.00     0.160 C 
BRANCH   6   7
HETATM    7  O   UNL     1      41.349 -17.045   5.504  1.00  0.00    -0.392 OA
HETATM    8  H   UNL     1      40.729 -16.770   4.802  1.00  0.00     0.210 HD
ENDBRANCH   6   7
BRANCH   6   9
HETATM    9  C   UNL     1      43.508 -18.156   5.645  1.00  0.00     0.209 C 
BRANCH   9  10
HETATM   10  O   UNL     1      44.527 -18.605   4.737  1.00  0.00    -0.349 OA
BRANCH  10  11
HETATM   11  C   UNL     1      44.568 -19.944   4.461  1.00  0.00     0.069 A 
HETATM   12  C   UNL     1      44.313 -20.270   3.126  1.00  0.00     0.043 A 
HETATM   13  C   UNL     1      44.321 -21.603   2.693  1.00  0.00    -0.059 A 
HETATM   14  C   UNL     1      44.048 -21.951   1.260  1.00  0.00     0.048 C 
HETATM   15  C   UNL     1      44.574 -22.614   3.625  1.00  0.00     0.007 A 
HETATM   16  C   UNL     1      44.823 -22.295   4.960  1.00  0.00     0.003 A 
HETATM   17  C   UNL     1      44.822 -20.961   5.380  1.00  0.00     0.037 A 
ENDBRANCH  10  11
ENDBRANCH   9  10
ENDBRANCH   6   9
ENDBRANCH   5   6
ENDBRANCH   2   5
BRANCH   1  18
HETATM   18  C   UNL     1      41.824 -13.935   1.776  1.00  0.00     0.075 A 
HETATM   19  C   UNL     1      42.044 -12.577   1.458  1.00  0.00     0.158 A 
HETATM   20  N   UNL     1      41.971 -12.332   0.152  1.00  0.00    -0.183 NA
HETATM   21  N   UNL     1      41.807 -13.553  -0.396  1.00  0.00    -0.268 N 
HETATM   22  C   UNL     1      41.647 -14.556   0.544  1.00  0.00     0.052 A 
BRANCH  21  23
HETATM   23  C   UNL     1      41.785 -13.674  -1.854  1.00  0.00     0.106 C 
HETATM   24  C   UNL     1      40.375 -13.402  -2.380  1.00  0.00     0.034 C 
BRANCH  23  25
HETATM   25  C   UNL     1      42.817 -12.778  -2.570  1.00  0.00     0.022 C 
HETATM   26  C   UNL     1      42.186 -11.858  -3.608  1.00  0.00     0.007 C 
ENDBRANCH  23  25
ENDBRANCH  21  23
BRANCH  22  27
HETATM   27  C   UNL     1      41.401 -16.027   0.201  1.00  0.00     0.038 A 
HETATM   28  C   UNL     1      42.367 -17.093   0.667  1.00  0.00     0.011 A 
HETATM   29  C   UNL     1      41.005 -17.021   1.267  1.00  0.00     0.011 A 
ENDBRANCH  22  27
ENDBRANCH   1  18
TORSDOF 10
ENDMDL
