MODEL 1
REMARK VINA RESULT:      -8.8      0.000      0.000
REMARK  8 active torsions:
REMARK  status: ('A' for Active; 'I' for Inactive)
REMARK    1  A    between atoms: C_2  and  N_3 
REMARK    2  A    between atoms: C_2  and  C_23 
REMARK       I    between atoms: N_3  and  C_4 
REMARK    3  A    between atoms: N_3  and  C_16 
REMARK    4  A    between atoms: C_4  and  C_5 
REMARK    5  A    between atoms: C_5  and  N_6 
REMARK    6  A    between atoms: C_16  and  C_17 
REMARK       I    between atoms: C_23  and  N_24 
REMARK    7  A    between atoms: N_24  and  C_25 
REMARK    8  A    between atoms: C_28  and  O_29 
ROOT
HETATM    1  N   UNL     1      41.827 -14.507   2.657  1.00  0.00    -0.333 N 
HETATM    2  C   UNL     1      42.779 -13.886   3.467  1.00  0.00     0.240 C 
HETATM    3  O   UNL     1      43.929 -13.691   3.061  1.00  0.00    -0.271 OA
ENDROOT
BRANCH   1   4
HETATM    4  C   UNL     1      42.347 -15.223   1.457  1.00  0.00     0.176 C 
HETATM    5  C   UNL     1      41.668 -14.753   0.167  1.00  0.00     0.042 C 
BRANCH   4   6
HETATM    6  C   UNL     1      42.357 -16.769   1.581  1.00  0.00     0.244 C 
HETATM    7  N   UNL     1      43.508 -17.250   2.188  1.00  0.00    -0.325 N 
HETATM    8  H   UNL     1      44.211 -16.556   2.410  1.00  0.00     0.169 HD
HETATM    9  O   UNL     1      41.502 -17.460   1.030  1.00  0.00    -0.271 OA
BRANCH   7  10
HETATM   10  C   UNL     1      43.811 -18.589   2.502  1.00  0.00     0.035 A 
HETATM   11  C   UNL     1      44.354 -18.850   3.763  1.00  0.00     0.032 A 
HETATM   12  C   UNL     1      44.644 -20.162   4.152  1.00  0.00     0.039 A 
HETATM   13  C   UNL     1      44.381 -21.233   3.297  1.00  0.00     0.068 A 
HETATM   14  C   UNL     1      43.849 -20.975   2.035  1.00  0.00     0.039 A 
HETATM   15  C   UNL     1      43.567 -19.659   1.641  1.00  0.00     0.032 A 
BRANCH  13  16
HETATM   16  O   UNL     1      44.688 -22.466   3.801  1.00  0.00    -0.356 OA
HETATM   17  C   UNL     1      45.117 -22.508   5.157  1.00  0.00     0.210 C 
ENDBRANCH  13  16
ENDBRANCH   7  10
ENDBRANCH   4   6
ENDBRANCH   1   4
BRANCH   1  18
HETATM   18  C   UNL     1      40.476 -14.868   3.113  1.00  0.00     0.165 C 
BRANCH  18  19
HETATM   19  C   UNL     1      39.389 -14.116   2.383  1.00  0.00    -0.040 A 
HETATM   20  C   UNL     1      38.493 -14.795   1.543  1.00  0.00     0.009 A 
HETATM   21  C   UNL     1      37.515 -14.098   0.835  1.00  0.00     0.001 A 
HETATM   22  C   UNL     1      37.413 -12.715   0.966  1.00  0.00     0.000 A 
HETATM   23  C   UNL     1      38.284 -12.029   1.811  1.00  0.00     0.001 A 
HETATM   24  C   UNL     1      39.265 -12.725   2.518  1.00  0.00     0.009 A 
ENDBRANCH  18  19
ENDBRANCH   1  18
BRANCH   2  25
HETATM   25  C   UNL     1      42.440 -13.474   4.879  1.00  0.00     0.250 C 
BRANCH  25  26
HETATM   26  N   UNL     1      43.058 -14.279   5.906  1.00  0.00    -0.263 N 
HETATM   27  N   UNL     1      43.972 -13.693   6.708  1.00  0.00     0.006 NA
HETATM   28  N   UNL     1      44.391 -14.603   7.575  1.00  0.00    -0.158 NA
HETATM   29  C   UNL     1      43.728 -15.770   7.316  1.00  0.00     0.102 A 
HETATM   30  C   UNL     1      42.857 -15.591   6.244  1.00  0.00     0.079 A 
HETATM   31  C   UNL     1      43.817 -17.021   7.942  1.00  0.00     0.035 A 
HETATM   32  C   UNL     1      42.043 -16.620   5.756  1.00  0.00     0.033 A 
HETATM   33  C   UNL     1      42.154 -17.867   6.385  1.00  0.00     0.002 A 
HETATM   34  C   UNL     1      43.024 -18.067   7.459  1.00  0.00     0.002 A 
ENDBRANCH  25  26
ENDBRANCH   2  25
TORSDOF 8
ENDMDL
MODEL 2
REMARK VINA RESULT:      -8.6      2.406      7.079
REMARK  8 active torsions:
REMARK  status: ('A' for Active; 'I' for Inactive)
REMARK    1  A    between atoms: C_2  and  N_3 
REMARK    2  A    between atoms: C_2  and  C_23 
REMARK       I    between atoms: N_3  and  C_4 
REMARK    3  A    between atoms: N_3  and  C_16 
REMARK    4  A    between atoms: C_4  and  C_5 
REMARK    5  A    between atoms: C_5  and  N_6 
REMARK    6  A    between atoms: C_16  and  C_17 
REMARK       I    between atoms: C_23  and  N_24 
REMARK    7  A    between atoms: N_24  and  C_25 
REMARK    8  A    between atoms: C_28  and  O_29 
ROOT
HETATM    1  N   UNL     1      42.039 -17.900   3.334  1.00  0.00    -0.333 N 
HETATM    2  C   UNL     1      41.685 -18.040   4.677  1.00  0.00     0.240 C 
HETATM    3  O   UNL     1      40.543 -17.771   5.065  1.00  0.00    -0.271 OA
ENDROOT
BRANCH   1   4
HETATM    4  C   UNL     1      41.112 -17.095   2.488  1.00  0.00     0.176 C 
HETATM    5  C   UNL     1      41.340 -17.339   0.993  1.00  0.00     0.042 C 
BRANCH   4   6
HETATM    6  C   UNL     1      41.070 -15.583   2.833  1.00  0.00     0.244 C 
HETATM    7  N   UNL     1      40.074 -15.270   3.747  1.00  0.00    -0.325 N 
HETATM    8  H   UNL     1      39.471 -16.036   4.020  1.00  0.00     0.169 HD
HETATM    9  O   UNL     1      41.744 -14.766   2.208  1.00  0.00    -0.271 OA
BRANCH   7  10
HETATM   10  C   UNL     1      39.800 -14.010   4.311  1.00  0.00     0.035 A 
HETATM   11  C   UNL     1      40.087 -13.832   5.667  1.00  0.00     0.032 A 
HETATM   12  C   UNL     1      39.872 -12.594   6.282  1.00  0.00     0.039 A 
HETATM   13  C   UNL     1      39.386 -11.511   5.548  1.00  0.00     0.068 A 
HETATM   14  C   UNL     1      39.089 -11.686   4.199  1.00  0.00     0.039 A 
HETATM   15  C   UNL     1      39.296 -12.931   3.585  1.00  0.00     0.032 A 
BRANCH  13  16
HETATM   16  O   UNL     1      39.240 -10.350   6.257  1.00  0.00    -0.356 OA
HETATM   17  C   UNL     1      39.560 -10.408   7.642  1.00  0.00     0.210 C 
ENDBRANCH  13  16
ENDBRANCH   7  10
ENDBRANCH   4   6
ENDBRANCH   1   4
BRANCH   1  18
HETATM   18  C   UNL     1      43.405 -18.095   2.824  1.00  0.00     0.165 C 
BRANCH  18  19
HETATM   19  C   UNL     1      43.806 -19.550   2.763  1.00  0.00    -0.040 A 
HETATM   20  C   UNL     1      43.313 -20.383   1.747  1.00  0.00     0.009 A 
HETATM   21  C   UNL     1      43.648 -21.736   1.713  1.00  0.00     0.001 A 
HETATM   22  C   UNL     1      44.488 -22.271   2.686  1.00  0.00     0.000 A 
HETATM   23  C   UNL     1      45.001 -21.452   3.690  1.00  0.00     0.001 A 
HETATM   24  C   UNL     1      44.664 -20.098   3.728  1.00  0.00     0.009 A 
ENDBRANCH  18  19
ENDBRANCH   1  18
BRANCH   2  25
HETATM   25  C   UNL     1      42.702 -18.483   5.701  1.00  0.00     0.250 C 
BRANCH  25  26
HETATM   26  N   UNL     1      43.138 -17.445   6.605  1.00  0.00    -0.263 N 
HETATM   27  N   UNL     1      43.263 -17.754   7.912  1.00  0.00     0.006 NA
HETATM   28  N   UNL     1      43.685 -16.668   8.544  1.00  0.00    -0.158 NA
HETATM   29  C   UNL     1      43.830 -15.671   7.621  1.00  0.00     0.102 A 
HETATM   30  C   UNL     1      43.487 -16.143   6.357  1.00  0.00     0.079 A 
HETATM   31  C   UNL     1      44.241 -14.341   7.781  1.00  0.00     0.035 A 
HETATM   32  C   UNL     1      43.541 -15.340   5.213  1.00  0.00     0.033 A 
HETATM   33  C   UNL     1      43.942 -14.010   5.392  1.00  0.00     0.002 A 
HETATM   34  C   UNL     1      44.287 -13.515   6.653  1.00  0.00     0.002 A 
ENDBRANCH  25  26
ENDBRANCH   2  25
TORSDOF 8
ENDMDL
MODEL 3
REMARK VINA RESULT:      -8.2      2.917      6.377
REMARK  8 active torsions:
REMARK  status: ('A' for Active; 'I' for Inactive)
REMARK    1  A    between atoms: C_2  and  N_3 
REMARK    2  A    between atoms: C_2  and  C_23 
REMARK       I    between atoms: N_3  and  C_4 
REMARK    3  A    between atoms: N_3  and  C_16 
REMARK    4  A    between atoms: C_4  and  C_5 
REMARK    5  A    between atoms: C_5  and  N_6 
REMARK    6  A    between atoms: C_16  and  C_17 
REMARK       I    between atoms: C_23  and  N_24 
REMARK    7  A    between atoms: N_24  and  C_25 
REMARK    8  A    between atoms: C_28  and  O_29 
ROOT
HETATM    1  N   UNL     1      41.799 -14.948   2.563  1.00  0.00    -0.333 N 
HETATM    2  C   UNL     1      42.825 -15.654   3.194  1.00  0.00     0.240 C 
HETATM    3  O   UNL     1      43.986 -15.596   2.777  1.00  0.00    -0.271 OA
ENDROOT
BRANCH   1   4
HETATM    4  C   UNL     1      42.097 -14.431   1.197  1.00  0.00     0.176 C 
HETATM    5  C   UNL     1      42.004 -12.905   1.126  1.00  0.00     0.042 C 
BRANCH   4   6
HETATM    6  C   UNL     1      41.297 -15.118   0.058  1.00  0.00     0.244 C 
HETATM    7  N   UNL     1      40.465 -14.238  -0.618  1.00  0.00    -0.325 N 
HETATM    8  H   UNL     1      40.434 -13.294  -0.254  1.00  0.00     0.169 HD
HETATM    9  O   UNL     1      41.300 -16.341  -0.077  1.00  0.00    -0.271 OA
BRANCH   7  10
HETATM   10  C   UNL     1      39.650 -14.520  -1.731  1.00  0.00     0.035 A 
HETATM   11  C   UNL     1      38.334 -14.052  -1.704  1.00  0.00     0.032 A 
HETATM   12  C   UNL     1      37.482 -14.267  -2.792  1.00  0.00     0.039 A 
HETATM   13  C   UNL     1      37.936 -14.936  -3.930  1.00  0.00     0.068 A 
HETATM   14  C   UNL     1      39.244 -15.412  -3.957  1.00  0.00     0.039 A 
HETATM   15  C   UNL     1      40.096 -15.205  -2.862  1.00  0.00     0.032 A 
BRANCH  13  16
HETATM   16  O   UNL     1      37.015 -15.063  -4.933  1.00  0.00    -0.356 OA
HETATM   17  C   UNL     1      35.880 -14.208  -4.865  1.00  0.00     0.210 C 
ENDBRANCH  13  16
ENDBRANCH   7  10
ENDBRANCH   4   6
ENDBRANCH   1   4
BRANCH   1  18
HETATM   18  C   UNL     1      40.381 -15.058   2.938  1.00  0.00     0.165 C 
BRANCH  18  19
HETATM   19  C   UNL     1      39.923 -13.934   3.837  1.00  0.00    -0.040 A 
HETATM   20  C   UNL     1      39.341 -12.779   3.293  1.00  0.00     0.009 A 
HETATM   21  C   UNL     1      38.956 -11.722   4.117  1.00  0.00     0.001 A 
HETATM   22  C   UNL     1      39.136 -11.810   5.495  1.00  0.00     0.000 A 
HETATM   23  C   UNL     1      39.696 -12.959   6.051  1.00  0.00     0.001 A 
HETATM   24  C   UNL     1      40.085 -14.018   5.228  1.00  0.00     0.009 A 
ENDBRANCH  18  19
ENDBRANCH   1  18
BRANCH   2  25
HETATM   25  C   UNL     1      42.535 -16.540   4.381  1.00  0.00     0.250 C 
BRANCH  25  26
HETATM   26  N   UNL     1      43.414 -17.680   4.508  1.00  0.00    -0.263 N 
HETATM   27  N   UNL     1      44.210 -17.748   5.596  1.00  0.00     0.006 NA
HETATM   28  N   UNL     1      44.910 -18.870   5.513  1.00  0.00    -0.158 NA
HETATM   29  C   UNL     1      44.543 -19.514   4.365  1.00  0.00     0.102 A 
HETATM   30  C   UNL     1      43.575 -18.770   3.694  1.00  0.00     0.079 A 
HETATM   31  C   UNL     1      44.991 -20.726   3.823  1.00  0.00     0.035 A 
HETATM   32  C   UNL     1      43.010 -19.187   2.484  1.00  0.00     0.033 A 
HETATM   33  C   UNL     1      43.478 -20.395   1.950  1.00  0.00     0.002 A 
HETATM   34  C   UNL     1      44.452 -21.153   2.605  1.00  0.00     0.002 A 
ENDBRANCH  25  26
ENDBRANCH   2  25
TORSDOF 8
ENDMDL
MODEL 4
REMARK VINA RESULT:      -8.0      2.610      6.217
REMARK  8 active torsions:
REMARK  status: ('A' for Active; 'I' for Inactive)
REMARK    1  A    between atoms: C_2  and  N_3 
REMARK    2  A    between atoms: C_2  and  C_23 
REMARK       I    between atoms: N_3  and  C_4 
REMARK    3  A    between atoms: N_3  and  C_16 
REMARK    4  A    between atoms: C_4  and  C_5 
REMARK    5  A    between atoms: C_5  and  N_6 
REMARK    6  A    between atoms: C_16  and  C_17 
REMARK       I    between atoms: C_23  and  N_24 
REMARK    7  A    between atoms: N_24  and  C_25 
REMARK    8  A    between atoms: C_28  and  O_29 
ROOT
HETATM    1  N   UNL     1      40.762 -14.902   1.767  1.00  0.00    -0.333 N 
HETATM    2  C   UNL     1      39.611 -14.197   2.123  1.00  0.00     0.240 C 
HETATM    3  O   UNL     1      39.542 -13.595   3.199  1.00  0.00    -0.271 OA
ENDROOT
BRANCH   1   4
HETATM    4  C   UNL     1      41.730 -15.183   2.866  1.00  0.00     0.176 C 
HETATM    5  C   UNL     1      43.084 -14.509   2.627  1.00  0.00     0.042 C 
BRANCH   4   6
HETATM    6  C   UNL     1      41.882 -16.686   3.224  1.00  0.00     0.244 C 
HETATM    7  N   UNL     1      43.044 -17.243   2.714  1.00  0.00    -0.325 N 
HETATM    8  H   UNL     1      43.605 -16.635   2.131  1.00  0.00     0.169 HD
HETATM    9  O   UNL     1      40.963 -17.312   3.750  1.00  0.00    -0.271 OA
BRANCH   7  10
HETATM   10  C   UNL     1      43.512 -18.558   2.898  1.00  0.00     0.035 A 
HETATM   11  C   UNL     1      44.019 -18.894   4.157  1.00  0.00     0.032 A 
HETATM   12  C   UNL     1      44.466 -20.193   4.417  1.00  0.00     0.039 A 
HETATM   13  C   UNL     1      44.398 -21.180   3.434  1.00  0.00     0.068 A 
HETATM   14  C   UNL     1      43.902 -20.847   2.175  1.00  0.00     0.039 A 
HETATM   15  C   UNL     1      43.462 -19.542   1.910  1.00  0.00     0.032 A 
BRANCH  13  16
HETATM   16  O   UNL     1      44.845 -22.414   3.818  1.00  0.00    -0.356 OA
HETATM   17  C   UNL     1      45.322 -22.528   5.154  1.00  0.00     0.210 C 
ENDBRANCH  13  16
ENDBRANCH   7  10
ENDBRANCH   4   6
ENDBRANCH   1   4
BRANCH   1  18
HETATM   18  C   UNL     1      40.872 -15.729   0.556  1.00  0.00     0.165 C 
BRANCH  18  19
HETATM   19  C   UNL     1      41.234 -14.927  -0.672  1.00  0.00    -0.040 A 
HETATM   20  C   UNL     1      41.713 -13.614  -0.550  1.00  0.00     0.009 A 
HETATM   21  C   UNL     1      42.007 -12.856  -1.683  1.00  0.00     0.001 A 
HETATM   22  C   UNL     1      41.838 -13.405  -2.952  1.00  0.00     0.000 A 
HETATM   23  C   UNL     1      41.380 -14.715  -3.088  1.00  0.00     0.001 A 
HETATM   24  C   UNL     1      41.082 -15.473  -1.955  1.00  0.00     0.009 A 
ENDBRANCH  18  19
ENDBRANCH   1  18
BRANCH   2  25
HETATM   25  C   UNL     1      38.402 -14.187   1.219  1.00  0.00     0.250 C 
BRANCH  25  26
HETATM   26  N   UNL     1      38.372 -13.100   0.268  1.00  0.00    -0.263 N 
HETATM   27  N   UNL     1      38.626 -11.854   0.721  1.00  0.00     0.006 NA
HETATM   28  N   UNL     1      38.562 -11.028  -0.313  1.00  0.00    -0.158 NA
HETATM   29  C   UNL     1      38.271 -11.766  -1.426  1.00  0.00     0.102 A 
HETATM   30  C   UNL     1      38.145 -13.110  -1.083  1.00  0.00     0.079 A 
HETATM   31  C   UNL     1      38.091 -11.366  -2.757  1.00  0.00     0.035 A 
HETATM   32  C   UNL     1      37.850 -14.103  -2.023  1.00  0.00     0.033 A 
HETATM   33  C   UNL     1      37.661 -13.684  -3.347  1.00  0.00     0.002 A 
HETATM   34  C   UNL     1      37.778 -12.341  -3.711  1.00  0.00     0.002 A 
ENDBRANCH  25  26
ENDBRANCH   2  25
TORSDOF 8
ENDMDL
MODEL 5
REMARK VINA RESULT:      -8.0      2.824      6.656
REMARK  8 active torsions:
REMARK  status: ('A' for Active; 'I' for Inactive)
REMARK    1  A    between atoms: C_2  and  N_3 
REMARK    2  A    between atoms: C_2  and  C_23 
REMARK       I    between atoms: N_3  and  C_4 
REMARK    3  A    between atoms: N_3  and  C_16 
REMARK    4  A    between atoms: C_4  and  C_5 
REMARK    5  A    between atoms: C_5  and  N_6 
REMARK    6  A    between atoms: C_16  and  C_17 
REMARK       I    between atoms: C_23  and  N_24 
REMARK    7  A    between atoms: N_24  and  C_25 
REMARK    8  A    between atoms: C_28  and  O_29 
ROOT
HETATM    1  N   UNL     1      41.752 -15.009   2.683  1.00  0.00    -0.333 N 
HETATM    2  C   UNL     1      41.381 -14.055   3.632  1.00  0.00     0.240 C 
HETATM    3  O   UNL     1      40.192 -13.784   3.829  1.00  0.00    -0.271 OA
ENDROOT
BRANCH   1   4
HETATM    4  C   UNL     1      40.703 -15.407   1.701  1.00  0.00     0.176 C 
HETATM    5  C   UNL     1      40.245 -16.854   1.902  1.00  0.00     0.042 C 
BRANCH   4   6
HETATM    6  C   UNL     1      41.057 -15.107   0.220  1.00  0.00     0.244 C 
HETATM    7  N   UNL     1      40.897 -13.768  -0.108  1.00  0.00    -0.325 N 
HETATM    8  H   UNL     1      40.517 -13.179   0.622  1.00  0.00     0.169 HD
HETATM    9  O   UNL     1      41.277 -16.014  -0.580  1.00  0.00    -0.271 OA
BRANCH   7  10
HETATM   10  C   UNL     1      41.182 -13.153  -1.342  1.00  0.00     0.035 A 
HETATM   11  C   UNL     1      42.404 -12.486  -1.465  1.00  0.00     0.032 A 
HETATM   12  C   UNL     1      42.764 -11.884  -2.675  1.00  0.00     0.039 A 
HETATM   13  C   UNL     1      41.919 -11.953  -3.784  1.00  0.00     0.068 A 
HETATM   14  C   UNL     1      40.696 -12.608  -3.662  1.00  0.00     0.039 A 
HETATM   15  C   UNL     1      40.330 -13.204  -2.446  1.00  0.00     0.032 A 
BRANCH  13  16
HETATM   16  O   UNL     1      42.393 -11.345  -4.913  1.00  0.00    -0.356 OA
HETATM   17  C   UNL     1      41.588 -10.307  -5.460  1.00  0.00     0.210 C 
ENDBRANCH  13  16
ENDBRANCH   7  10
ENDBRANCH   4   6
ENDBRANCH   1   4
BRANCH   1  18
HETATM   18  C   UNL     1      43.147 -15.301   2.319  1.00  0.00     0.165 C 
BRANCH  18  19
HETATM   19  C   UNL     1      43.497 -16.764   2.457  1.00  0.00    -0.040 A 
HETATM   20  C   UNL     1      43.743 -17.548   1.320  1.00  0.00     0.009 A 
HETATM   21  C   UNL     1      44.024 -18.909   1.442  1.00  0.00     0.001 A 
HETATM   22  C   UNL     1      44.073 -19.500   2.702  1.00  0.00     0.000 A 
HETATM   23  C   UNL     1      43.849 -18.730   3.842  1.00  0.00     0.001 A 
HETATM   24  C   UNL     1      43.565 -17.368   3.722  1.00  0.00     0.009 A 
ENDBRANCH  18  19
ENDBRANCH   1  18
BRANCH   2  25
HETATM   25  C   UNL     1      42.426 -13.298   4.414  1.00  0.00     0.250 C 
BRANCH  25  26
HETATM   26  N   UNL     1      43.147 -14.094   5.381  1.00  0.00    -0.263 N 
HETATM   27  N   UNL     1      44.394 -13.704   5.719  1.00  0.00     0.006 NA
HETATM   28  N   UNL     1      44.853 -14.560   6.621  1.00  0.00    -0.158 NA
HETATM   29  C   UNL     1      43.880 -15.492   6.852  1.00  0.00     0.102 A 
HETATM   30  C   UNL     1      42.763 -15.215   6.067  1.00  0.00     0.079 A 
HETATM   31  C   UNL     1      43.875 -16.603   7.708  1.00  0.00     0.035 A 
HETATM   32  C   UNL     1      41.609 -16.005   6.097  1.00  0.00     0.033 A 
HETATM   33  C   UNL     1      41.624 -17.118   6.948  1.00  0.00     0.002 A 
HETATM   34  C   UNL     1      42.736 -17.415   7.740  1.00  0.00     0.002 A 
ENDBRANCH  25  26
ENDBRANCH   2  25
TORSDOF 8
ENDMDL
MODEL 6
REMARK VINA RESULT:      -8.0      2.531      8.325
REMARK  8 active torsions:
REMARK  status: ('A' for Active; 'I' for Inactive)
REMARK    1  A    between atoms: C_2  and  N_3 
REMARK    2  A    between atoms: C_2  and  C_23 
REMARK       I    between atoms: N_3  and  C_4 
REMARK    3  A    between atoms: N_3  and  C_16 
REMARK    4  A    between atoms: C_4  and  C_5 
REMARK    5  A    between atoms: C_5  and  N_6 
REMARK    6  A    between atoms: C_16  and  C_17 
REMARK       I    between atoms: C_23  and  N_24 
REMARK    7  A    between atoms: N_24  and  C_25 
REMARK    8  A    between atoms: C_28  and  O_29 
ROOT
HETATM    1  N   UNL     1      42.690 -16.087   3.763  1.00  0.00    -0.333 N 
HETATM    2  C   UNL     1      42.998 -15.342   2.623  1.00  0.00     0.240 C 
HETATM    3  O   UNL     1      43.531 -14.232   2.715  1.00  0.00    -0.271 OA
ENDROOT
BRANCH   1   4
HETATM    4  C   UNL     1      42.703 -15.348   5.058  1.00  0.00     0.176 C 
HETATM    5  C   UNL     1      43.015 -16.268   6.242  1.00  0.00     0.042 C 
BRANCH   4   6
HETATM    6  C   UNL     1      41.449 -14.472   5.315  1.00  0.00     0.244 C 
HETATM    7  N   UNL     1      41.576 -13.191   4.797  1.00  0.00    -0.325 N 
HETATM    8  H   UNL     1      42.473 -12.971   4.383  1.00  0.00     0.169 HD
HETATM    9  O   UNL     1      40.543 -14.854   6.053  1.00  0.00    -0.271 OA
BRANCH   7  10
HETATM   10  C   UNL     1      40.609 -12.168   4.807  1.00  0.00     0.035 A 
HETATM   11  C   UNL     1      39.629 -12.195   3.811  1.00  0.00     0.032 A 
HETATM   12  C   UNL     1      38.618 -11.228   3.784  1.00  0.00     0.039 A 
HETATM   13  C   UNL     1      38.560 -10.233   4.760  1.00  0.00     0.068 A 
HETATM   14  C   UNL     1      39.541 -10.196   5.748  1.00  0.00     0.039 A 
HETATM   15  C   UNL     1      40.559 -11.160   5.770  1.00  0.00     0.032 A 
BRANCH  13  16
HETATM   16  O   UNL     1      37.513  -9.361   4.637  1.00  0.00    -0.356 OA
HETATM   17  C   UNL     1      36.895  -9.289   3.358  1.00  0.00     0.210 C 
ENDBRANCH  13  16
ENDBRANCH   7  10
ENDBRANCH   4   6
ENDBRANCH   1   4
BRANCH   1  18
HETATM   18  C   UNL     1      41.958 -17.363   3.732  1.00  0.00     0.165 C 
BRANCH  18  19
HETATM   19  C   UNL     1      42.845 -18.541   3.408  1.00  0.00    -0.040 A 
HETATM   20  C   UNL     1      43.799 -18.991   4.333  1.00  0.00     0.009 A 
HETATM   21  C   UNL     1      44.648 -20.052   4.020  1.00  0.00     0.001 A 
HETATM   22  C   UNL     1      44.548 -20.683   2.782  1.00  0.00     0.000 A 
HETATM   23  C   UNL     1      43.593 -20.258   1.859  1.00  0.00     0.001 A 
HETATM   24  C   UNL     1      42.744 -19.195   2.171  1.00  0.00     0.009 A 
ENDBRANCH  18  19
ENDBRANCH   1  18
BRANCH   2  25
HETATM   25  C   UNL     1      42.649 -15.856   1.248  1.00  0.00     0.250 C 
BRANCH  25  26
HETATM   26  N   UNL     1      41.658 -15.074   0.547  1.00  0.00    -0.263 N 
HETATM   27  N   UNL     1      42.041 -14.416  -0.567  1.00  0.00     0.006 NA
HETATM   28  N   UNL     1      40.980 -13.785  -1.048  1.00  0.00    -0.158 NA
HETATM   29  C   UNL     1      39.920 -14.055  -0.229  1.00  0.00     0.102 A 
HETATM   30  C   UNL     1      40.326 -14.889   0.810  1.00  0.00     0.079 A 
HETATM   31  C   UNL     1      38.588 -13.625  -0.299  1.00  0.00     0.035 A 
HETATM   32  C   UNL     1      39.448 -15.334   1.804  1.00  0.00     0.033 A 
HETATM   33  C   UNL     1      38.124 -14.885   1.727  1.00  0.00     0.002 A 
HETATM   34  C   UNL     1      37.697 -14.045   0.695  1.00  0.00     0.002 A 
ENDBRANCH  25  26
ENDBRANCH   2  25
TORSDOF 8
ENDMDL
MODEL 7
REMARK VINA RESULT:      -7.8      2.715      6.587
REMARK  8 active torsions:
REMARK  status: ('A' for Active; 'I' for Inactive)
REMARK    1  A    between atoms: C_2  and  N_3 
REMARK    2  A    between atoms: C_2  and  C_23 
REMARK       I    between atoms: N_3  and  C_4 
REMARK    3  A    between atoms: N_3  and  C_16 
REMARK    4  A    between atoms: C_4  and  C_5 
REMARK    5  A    between atoms: C_5  and  N_6 
REMARK    6  A    between atoms: C_16  and  C_17 
REMARK       I    between atoms: C_23  and  N_24 
REMARK    7  A    between atoms: N_24  and  C_25 
REMARK    8  A    between atoms: C_28  and  O_29 
ROOT
HETATM    1  N   UNL     1      40.540 -15.078   1.292  1.00  0.00    -0.333 N 
HETATM    2  C   UNL     1      40.905 -16.390   1.599  1.00  0.00     0.240 C 
HETATM    3  O   UNL     1      40.088 -17.179   2.085  1.00  0.00    -0.271 OA
ENDROOT
BRANCH   1   4
HETATM    4  C   UNL     1      39.267 -14.588   1.894  1.00  0.00     0.176 C 
HETATM    5  C   UNL     1      38.198 -14.313   0.833  1.00  0.00     0.042 C 
BRANCH   4   6
HETATM    6  C   UNL     1      39.433 -13.398   2.877  1.00  0.00     0.244 C 
HETATM    7  N   UNL     1      39.827 -13.803   4.144  1.00  0.00    -0.325 N 
HETATM    8  H   UNL     1      39.893 -14.802   4.286  1.00  0.00     0.169 HD
HETATM    9  O   UNL     1      39.073 -12.263   2.572  1.00  0.00    -0.271 OA
BRANCH   7  10
HETATM   10  C   UNL     1      40.119 -12.980   5.249  1.00  0.00     0.035 A 
HETATM   11  C   UNL     1      41.397 -12.419   5.318  1.00  0.00     0.032 A 
HETATM   12  C   UNL     1      41.740 -11.565   6.371  1.00  0.00     0.039 A 
HETATM   13  C   UNL     1      40.808 -11.243   7.359  1.00  0.00     0.068 A 
HETATM   14  C   UNL     1      39.536 -11.808   7.300  1.00  0.00     0.039 A 
HETATM   15  C   UNL     1      39.196 -12.673   6.249  1.00  0.00     0.032 A 
BRANCH  13  16
HETATM   16  O   UNL     1      41.258 -10.381   8.321  1.00  0.00    -0.356 OA
HETATM   17  C   UNL     1      42.534 -10.667   8.883  1.00  0.00     0.210 C 
ENDBRANCH  13  16
ENDBRANCH   7  10
ENDBRANCH   4   6
ENDBRANCH   1   4
BRANCH   1  18
HETATM   18  C   UNL     1      41.487 -14.057   0.815  1.00  0.00     0.165 C 
BRANCH  18  19
HETATM   19  C   UNL     1      41.542 -13.965  -0.691  1.00  0.00    -0.040 A 
HETATM   20  C   UNL     1      42.129 -12.855  -1.317  1.00  0.00     0.009 A 
HETATM   21  C   UNL     1      42.143 -12.748  -2.707  1.00  0.00     0.001 A 
HETATM   22  C   UNL     1      41.581 -13.753  -3.490  1.00  0.00     0.000 A 
HETATM   23  C   UNL     1      41.011 -14.871  -2.883  1.00  0.00     0.001 A 
HETATM   24  C   UNL     1      40.993 -14.979  -1.491  1.00  0.00     0.009 A 
ENDBRANCH  18  19
ENDBRANCH   1  18
BRANCH   2  25
HETATM   25  C   UNL     1      42.320 -16.868   1.383  1.00  0.00     0.250 C 
BRANCH  25  26
HETATM   26  N   UNL     1      42.957 -17.411   2.560  1.00  0.00    -0.263 N 
HETATM   27  N   UNL     1      43.034 -16.629   3.657  1.00  0.00     0.006 NA
HETATM   28  N   UNL     1      43.635 -17.328   4.609  1.00  0.00    -0.158 NA
HETATM   29  C   UNL     1      43.931 -18.562   4.104  1.00  0.00     0.102 A 
HETATM   30  C   UNL     1      43.502 -18.648   2.782  1.00  0.00     0.079 A 
HETATM   31  C   UNL     1      44.567 -19.658   4.704  1.00  0.00     0.035 A 
HETATM   32  C   UNL     1      43.671 -19.802   2.009  1.00  0.00     0.033 A 
HETATM   33  C   UNL     1      44.320 -20.883   2.619  1.00  0.00     0.002 A 
HETATM   34  C   UNL     1      44.762 -20.816   3.943  1.00  0.00     0.002 A 
ENDBRANCH  25  26
ENDBRANCH   2  25
TORSDOF 8
ENDMDL
MODEL 8
REMARK VINA RESULT:      -7.7      3.543      7.666
REMARK  8 active torsions:
REMARK  status: ('A' for Active; 'I' for Inactive)
REMARK    1  A    between atoms: C_2  and  N_3 
REMARK    2  A    between atoms: C_2  and  C_23 
REMARK       I    between atoms: N_3  and  C_4 
REMARK    3  A    between atoms: N_3  and  C_16 
REMARK    4  A    between atoms: C_4  and  C_5 
REMARK    5  A    between atoms: C_5  and  N_6 
REMARK    6  A    between atoms: C_16  and  C_17 
REMARK       I    between atoms: C_23  and  N_24 
REMARK    7  A    between atoms: N_24  and  C_25 
REMARK    8  A    between atoms: C_28  and  O_29 
ROOT
HETATM    1  N   UNL     1      40.740 -14.433   1.052  1.00  0.00    -0.333 N 
HETATM    2  C   UNL     1      40.985 -15.638   0.390  1.00  0.00     0.240 C 
HETATM    3  O   UNL     1      41.240 -15.659  -0.818  1.00  0.00    -0.271 OA
ENDROOT
BRANCH   1   4
HETATM    4  C   UNL     1      40.456 -13.251   0.188  1.00  0.00     0.176 C 
HETATM    5  C   UNL     1      40.650 -11.931   0.938  1.00  0.00     0.042 C 
BRANCH   4   6
HETATM    6  C   UNL     1      39.094 -13.306  -0.553  1.00  0.00     0.244 C 
HETATM    7  N   UNL     1      39.237 -13.427  -1.928  1.00  0.00    -0.325 N 
HETATM    8  H   UNL     1      40.187 -13.400  -2.275  1.00  0.00     0.169 HD
HETATM    9  O   UNL     1      38.037 -13.085   0.035  1.00  0.00    -0.271 OA
BRANCH   7  10
HETATM   10  C   UNL     1      38.212 -13.558  -2.884  1.00  0.00     0.035 A 
HETATM   11  C   UNL     1      37.931 -14.842  -3.359  1.00  0.00     0.032 A 
HETATM   12  C   UNL     1      36.902 -15.046  -4.284  1.00  0.00     0.039 A 
HETATM   13  C   UNL     1      36.126 -13.977  -4.732  1.00  0.00     0.068 A 
HETATM   14  C   UNL     1      36.409 -12.694  -4.268  1.00  0.00     0.039 A 
HETATM   15  C   UNL     1      37.447 -12.488  -3.349  1.00  0.00     0.032 A 
BRANCH  13  16
HETATM   16  O   UNL     1      35.137 -14.309  -5.617  1.00  0.00    -0.356 OA
HETATM   17  C   UNL     1      35.184 -13.673  -6.889  1.00  0.00     0.210 C 
ENDBRANCH  13  16
ENDBRANCH   7  10
ENDBRANCH   4   6
ENDBRANCH   1   4
BRANCH   1  18
HETATM   18  C   UNL     1      40.323 -14.345   2.460  1.00  0.00     0.165 C 
BRANCH  18  19
HETATM   19  C   UNL     1      41.489 -14.198   3.409  1.00  0.00    -0.040 A 
HETATM   20  C   UNL     1      42.800 -14.100   2.919  1.00  0.00     0.009 A 
HETATM   21  C   UNL     1      43.881 -14.008   3.795  1.00  0.00     0.001 A 
HETATM   22  C   UNL     1      43.665 -14.000   5.170  1.00  0.00     0.000 A 
HETATM   23  C   UNL     1      42.367 -14.078   5.672  1.00  0.00     0.001 A 
HETATM   24  C   UNL     1      41.283 -14.174   4.797  1.00  0.00     0.009 A 
ENDBRANCH  18  19
ENDBRANCH   1  18
BRANCH   2  25
HETATM   25  C   UNL     1      40.901 -16.953   1.126  1.00  0.00     0.250 C 
BRANCH  25  26
HETATM   26  N   UNL     1      42.113 -17.334   1.814  1.00  0.00    -0.263 N 
HETATM   27  N   UNL     1      43.252 -17.416   1.095  1.00  0.00     0.006 NA
HETATM   28  N   UNL     1      44.227 -17.761   1.923  1.00  0.00    -0.158 NA
HETATM   29  C   UNL     1      43.694 -17.890   3.175  1.00  0.00     0.102 A 
HETATM   30  C   UNL     1      42.328 -17.617   3.137  1.00  0.00     0.079 A 
HETATM   31  C   UNL     1      44.302 -18.242   4.388  1.00  0.00     0.035 A 
HETATM   32  C   UNL     1      41.519 -17.670   4.277  1.00  0.00     0.033 A 
HETATM   33  C   UNL     1      42.140 -18.035   5.478  1.00  0.00     0.002 A 
HETATM   34  C   UNL     1      43.507 -18.317   5.536  1.00  0.00     0.002 A 
ENDBRANCH  25  26
ENDBRANCH   2  25
TORSDOF 8
ENDMDL
MODEL 9
REMARK VINA RESULT:      -7.4      3.361      7.185
REMARK  8 active torsions:
REMARK  status: ('A' for Active; 'I' for Inactive)
REMARK    1  A    between atoms: C_2  and  N_3 
REMARK    2  A    between atoms: C_2  and  C_23 
REMARK       I    between atoms: N_3  and  C_4 
REMARK    3  A    between atoms: N_3  and  C_16 
REMARK    4  A    between atoms: C_4  and  C_5 
REMARK    5  A    between atoms: C_5  and  N_6 
REMARK    6  A    between atoms: C_16  and  C_17 
REMARK       I    between atoms: C_23  and  N_24 
REMARK    7  A    between atoms: N_24  and  C_25 
REMARK    8  A    between atoms: C_28  and  O_29 
ROOT
HETATM    1  N   UNL     1      41.239 -15.108   2.018  1.00  0.00    -0.333 N 
HETATM    2  C   UNL     1      40.450 -14.531   3.015  1.00  0.00     0.240 C 
HETATM    3  O   UNL     1      39.243 -14.340   2.837  1.00  0.00    -0.271 OA
ENDROOT
BRANCH   1   4
HETATM    4  C   UNL     1      40.651 -15.147   0.649  1.00  0.00     0.176 C 
HETATM    5  C   UNL     1      41.206 -16.307  -0.182  1.00  0.00     0.042 C 
BRANCH   4   6
HETATM    6  C   UNL     1      40.708 -13.799  -0.117  1.00  0.00     0.244 C 
HETATM    7  N   UNL     1      41.819 -13.699  -0.942  1.00  0.00    -0.325 N 
HETATM    8  H   UNL     1      42.472 -14.471  -0.896  1.00  0.00     0.169 HD
HETATM    9  O   UNL     1      39.932 -12.882   0.145  1.00  0.00    -0.271 OA
BRANCH   7  10
HETATM   10  C   UNL     1      42.143 -12.640  -1.811  1.00  0.00     0.035 A 
HETATM   11  C   UNL     1      41.785 -12.773  -3.155  1.00  0.00     0.032 A 
HETATM   12  C   UNL     1      42.046 -11.743  -4.065  1.00  0.00     0.039 A 
HETATM   13  C   UNL     1      42.650 -10.558  -3.643  1.00  0.00     0.068 A 
HETATM   14  C   UNL     1      43.018 -10.425  -2.305  1.00  0.00     0.039 A 
HETATM   15  C   UNL     1      42.765 -11.462  -1.396  1.00  0.00     0.032 A 
BRANCH  13  16
HETATM   16  O   UNL     1      42.831  -9.619  -4.621  1.00  0.00    -0.356 OA
HETATM   17  C   UNL     1      41.662  -9.179  -5.301  1.00  0.00     0.210 C 
ENDBRANCH  13  16
ENDBRANCH   7  10
ENDBRANCH   4   6
ENDBRANCH   1   4
BRANCH   1  18
HETATM   18  C   UNL     1      42.699 -15.263   2.120  1.00  0.00     0.165 C 
BRANCH  18  19
HETATM   19  C   UNL     1      43.124 -16.697   2.333  1.00  0.00    -0.040 A 
HETATM   20  C   UNL     1      44.147 -17.260   1.556  1.00  0.00     0.009 A 
HETATM   21  C   UNL     1      44.512 -18.596   1.721  1.00  0.00     0.001 A 
HETATM   22  C   UNL     1      43.867 -19.382   2.673  1.00  0.00     0.000 A 
HETATM   23  C   UNL     1      42.861 -18.831   3.465  1.00  0.00     0.001 A 
HETATM   24  C   UNL     1      42.493 -17.495   3.299  1.00  0.00     0.009 A 
ENDBRANCH  18  19
ENDBRANCH   1  18
BRANCH   2  25
HETATM   25  C   UNL     1      41.060 -14.086   4.321  1.00  0.00     0.250 C 
BRANCH  25  26
HETATM   26  N   UNL     1      41.219 -15.137   5.299  1.00  0.00    -0.263 N 
HETATM   27  N   UNL     1      40.128 -15.853   5.643  1.00  0.00     0.006 NA
HETATM   28  N   UNL     1      40.505 -16.762   6.531  1.00  0.00    -0.158 NA
HETATM   29  C   UNL     1      41.847 -16.616   6.740  1.00  0.00     0.102 A 
HETATM   30  C   UNL     1      42.339 -15.575   5.955  1.00  0.00     0.079 A 
HETATM   31  C   UNL     1      42.715 -17.324   7.583  1.00  0.00     0.035 A 
HETATM   32  C   UNL     1      43.686 -15.199   5.962  1.00  0.00     0.033 A 
HETATM   33  C   UNL     1      44.537 -15.908   6.819  1.00  0.00     0.002 A 
HETATM   34  C   UNL     1      44.064 -16.952   7.618  1.00  0.00     0.002 A 
ENDBRANCH  25  26
ENDBRANCH   2  25
TORSDOF 8
ENDMDL
MODEL 10
REMARK VINA RESULT:      -7.4      3.448      4.529
REMARK  8 active torsions:
REMARK  status: ('A' for Active; 'I' for Inactive)
REMARK    1  A    between atoms: C_2  and  N_3 
REMARK    2  A    between atoms: C_2  and  C_23 
REMARK       I    between atoms: N_3  and  C_4 
REMARK    3  A    between atoms: N_3  and  C_16 
REMARK    4  A    between atoms: C_4  and  C_5 
REMARK    5  A    between atoms: C_5  and  N_6 
REMARK    6  A    between atoms: C_16  and  C_17 
REMARK       I    between atoms: C_23  and  N_24 
REMARK    7  A    between atoms: N_24  and  C_25 
REMARK    8  A    between atoms: C_28  and  O_29 
ROOT
HETATM    1  N   UNL     1      41.344 -14.039   4.714  1.00  0.00    -0.333 N 
HETATM    2  C   UNL     1      41.128 -13.126   5.748  1.00  0.00     0.240 C 
HETATM    3  O   UNL     1      42.076 -12.574   6.316  1.00  0.00    -0.271 OA
ENDROOT
BRANCH   1   4
HETATM    4  C   UNL     1      42.731 -14.568   4.578  1.00  0.00     0.176 C 
HETATM    5  C   UNL     1      43.452 -13.984   3.360  1.00  0.00     0.042 C 
BRANCH   4   6
HETATM    6  C   UNL     1      42.841 -16.115   4.636  1.00  0.00     0.244 C 
HETATM    7  N   UNL     1      43.353 -16.659   3.468  1.00  0.00    -0.325 N 
HETATM    8  H   UNL     1      43.527 -16.004   2.717  1.00  0.00     0.169 HD
HETATM    9  O   UNL     1      42.351 -16.755   5.565  1.00  0.00    -0.271 OA
BRANCH   7  10
HETATM   10  C   UNL     1      43.632 -18.015   3.210  1.00  0.00     0.035 A 
HETATM   11  C   UNL     1      44.355 -18.722   4.175  1.00  0.00     0.032 A 
HETATM   12  C   UNL     1      44.635 -20.081   3.997  1.00  0.00     0.039 A 
HETATM   13  C   UNL     1      44.182 -20.758   2.864  1.00  0.00     0.068 A 
HETATM   14  C   UNL     1      43.470 -20.055   1.895  1.00  0.00     0.039 A 
HETATM   15  C   UNL     1      43.198 -18.690   2.069  1.00  0.00     0.032 A 
BRANCH  13  16
HETATM   16  O   UNL     1      44.501 -22.087   2.817  1.00  0.00    -0.356 OA
HETATM   17  C   UNL     1      44.703 -22.735   4.068  1.00  0.00     0.210 C 
ENDBRANCH  13  16
ENDBRANCH   7  10
ENDBRANCH   4   6
ENDBRANCH   1   4
BRANCH   1  18
HETATM   18  C   UNL     1      40.271 -14.813   4.071  1.00  0.00     0.165 C 
BRANCH  18  19
HETATM   19  C   UNL     1      40.015 -14.389   2.644  1.00  0.00    -0.040 A 
HETATM   20  C   UNL     1      40.434 -15.196   1.575  1.00  0.00     0.009 A 
HETATM   21  C   UNL     1      40.237 -14.786   0.256  1.00  0.00     0.001 A 
HETATM   22  C   UNL     1      39.609 -13.572  -0.010  1.00  0.00     0.000 A 
HETATM   23  C   UNL     1      39.172 -12.769   1.041  1.00  0.00     0.001 A 
HETATM   24  C   UNL     1      39.370 -13.175   2.362  1.00  0.00     0.009 A 
ENDBRANCH  18  19
ENDBRANCH   1  18
BRANCH   2  25
HETATM   25  C   UNL     1      39.731 -12.821   6.229  1.00  0.00     0.250 C 
BRANCH  25  26
HETATM   26  N   UNL     1      39.450 -11.416   6.407  1.00  0.00    -0.263 N 
HETATM   27  N   UNL     1      38.936 -10.734   5.362  1.00  0.00     0.006 NA
HETATM   28  N   UNL     1      38.745  -9.482   5.752  1.00  0.00    -0.158 NA
HETATM   29  C   UNL     1      39.140  -9.380   7.056  1.00  0.00     0.102 A 
HETATM   30  C   UNL     1      39.598 -10.615   7.509  1.00  0.00     0.079 A 
HETATM   31  C   UNL     1      39.145  -8.275   7.918  1.00  0.00     0.035 A 
HETATM   32  C   UNL     1      40.065 -10.812   8.813  1.00  0.00     0.033 A 
HETATM   33  C   UNL     1      40.075  -9.694   9.657  1.00  0.00     0.002 A 
HETATM   34  C   UNL     1      39.625  -8.446   9.221  1.00  0.00     0.002 A 
ENDBRANCH  25  26
ENDBRANCH   2  25
TORSDOF 8
ENDMDL
