MODEL 1
REMARK VINA RESULT:     -10.6      0.000      0.000
REMARK  7 active torsions:
REMARK  status: ('A' for Active; 'I' for Inactive)
REMARK    1  A    between atoms: C_2  and  C_3 
REMARK    2  A    between atoms: N_16  and  C_17 
REMARK    3  A    between atoms: C_17  and  C_18 
REMARK       I    between atoms: C_18  and  N_19 
REMARK    4  A    between atoms: N_19  and  C_20 
REMARK    5  A    between atoms: C_21  and  C_22 
REMARK       I    between atoms: C_22  and  N_23 
REMARK    6  A    between atoms: N_23  and  C_24 
REMARK    7  A    between atoms: C_24  and  C_25 
ROOT
HETATM    1  C   UNL     1      41.559 -13.830   5.146  1.00  0.00     0.240 C 
ENDROOT
BRANCH   1   2
HETATM    2  N   UNL     1      42.428 -14.753   5.833  1.00  0.00    -0.259 N 
HETATM    3  C   UNL     1      43.758 -14.553   6.019  1.00  0.00     0.326 A 
HETATM    4  N   UNL     1      44.322 -15.717   6.487  1.00  0.00    -0.321 N 
HETATM    5  O   UNL     1      44.399 -13.553   5.743  1.00  0.00    -0.247 OA
HETATM    6  C   UNL     1      43.368 -16.808   6.552  1.00  0.00     0.140 A 
HETATM    7  H   UNL     1      45.324 -15.818   6.574  1.00  0.00     0.165 HD
HETATM    8  C   UNL     1      43.189 -17.226   8.012  1.00  0.00     0.054 C 
HETATM    9  C   UNL     1      42.095 -16.056   6.086  1.00  0.00     0.261 A 
HETATM   10  O   UNL     1      40.991 -16.556   5.910  1.00  0.00    -0.270 OA
BRANCH   6  11
HETATM   11  C   UNL     1      43.726 -17.914   5.557  1.00  0.00    -0.020 A 
HETATM   12  C   UNL     1      44.053 -19.220   5.967  1.00  0.00     0.022 A 
HETATM   13  C   UNL     1      44.288 -20.255   5.038  1.00  0.00    -0.025 A 
HETATM   14  C   UNL     1      44.202 -19.981   3.657  1.00  0.00    -0.026 A 
HETATM   15  C   UNL     1      44.590 -21.562   5.456  1.00  0.00     0.012 A 
HETATM   16  C   UNL     1      43.902 -18.681   3.239  1.00  0.00     0.013 A 
HETATM   17  C   UNL     1      44.407 -21.019   2.731  1.00  0.00     0.012 A 
HETATM   18  C   UNL     1      43.672 -17.666   4.172  1.00  0.00     0.011 A 
HETATM   19  C   UNL     1      44.698 -22.312   3.164  1.00  0.00     0.001 A 
HETATM   20  C   UNL     1      44.793 -22.584   4.526  1.00  0.00     0.001 A 
ENDBRANCH   6  11
ENDBRANCH   1   2
BRANCH   1  21
HETATM   21  C   UNL     1      40.847 -12.831   6.058  1.00  0.00     0.240 C 
HETATM   22  N   UNL     1      41.608 -11.678   6.216  1.00  0.00    -0.325 N 
HETATM   23  H   UNL     1      42.611 -11.797   6.116  1.00  0.00     0.169 HD
HETATM   24  O   UNL     1      39.784 -13.057   6.630  1.00  0.00    -0.271 OA
BRANCH  22  25
HETATM   25  C   UNL     1      41.192 -10.478   6.829  1.00  0.00     0.050 A 
HETATM   26  C   UNL     1      41.684  -9.957   8.034  1.00  0.00     0.058 A 
HETATM   27  C   UNL     1      41.158  -8.762   8.559  1.00  0.00     0.019 A 
HETATM   28  C   UNL     1      40.141  -8.083   7.888  1.00  0.00     0.001 A 
HETATM   29  C   UNL     1      39.630  -8.606   6.706  1.00  0.00     0.002 A 
HETATM   30  C   UNL     1      40.143  -9.799   6.188  1.00  0.00     0.030 A 
BRANCH  26  31
HETATM   31  C   UNL     1      42.566 -10.696   8.958  1.00  0.00     0.254 C 
HETATM   32  N   UNL     1      42.043 -10.895  10.212  1.00  0.00    -0.351 N 
HETATM   33  H   UNL     1      41.467 -10.129  10.552  1.00  0.00     0.163 HD
HETATM   34  O   UNL     1      43.624 -11.156   8.548  1.00  0.00    -0.268 OA
BRANCH  32  35
HETATM   35  C   UNL     1      42.822 -11.582  11.215  1.00  0.00     0.187 C 
BRANCH  35  36
HETATM   36  C   UNL     1      42.881 -10.723  12.424  1.00  0.00     0.070 A 
HETATM   37  O   UNL     1      42.102 -11.088  13.483  1.00  0.00    -0.325 OA
HETATM   38  C   UNL     1      42.324 -10.184  14.470  1.00  0.00     0.142 A 
HETATM   39  C   UNL     1      43.236  -9.239  14.064  1.00  0.00     0.027 A 
HETATM   40  C   UNL     1      43.595  -9.583  12.739  1.00  0.00     0.036 A 
ENDBRANCH  35  36
ENDBRANCH  32  35
ENDBRANCH  26  31
ENDBRANCH  22  25
ENDBRANCH   1  21
TORSDOF 7
ENDMDL
MODEL 2
REMARK VINA RESULT:     -10.5      1.517      2.280
REMARK  7 active torsions:
REMARK  status: ('A' for Active; 'I' for Inactive)
REMARK    1  A    between atoms: C_2  and  C_3 
REMARK    2  A    between atoms: N_16  and  C_17 
REMARK    3  A    between atoms: C_17  and  C_18 
REMARK       I    between atoms: C_18  and  N_19 
REMARK    4  A    between atoms: N_19  and  C_20 
REMARK    5  A    between atoms: C_21  and  C_22 
REMARK       I    between atoms: C_22  and  N_23 
REMARK    6  A    between atoms: N_23  and  C_24 
REMARK    7  A    between atoms: C_24  and  C_25 
ROOT
HETATM    1  C   UNL     1      42.631 -13.800   5.458  1.00  0.00     0.240 C 
ENDROOT
BRANCH   1   2
HETATM    2  N   UNL     1      41.987 -14.743   4.577  1.00  0.00    -0.259 N 
HETATM    3  C   UNL     1      40.900 -15.483   4.916  1.00  0.00     0.326 A 
HETATM    4  N   UNL     1      40.694 -16.438   3.949  1.00  0.00    -0.321 N 
HETATM    5  O   UNL     1      40.244 -15.403   5.941  1.00  0.00    -0.247 OA
HETATM    6  C   UNL     1      41.727 -16.429   2.931  1.00  0.00     0.140 A 
HETATM    7  H   UNL     1      40.009 -17.172   4.072  1.00  0.00     0.165 HD
HETATM    8  C   UNL     1      41.100 -16.054   1.588  1.00  0.00     0.054 C 
HETATM    9  C   UNL     1      42.572 -15.234   3.442  1.00  0.00     0.261 A 
HETATM   10  O   UNL     1      43.621 -14.836   2.951  1.00  0.00    -0.270 OA
BRANCH   6  11
HETATM   11  C   UNL     1      42.552 -17.718   2.971  1.00  0.00    -0.020 A 
HETATM   12  C   UNL     1      43.007 -18.285   4.177  1.00  0.00     0.022 A 
HETATM   13  C   UNL     1      43.683 -19.522   4.209  1.00  0.00    -0.025 A 
HETATM   14  C   UNL     1      43.921 -20.215   3.004  1.00  0.00    -0.026 A 
HETATM   15  C   UNL     1      44.112 -20.092   5.419  1.00  0.00     0.012 A 
HETATM   16  C   UNL     1      43.495 -19.649   1.798  1.00  0.00     0.013 A 
HETATM   17  C   UNL     1      44.568 -21.462   3.038  1.00  0.00     0.012 A 
HETATM   18  C   UNL     1      42.825 -18.422   1.783  1.00  0.00     0.011 A 
HETATM   19  C   UNL     1      44.981 -22.017   4.249  1.00  0.00     0.001 A 
HETATM   20  C   UNL     1      44.756 -21.331   5.439  1.00  0.00     0.001 A 
ENDBRANCH   6  11
ENDBRANCH   1   2
BRANCH   1  21
HETATM   21  C   UNL     1      41.969 -12.423   5.507  1.00  0.00     0.240 C 
HETATM   22  N   UNL     1      41.509 -12.141   6.788  1.00  0.00    -0.325 N 
HETATM   23  H   UNL     1      41.269 -12.947   7.355  1.00  0.00     0.169 HD
HETATM   24  O   UNL     1      41.802 -11.705   4.525  1.00  0.00    -0.271 OA
BRANCH  22  25
HETATM   25  C   UNL     1      41.019 -10.901   7.246  1.00  0.00     0.050 A 
HETATM   26  C   UNL     1      41.548 -10.147   8.303  1.00  0.00     0.058 A 
HETATM   27  C   UNL     1      40.943  -8.936   8.685  1.00  0.00     0.019 A 
HETATM   28  C   UNL     1      39.809  -8.471   8.020  1.00  0.00     0.001 A 
HETATM   29  C   UNL     1      39.262  -9.225   6.988  1.00  0.00     0.002 A 
HETATM   30  C   UNL     1      39.855 -10.434   6.613  1.00  0.00     0.030 A 
BRANCH  26  31
HETATM   31  C   UNL     1      42.576 -10.641   9.240  1.00  0.00     0.254 C 
HETATM   32  N   UNL     1      42.099 -10.996  10.477  1.00  0.00    -0.351 N 
HETATM   33  H   UNL     1      41.331 -10.419  10.812  1.00  0.00     0.163 HD
HETATM   34  O   UNL     1      43.726 -10.794   8.852  1.00  0.00    -0.268 OA
BRANCH  32  35
HETATM   35  C   UNL     1      43.011 -11.469  11.491  1.00  0.00     0.187 C 
BRANCH  35  36
HETATM   36  C   UNL     1      42.797 -10.663  12.719  1.00  0.00     0.070 A 
HETATM   37  O   UNL     1      41.721 -10.986  13.493  1.00  0.00    -0.325 OA
HETATM   38  C   UNL     1      41.730 -10.143  14.558  1.00  0.00     0.142 A 
HETATM   39  C   UNL     1      42.797  -9.280  14.481  1.00  0.00     0.027 A 
HETATM   40  C   UNL     1      43.487  -9.611  13.291  1.00  0.00     0.036 A 
ENDBRANCH  35  36
ENDBRANCH  32  35
ENDBRANCH  26  31
ENDBRANCH  22  25
ENDBRANCH   1  21
TORSDOF 7
ENDMDL
MODEL 3
REMARK VINA RESULT:     -10.3      4.283      8.026
REMARK  7 active torsions:
REMARK  status: ('A' for Active; 'I' for Inactive)
REMARK    1  A    between atoms: C_2  and  C_3 
REMARK    2  A    between atoms: N_16  and  C_17 
REMARK    3  A    between atoms: C_17  and  C_18 
REMARK       I    between atoms: C_18  and  N_19 
REMARK    4  A    between atoms: N_19  and  C_20 
REMARK    5  A    between atoms: C_21  and  C_22 
REMARK       I    between atoms: C_22  and  N_23 
REMARK    6  A    between atoms: N_23  and  C_24 
REMARK    7  A    between atoms: C_24  and  C_25 
ROOT
HETATM    1  C   UNL     1      41.775 -13.916   5.671  1.00  0.00     0.240 C 
ENDROOT
BRANCH   1   2
HETATM    2  N   UNL     1      42.686 -14.880   6.237  1.00  0.00    -0.259 N 
HETATM    3  C   UNL     1      44.030 -14.700   6.323  1.00  0.00     0.326 A 
HETATM    4  N   UNL     1      44.616 -15.890   6.684  1.00  0.00    -0.321 N 
HETATM    5  O   UNL     1      44.657 -13.691   6.047  1.00  0.00    -0.247 OA
HETATM    6  C   UNL     1      43.657 -16.976   6.771  1.00  0.00     0.140 A 
HETATM    7  H   UNL     1      45.620 -16.003   6.683  1.00  0.00     0.165 HD
HETATM    8  C   UNL     1      43.593 -17.468   8.217  1.00  0.00     0.054 C 
HETATM    9  C   UNL     1      42.360 -16.192   6.449  1.00  0.00     0.261 A 
HETATM   10  O   UNL     1      41.240 -16.674   6.339  1.00  0.00    -0.270 OA
BRANCH   6  11
HETATM   11  C   UNL     1      43.921 -18.032   5.694  1.00  0.00    -0.020 A 
HETATM   12  C   UNL     1      44.215 -19.372   6.008  1.00  0.00     0.022 A 
HETATM   13  C   UNL     1      44.361 -20.356   5.009  1.00  0.00    -0.025 A 
HETATM   14  C   UNL     1      44.218 -19.995   3.653  1.00  0.00    -0.026 A 
HETATM   15  C   UNL     1      44.630 -21.696   5.332  1.00  0.00     0.012 A 
HETATM   16  C   UNL     1      43.950 -18.661   3.328  1.00  0.00     0.013 A 
HETATM   17  C   UNL     1      44.334 -20.980   2.657  1.00  0.00     0.012 A 
HETATM   18  C   UNL     1      43.807 -17.697   4.331  1.00  0.00     0.011 A 
HETATM   19  C   UNL     1      44.594 -22.308   2.996  1.00  0.00     0.001 A 
HETATM   20  C   UNL     1      44.746 -22.666   4.333  1.00  0.00     0.001 A 
ENDBRANCH   6  11
ENDBRANCH   1   2
BRANCH   1  21
HETATM   21  C   UNL     1      41.099 -14.366   4.375  1.00  0.00     0.240 C 
HETATM   22  N   UNL     1      42.040 -14.557   3.370  1.00  0.00    -0.325 N 
HETATM   23  H   UNL     1      42.886 -14.004   3.449  1.00  0.00     0.169 HD
HETATM   24  O   UNL     1      39.884 -14.466   4.232  1.00  0.00    -0.271 OA
BRANCH  22  25
HETATM   25  C   UNL     1      41.807 -15.144   2.109  1.00  0.00     0.050 A 
HETATM   26  C   UNL     1      41.878 -14.489   0.871  1.00  0.00     0.058 A 
HETATM   27  C   UNL     1      41.589 -15.183  -0.318  1.00  0.00     0.019 A 
HETATM   28  C   UNL     1      41.229 -16.529  -0.281  1.00  0.00     0.001 A 
HETATM   29  C   UNL     1      41.132 -17.180   0.943  1.00  0.00     0.002 A 
HETATM   30  C   UNL     1      41.408 -16.490   2.127  1.00  0.00     0.030 A 
BRANCH  26  31
HETATM   31  C   UNL     1      41.998 -13.026   0.714  1.00  0.00     0.254 C 
HETATM   32  N   UNL     1      41.450 -12.528  -0.442  1.00  0.00    -0.351 N 
HETATM   33  H   UNL     1      41.541 -13.142  -1.248  1.00  0.00     0.163 HD
HETATM   34  O   UNL     1      42.468 -12.355   1.623  1.00  0.00    -0.268 OA
BRANCH  32  35
HETATM   35  C   UNL     1      41.527 -11.115  -0.724  1.00  0.00     0.187 C 
BRANCH  35  36
HETATM   36  C   UNL     1      41.896 -10.947  -2.152  1.00  0.00     0.070 A 
HETATM   37  O   UNL     1      41.666 -12.006  -2.981  1.00  0.00    -0.325 OA
HETATM   38  C   UNL     1      42.057 -11.630  -4.225  1.00  0.00     0.142 A 
HETATM   39  C   UNL     1      42.535 -10.342  -4.212  1.00  0.00     0.027 A 
HETATM   40  C   UNL     1      42.436  -9.899  -2.872  1.00  0.00     0.036 A 
ENDBRANCH  35  36
ENDBRANCH  32  35
ENDBRANCH  26  31
ENDBRANCH  22  25
ENDBRANCH   1  21
TORSDOF 7
ENDMDL
MODEL 4
REMARK VINA RESULT:     -10.0      1.927      2.609
REMARK  7 active torsions:
REMARK  status: ('A' for Active; 'I' for Inactive)
REMARK    1  A    between atoms: C_2  and  C_3 
REMARK    2  A    between atoms: N_16  and  C_17 
REMARK    3  A    between atoms: C_17  and  C_18 
REMARK       I    between atoms: C_18  and  N_19 
REMARK    4  A    between atoms: N_19  and  C_20 
REMARK    5  A    between atoms: C_21  and  C_22 
REMARK       I    between atoms: C_22  and  N_23 
REMARK    6  A    between atoms: N_23  and  C_24 
REMARK    7  A    between atoms: C_24  and  C_25 
ROOT
HETATM    1  C   UNL     1      40.536 -13.839   4.191  1.00  0.00     0.240 C 
ENDROOT
BRANCH   1   2
HETATM    2  N   UNL     1      41.839 -14.228   4.669  1.00  0.00    -0.259 N 
HETATM    3  C   UNL     1      43.005 -13.910   4.049  1.00  0.00     0.326 A 
HETATM    4  N   UNL     1      44.025 -14.629   4.624  1.00  0.00    -0.321 N 
HETATM    5  O   UNL     1      43.150 -13.182   3.081  1.00  0.00    -0.247 OA
HETATM    6  C   UNL     1      43.550 -15.557   5.633  1.00  0.00     0.140 A 
HETATM    7  H   UNL     1      44.955 -14.632   4.228  1.00  0.00     0.165 HD
HETATM    8  C   UNL     1      44.120 -15.149   6.992  1.00  0.00     0.054 C 
HETATM    9  C   UNL     1      42.039 -15.213   5.598  1.00  0.00     0.261 A 
HETATM   10  O   UNL     1      41.161 -15.771   6.244  1.00  0.00    -0.270 OA
BRANCH   6  11
HETATM   11  C   UNL     1      43.774 -17.008   5.199  1.00  0.00    -0.020 A 
HETATM   12  C   UNL     1      43.366 -17.489   3.941  1.00  0.00     0.022 A 
HETATM   13  C   UNL     1      43.662 -18.800   3.514  1.00  0.00    -0.025 A 
HETATM   14  C   UNL     1      44.383 -19.662   4.366  1.00  0.00    -0.026 A 
HETATM   15  C   UNL     1      43.272 -19.265   2.247  1.00  0.00     0.012 A 
HETATM   16  C   UNL     1      44.773 -19.201   5.628  1.00  0.00     0.013 A 
HETATM   17  C   UNL     1      44.706 -20.958   3.930  1.00  0.00     0.012 A 
HETATM   18  C   UNL     1      44.471 -17.898   6.037  1.00  0.00     0.011 A 
HETATM   19  C   UNL     1      44.316 -21.401   2.666  1.00  0.00     0.001 A 
HETATM   20  C   UNL     1      43.597 -20.557   1.826  1.00  0.00     0.001 A 
ENDBRANCH   6  11
ENDBRANCH   1   2
BRANCH   1  21
HETATM   21  C   UNL     1      40.082 -12.450   4.643  1.00  0.00     0.240 C 
HETATM   22  N   UNL     1      41.176 -11.621   4.861  1.00  0.00    -0.325 N 
HETATM   23  H   UNL     1      42.037 -12.090   5.122  1.00  0.00     0.169 HD
HETATM   24  O   UNL     1      38.912 -12.144   4.854  1.00  0.00    -0.271 OA
BRANCH  22  25
HETATM   25  C   UNL     1      41.138 -10.232   5.102  1.00  0.00     0.050 A 
HETATM   26  C   UNL     1      41.228  -9.612   6.356  1.00  0.00     0.058 A 
HETATM   27  C   UNL     1      41.142  -8.212   6.465  1.00  0.00     0.019 A 
HETATM   28  C   UNL     1      40.965  -7.424   5.329  1.00  0.00     0.001 A 
HETATM   29  C   UNL     1      40.849  -8.032   4.084  1.00  0.00     0.002 A 
HETATM   30  C   UNL     1      40.923  -9.424   3.974  1.00  0.00     0.030 A 
BRANCH  26  31
HETATM   31  C   UNL     1      41.163 -10.333   7.643  1.00  0.00     0.254 C 
HETATM   32  N   UNL     1      42.029  -9.869   8.602  1.00  0.00    -0.351 N 
HETATM   33  H   UNL     1      42.922  -9.543   8.239  1.00  0.00     0.163 HD
HETATM   34  O   UNL     1      40.313 -11.197   7.811  1.00  0.00    -0.268 OA
BRANCH  32  35
HETATM   35  C   UNL     1      42.079 -10.510   9.896  1.00  0.00     0.187 C 
BRANCH  35  36
HETATM   36  C   UNL     1      43.453 -11.032  10.101  1.00  0.00     0.070 A 
HETATM   37  O   UNL     1      44.404 -10.646   9.202  1.00  0.00    -0.325 OA
HETATM   38  C   UNL     1      45.573 -11.220   9.588  1.00  0.00     0.142 A 
HETATM   39  C   UNL     1      45.389 -11.971  10.724  1.00  0.00     0.027 A 
HETATM   40  C   UNL     1      44.019 -11.855  11.056  1.00  0.00     0.036 A 
ENDBRANCH  35  36
ENDBRANCH  32  35
ENDBRANCH  26  31
ENDBRANCH  22  25
ENDBRANCH   1  21
TORSDOF 7
ENDMDL
MODEL 5
REMARK VINA RESULT:     -10.0      6.292      9.789
REMARK  7 active torsions:
REMARK  status: ('A' for Active; 'I' for Inactive)
REMARK    1  A    between atoms: C_2  and  C_3 
REMARK    2  A    between atoms: N_16  and  C_17 
REMARK    3  A    between atoms: C_17  and  C_18 
REMARK       I    between atoms: C_18  and  N_19 
REMARK    4  A    between atoms: N_19  and  C_20 
REMARK    5  A    between atoms: C_21  and  C_22 
REMARK       I    between atoms: C_22  and  N_23 
REMARK    6  A    between atoms: N_23  and  C_24 
REMARK    7  A    between atoms: C_24  and  C_25 
ROOT
HETATM    1  C   UNL     1      40.155 -13.653   2.872  1.00  0.00     0.240 C 
ENDROOT
BRANCH   1   2
HETATM    2  N   UNL     1      41.440 -14.117   3.333  1.00  0.00    -0.259 N 
HETATM    3  C   UNL     1      42.628 -13.720   2.807  1.00  0.00     0.326 A 
HETATM    4  N   UNL     1      43.626 -14.523   3.306  1.00  0.00    -0.321 N 
HETATM    5  O   UNL     1      42.809 -12.859   1.962  1.00  0.00    -0.247 OA
HETATM    6  C   UNL     1      43.112 -15.586   4.151  1.00  0.00     0.140 A 
HETATM    7  H   UNL     1      44.569 -14.475   2.947  1.00  0.00     0.165 HD
HETATM    8  C   UNL     1      43.634 -15.385   5.575  1.00  0.00     0.054 C 
HETATM    9  C   UNL     1      41.604 -15.229   4.113  1.00  0.00     0.261 A 
HETATM   10  O   UNL     1      40.703 -15.870   4.639  1.00  0.00    -0.270 OA
BRANCH   6  11
HETATM   11  C   UNL     1      43.349 -16.958   3.516  1.00  0.00    -0.020 A 
HETATM   12  C   UNL     1      43.952 -18.019   4.218  1.00  0.00     0.022 A 
HETATM   13  C   UNL     1      44.079 -19.306   3.657  1.00  0.00    -0.025 A 
HETATM   14  C   UNL     1      43.597 -19.545   2.353  1.00  0.00    -0.026 A 
HETATM   15  C   UNL     1      44.660 -20.366   4.373  1.00  0.00     0.012 A 
HETATM   16  C   UNL     1      43.018 -18.492   1.637  1.00  0.00     0.013 A 
HETATM   17  C   UNL     1      43.695 -20.835   1.804  1.00  0.00     0.012 A 
HETATM   18  C   UNL     1      42.900 -17.221   2.209  1.00  0.00     0.011 A 
HETATM   19  C   UNL     1      44.268 -21.878   2.532  1.00  0.00     0.001 A 
HETATM   20  C   UNL     1      44.754 -21.643   3.815  1.00  0.00     0.001 A 
ENDBRANCH   6  11
ENDBRANCH   1   2
BRANCH   1  21
HETATM   21  C   UNL     1      39.648 -14.344   1.606  1.00  0.00     0.240 C 
HETATM   22  N   UNL     1      40.168 -13.735   0.469  1.00  0.00    -0.325 N 
HETATM   23  H   UNL     1      40.406 -12.754   0.567  1.00  0.00     0.169 HD
HETATM   24  O   UNL     1      38.833 -15.263   1.603  1.00  0.00    -0.271 OA
BRANCH  22  25
HETATM   25  C   UNL     1      40.070 -14.213  -0.854  1.00  0.00     0.050 A 
HETATM   26  C   UNL     1      39.167 -13.761  -1.827  1.00  0.00     0.058 A 
HETATM   27  C   UNL     1      39.148 -14.346  -3.106  1.00  0.00     0.019 A 
HETATM   28  C   UNL     1      40.026 -15.382  -3.422  1.00  0.00     0.001 A 
HETATM   29  C   UNL     1      40.907 -15.854  -2.456  1.00  0.00     0.002 A 
HETATM   30  C   UNL     1      40.921 -15.281  -1.181  1.00  0.00     0.030 A 
BRANCH  26  31
HETATM   31  C   UNL     1      38.031 -12.859  -1.548  1.00  0.00     0.254 C 
HETATM   32  N   UNL     1      37.619 -12.110  -2.622  1.00  0.00    -0.351 N 
HETATM   33  H   UNL     1      38.370 -11.816  -3.241  1.00  0.00     0.163 HD
HETATM   34  O   UNL     1      37.481 -12.898  -0.456  1.00  0.00    -0.268 OA
BRANCH  32  35
HETATM   35  C   UNL     1      36.534 -11.170  -2.469  1.00  0.00     0.187 C 
BRANCH  35  36
HETATM   36  C   UNL     1      35.408 -11.620  -3.325  1.00  0.00     0.070 A 
HETATM   37  O   UNL     1      35.690 -12.548  -4.284  1.00  0.00    -0.325 OA
HETATM   38  C   UNL     1      34.526 -12.822  -4.928  1.00  0.00     0.142 A 
HETATM   39  C   UNL     1      33.496 -12.083  -4.397  1.00  0.00     0.027 A 
HETATM   40  C   UNL     1      34.064 -11.301  -3.363  1.00  0.00     0.036 A 
ENDBRANCH  35  36
ENDBRANCH  32  35
ENDBRANCH  26  31
ENDBRANCH  22  25
ENDBRANCH   1  21
TORSDOF 7
ENDMDL
MODEL 6
REMARK VINA RESULT:      -9.9      2.835      5.286
REMARK  7 active torsions:
REMARK  status: ('A' for Active; 'I' for Inactive)
REMARK    1  A    between atoms: C_2  and  C_3 
REMARK    2  A    between atoms: N_16  and  C_17 
REMARK    3  A    between atoms: C_17  and  C_18 
REMARK       I    between atoms: C_18  and  N_19 
REMARK    4  A    between atoms: N_19  and  C_20 
REMARK    5  A    between atoms: C_21  and  C_22 
REMARK       I    between atoms: C_22  and  N_23 
REMARK    6  A    between atoms: N_23  and  C_24 
REMARK    7  A    between atoms: C_24  and  C_25 
ROOT
HETATM    1  C   UNL     1      40.834 -11.850   4.139  1.00  0.00     0.240 C 
ENDROOT
BRANCH   1   2
HETATM    2  N   UNL     1      40.829 -12.437   2.822  1.00  0.00    -0.259 N 
HETATM    3  C   UNL     1      39.707 -12.840   2.172  1.00  0.00     0.326 A 
HETATM    4  N   UNL     1      40.072 -13.564   1.062  1.00  0.00    -0.321 N 
HETATM    5  O   UNL     1      38.551 -12.683   2.529  1.00  0.00    -0.247 OA
HETATM    6  C   UNL     1      41.508 -13.755   0.971  1.00  0.00     0.140 A 
HETATM    7  H   UNL     1      39.387 -14.059   0.508  1.00  0.00     0.165 HD
HETATM    8  C   UNL     1      42.025 -13.049  -0.283  1.00  0.00     0.054 C 
HETATM    9  C   UNL     1      41.946 -12.947   2.220  1.00  0.00     0.261 A 
HETATM   10  O   UNL     1      43.093 -12.838   2.635  1.00  0.00    -0.270 OA
BRANCH   6  11
HETATM   11  C   UNL     1      41.879 -15.230   1.135  1.00  0.00    -0.020 A 
HETATM   12  C   UNL     1      42.776 -15.676   2.124  1.00  0.00     0.022 A 
HETATM   13  C   UNL     1      43.038 -17.047   2.328  1.00  0.00    -0.025 A 
HETATM   14  C   UNL     1      42.392 -18.005   1.519  1.00  0.00    -0.026 A 
HETATM   15  C   UNL     1      43.916 -17.485   3.333  1.00  0.00     0.012 A 
HETATM   16  C   UNL     1      41.517 -17.571   0.517  1.00  0.00     0.013 A 
HETATM   17  C   UNL     1      42.629 -19.372   1.741  1.00  0.00     0.012 A 
HETATM   18  C   UNL     1      41.269 -16.208   0.328  1.00  0.00     0.011 A 
HETATM   19  C   UNL     1      43.498 -19.790   2.749  1.00  0.00     0.001 A 
HETATM   20  C   UNL     1      44.145 -18.847   3.542  1.00  0.00     0.001 A 
ENDBRANCH   6  11
ENDBRANCH   1   2
BRANCH   1  21
HETATM   21  C   UNL     1      40.944 -12.859   5.283  1.00  0.00     0.240 C 
HETATM   22  N   UNL     1      41.385 -14.090   4.814  1.00  0.00    -0.325 N 
HETATM   23  H   UNL     1      41.163 -14.297   3.846  1.00  0.00     0.169 HD
HETATM   24  O   UNL     1      40.610 -12.624   6.441  1.00  0.00    -0.271 OA
BRANCH  22  25
HETATM   25  C   UNL     1      41.778 -15.193   5.601  1.00  0.00     0.050 A 
HETATM   26  C   UNL     1      42.886 -15.238   6.458  1.00  0.00     0.058 A 
HETATM   27  C   UNL     1      43.190 -16.416   7.165  1.00  0.00     0.019 A 
HETATM   28  C   UNL     1      42.394 -17.551   7.023  1.00  0.00     0.001 A 
HETATM   29  C   UNL     1      41.307 -17.523   6.157  1.00  0.00     0.002 A 
HETATM   30  C   UNL     1      41.009 -16.358   5.444  1.00  0.00     0.030 A 
BRANCH  26  31
HETATM   31  C   UNL     1      43.940 -14.205   6.505  1.00  0.00     0.254 C 
HETATM   32  N   UNL     1      44.438 -13.954   7.759  1.00  0.00    -0.351 N 
HETATM   33  H   UNL     1      43.751 -14.022   8.505  1.00  0.00     0.163 HD
HETATM   34  O   UNL     1      44.362 -13.723   5.463  1.00  0.00    -0.268 OA
BRANCH  32  35
HETATM   35  C   UNL     1      45.455 -12.945   7.940  1.00  0.00     0.187 C 
BRANCH  35  36
HETATM   36  C   UNL     1      45.171 -12.222   9.205  1.00  0.00     0.070 A 
HETATM   37  O   UNL     1      44.402 -12.868  10.128  1.00  0.00    -0.325 OA
HETATM   38  C   UNL     1      44.286 -12.040  11.198  1.00  0.00     0.142 A 
HETATM   39  C   UNL     1      44.971 -10.868  10.979  1.00  0.00     0.027 A 
HETATM   40  C   UNL     1      45.540 -10.981   9.688  1.00  0.00     0.036 A 
ENDBRANCH  35  36
ENDBRANCH  32  35
ENDBRANCH  26  31
ENDBRANCH  22  25
ENDBRANCH   1  21
TORSDOF 7
ENDMDL
MODEL 7
REMARK VINA RESULT:      -9.7      4.528      8.479
REMARK  7 active torsions:
REMARK  status: ('A' for Active; 'I' for Inactive)
REMARK    1  A    between atoms: C_2  and  C_3 
REMARK    2  A    between atoms: N_16  and  C_17 
REMARK    3  A    between atoms: C_17  and  C_18 
REMARK       I    between atoms: C_18  and  N_19 
REMARK    4  A    between atoms: N_19  and  C_20 
REMARK    5  A    between atoms: C_21  and  C_22 
REMARK       I    between atoms: C_22  and  N_23 
REMARK    6  A    between atoms: N_23  and  C_24 
REMARK    7  A    between atoms: C_24  and  C_25 
ROOT
HETATM    1  C   UNL     1      38.766 -12.424   2.471  1.00  0.00     0.240 C 
ENDROOT
BRANCH   1   2
HETATM    2  N   UNL     1      39.982 -12.454   3.246  1.00  0.00    -0.259 N 
HETATM    3  C   UNL     1      41.215 -12.192   2.741  1.00  0.00     0.326 A 
HETATM    4  N   UNL     1      42.162 -12.540   3.675  1.00  0.00    -0.321 N 
HETATM    5  O   UNL     1      41.483 -11.800   1.618  1.00  0.00    -0.247 OA
HETATM    6  C   UNL     1      41.578 -13.153   4.854  1.00  0.00     0.140 A 
HETATM    7  H   UNL     1      43.147 -12.540   3.451  1.00  0.00     0.165 HD
HETATM    8  C   UNL     1      41.844 -12.257   6.064  1.00  0.00     0.054 C 
HETATM    9  C   UNL     1      40.079 -13.052   4.473  1.00  0.00     0.261 A 
HETATM   10  O   UNL     1      39.142 -13.491   5.128  1.00  0.00    -0.270 OA
BRANCH   6  11
HETATM   11  C   UNL     1      41.998 -14.620   4.978  1.00  0.00    -0.020 A 
HETATM   12  C   UNL     1      43.196 -15.012   5.604  1.00  0.00     0.022 A 
HETATM   13  C   UNL     1      43.526 -16.369   5.797  1.00  0.00    -0.025 A 
HETATM   14  C   UNL     1      42.640 -17.370   5.347  1.00  0.00    -0.026 A 
HETATM   15  C   UNL     1      44.713 -16.751   6.444  1.00  0.00     0.012 A 
HETATM   16  C   UNL     1      41.458 -16.992   4.701  1.00  0.00     0.013 A 
HETATM   17  C   UNL     1      42.953 -18.722   5.566  1.00  0.00     0.012 A 
HETATM   18  C   UNL     1      41.145 -15.642   4.518  1.00  0.00     0.011 A 
HETATM   19  C   UNL     1      44.132 -19.084   6.217  1.00  0.00     0.001 A 
HETATM   20  C   UNL     1      45.014 -18.098   6.654  1.00  0.00     0.001 A 
ENDBRANCH   6  11
ENDBRANCH   1   2
BRANCH   1  21
HETATM   21  C   UNL     1      38.664 -13.520   1.409  1.00  0.00     0.240 C 
HETATM   22  N   UNL     1      38.789 -12.983   0.134  1.00  0.00    -0.325 N 
HETATM   23  H   UNL     1      38.498 -12.016   0.034  1.00  0.00     0.169 HD
HETATM   24  O   UNL     1      38.427 -14.699   1.658  1.00  0.00    -0.271 OA
BRANCH  22  25
HETATM   25  C   UNL     1      38.930 -13.707  -1.068  1.00  0.00     0.050 A 
HETATM   26  C   UNL     1      40.059 -14.440  -1.459  1.00  0.00     0.058 A 
HETATM   27  C   UNL     1      40.087 -15.093  -2.704  1.00  0.00     0.019 A 
HETATM   28  C   UNL     1      38.993 -15.021  -3.565  1.00  0.00     0.001 A 
HETATM   29  C   UNL     1      37.878 -14.276  -3.197  1.00  0.00     0.002 A 
HETATM   30  C   UNL     1      37.853 -13.616  -1.965  1.00  0.00     0.030 A 
BRANCH  26  31
HETATM   31  C   UNL     1      41.361 -14.389  -0.764  1.00  0.00     0.254 C 
HETATM   32  N   UNL     1      41.458 -15.212   0.330  1.00  0.00    -0.351 N 
HETATM   33  H   UNL     1      40.595 -15.309   0.859  1.00  0.00     0.163 HD
HETATM   34  O   UNL     1      42.273 -13.723  -1.236  1.00  0.00    -0.268 OA
BRANCH  32  35
HETATM   35  C   UNL     1      42.673 -15.231   1.109  1.00  0.00     0.187 C 
BRANCH  35  36
HETATM   36  C   UNL     1      42.995 -16.644   1.431  1.00  0.00     0.070 A 
HETATM   37  O   UNL     1      41.976 -17.547   1.342  1.00  0.00    -0.325 OA
HETATM   38  C   UNL     1      42.493 -18.762   1.659  1.00  0.00     0.142 A 
HETATM   39  C   UNL     1      43.832 -18.656   1.950  1.00  0.00     0.027 A 
HETATM   40  C   UNL     1      44.159 -17.287   1.807  1.00  0.00     0.036 A 
ENDBRANCH  35  36
ENDBRANCH  32  35
ENDBRANCH  26  31
ENDBRANCH  22  25
ENDBRANCH   1  21
TORSDOF 7
ENDMDL
MODEL 8
REMARK VINA RESULT:      -9.6      2.147      3.634
REMARK  7 active torsions:
REMARK  status: ('A' for Active; 'I' for Inactive)
REMARK    1  A    between atoms: C_2  and  C_3 
REMARK    2  A    between atoms: N_16  and  C_17 
REMARK    3  A    between atoms: C_17  and  C_18 
REMARK       I    between atoms: C_18  and  N_19 
REMARK    4  A    between atoms: N_19  and  C_20 
REMARK    5  A    between atoms: C_21  and  C_22 
REMARK       I    between atoms: C_22  and  N_23 
REMARK    6  A    between atoms: N_23  and  C_24 
REMARK    7  A    between atoms: C_24  and  C_25 
ROOT
HETATM    1  C   UNL     1      42.338 -12.127   6.274  1.00  0.00     0.240 C 
ENDROOT
BRANCH   1   2
HETATM    2  N   UNL     1      41.751 -13.023   5.308  1.00  0.00    -0.259 N 
HETATM    3  C   UNL     1      40.546 -13.628   5.464  1.00  0.00     0.326 A 
HETATM    4  N   UNL     1      40.400 -14.587   4.489  1.00  0.00    -0.321 N 
HETATM    5  O   UNL     1      39.738 -13.444   6.359  1.00  0.00    -0.247 OA
HETATM    6  C   UNL     1      41.586 -14.725   3.665  1.00  0.00     0.140 A 
HETATM    7  H   UNL     1      39.626 -15.237   4.502  1.00  0.00     0.165 HD
HETATM    8  C   UNL     1      41.243 -14.328   2.228  1.00  0.00     0.054 C 
HETATM    9  C   UNL     1      42.461 -13.612   4.297  1.00  0.00     0.261 A 
HETATM   10  O   UNL     1      43.616 -13.347   3.990  1.00  0.00    -0.270 OA
BRANCH   6  11
HETATM   11  C   UNL     1      42.241 -16.094   3.865  1.00  0.00    -0.020 A 
HETATM   12  C   UNL     1      42.458 -16.988   2.800  1.00  0.00     0.022 A 
HETATM   13  C   UNL     1      43.147 -18.205   2.978  1.00  0.00    -0.025 A 
HETATM   14  C   UNL     1      43.632 -18.547   4.258  1.00  0.00    -0.026 A 
HETATM   15  C   UNL     1      43.380 -19.081   1.905  1.00  0.00     0.012 A 
HETATM   16  C   UNL     1      43.401 -17.677   5.328  1.00  0.00     0.013 A 
HETATM   17  C   UNL     1      44.346 -19.745   4.431  1.00  0.00     0.012 A 
HETATM   18  C   UNL     1      42.715 -16.473   5.134  1.00  0.00     0.011 A 
HETATM   19  C   UNL     1      44.574 -20.600   3.353  1.00  0.00     0.001 A 
HETATM   20  C   UNL     1      44.089 -20.270   2.091  1.00  0.00     0.001 A 
ENDBRANCH   6  11
ENDBRANCH   1   2
BRANCH   1  21
HETATM   21  C   UNL     1      41.364 -11.111   6.870  1.00  0.00     0.240 C 
HETATM   22  N   UNL     1      41.067 -11.429   8.190  1.00  0.00    -0.325 N 
HETATM   23  H   UNL     1      41.138 -12.412   8.432  1.00  0.00     0.169 HD
HETATM   24  O   UNL     1      40.859 -10.188   6.237  1.00  0.00    -0.271 OA
BRANCH  22  25
HETATM   25  C   UNL     1      40.359 -10.623   9.106  1.00  0.00     0.050 A 
HETATM   26  C   UNL     1      40.898  -9.997  10.239  1.00  0.00     0.058 A 
HETATM   27  C   UNL     1      40.074  -9.243  11.094  1.00  0.00     0.019 A 
HETATM   28  C   UNL     1      38.712  -9.109  10.827  1.00  0.00     0.001 A 
HETATM   29  C   UNL     1      38.164  -9.747   9.720  1.00  0.00     0.002 A 
HETATM   30  C   UNL     1      38.979 -10.506   8.874  1.00  0.00     0.030 A 
BRANCH  26  31
HETATM   31  C   UNL     1      42.251 -10.263  10.767  1.00  0.00     0.254 C 
HETATM   32  N   UNL     1      42.635 -11.580  10.720  1.00  0.00    -0.351 N 
HETATM   33  H   UNL     1      41.880 -12.243  10.879  1.00  0.00     0.163 HD
HETATM   34  O   UNL     1      42.961  -9.328  11.112  1.00  0.00    -0.268 OA
BRANCH  32  35
HETATM   35  C   UNL     1      43.926 -11.971  11.233  1.00  0.00     0.187 C 
BRANCH  35  36
HETATM   36  C   UNL     1      44.891 -11.975  10.105  1.00  0.00     0.070 A 
HETATM   37  O   UNL     1      44.839 -13.036   9.248  1.00  0.00    -0.325 OA
HETATM   38  C   UNL     1      45.784 -12.826   8.297  1.00  0.00     0.142 A 
HETATM   39  C   UNL     1      46.447 -11.644   8.528  1.00  0.00     0.027 A 
HETATM   40  C   UNL     1      45.874 -11.094   9.698  1.00  0.00     0.036 A 
ENDBRANCH  35  36
ENDBRANCH  32  35
ENDBRANCH  26  31
ENDBRANCH  22  25
ENDBRANCH   1  21
TORSDOF 7
ENDMDL
MODEL 9
REMARK VINA RESULT:      -9.6      4.260      6.618
REMARK  7 active torsions:
REMARK  status: ('A' for Active; 'I' for Inactive)
REMARK    1  A    between atoms: C_2  and  C_3 
REMARK    2  A    between atoms: N_16  and  C_17 
REMARK    3  A    between atoms: C_17  and  C_18 
REMARK       I    between atoms: C_18  and  N_19 
REMARK    4  A    between atoms: N_19  and  C_20 
REMARK    5  A    between atoms: C_21  and  C_22 
REMARK       I    between atoms: C_22  and  N_23 
REMARK    6  A    between atoms: N_23  and  C_24 
REMARK    7  A    between atoms: C_24  and  C_25 
ROOT
HETATM    1  C   UNL     1      41.504 -13.680   4.405  1.00  0.00     0.240 C 
ENDROOT
BRANCH   1   2
HETATM    2  N   UNL     1      42.267 -14.702   5.077  1.00  0.00    -0.259 N 
HETATM    3  C   UNL     1      43.595 -14.607   5.349  1.00  0.00     0.326 A 
HETATM    4  N   UNL     1      44.052 -15.833   5.770  1.00  0.00    -0.321 N 
HETATM    5  O   UNL     1      44.315 -13.638   5.175  1.00  0.00    -0.247 OA
HETATM    6  C   UNL     1      43.026 -16.858   5.710  1.00  0.00     0.140 A 
HETATM    7  H   UNL     1      45.038 -16.009   5.905  1.00  0.00     0.165 HD
HETATM    8  C   UNL     1      42.734 -17.352   7.128  1.00  0.00     0.054 C 
HETATM    9  C   UNL     1      41.835 -15.992   5.225  1.00  0.00     0.261 A 
HETATM   10  O   UNL     1      40.713 -16.403   4.956  1.00  0.00    -0.270 OA
BRANCH   6  11
HETATM   11  C   UNL     1      43.370 -17.922   4.665  1.00  0.00    -0.020 A 
HETATM   12  C   UNL     1      43.881 -19.186   5.017  1.00  0.00     0.022 A 
HETATM   13  C   UNL     1      44.104 -20.192   4.055  1.00  0.00    -0.025 A 
HETATM   14  C   UNL     1      43.815 -19.933   2.699  1.00  0.00    -0.026 A 
HETATM   15  C   UNL     1      44.592 -21.459   4.417  1.00  0.00     0.012 A 
HETATM   16  C   UNL     1      43.330 -18.672   2.335  1.00  0.00     0.013 A 
HETATM   17  C   UNL     1      44.009 -20.945   1.743  1.00  0.00     0.012 A 
HETATM   18  C   UNL     1      43.114 -17.685   3.302  1.00  0.00     0.011 A 
HETATM   19  C   UNL     1      44.487 -22.200   2.121  1.00  0.00     0.001 A 
HETATM   20  C   UNL     1      44.782 -22.456   3.458  1.00  0.00     0.001 A 
ENDBRANCH   6  11
ENDBRANCH   1   2
BRANCH   1  21
HETATM   21  C   UNL     1      41.706 -13.629   2.890  1.00  0.00     0.240 C 
HETATM   22  N   UNL     1      40.852 -14.519   2.249  1.00  0.00    -0.325 N 
HETATM   23  H   UNL     1      40.570 -15.327   2.793  1.00  0.00     0.169 HD
HETATM   24  O   UNL     1      42.563 -12.948   2.333  1.00  0.00    -0.271 OA
BRANCH  22  25
HETATM   25  C   UNL     1      40.629 -14.609   0.859  1.00  0.00     0.050 A 
HETATM   26  C   UNL     1      39.585 -13.996   0.152  1.00  0.00     0.058 A 
HETATM   27  C   UNL     1      39.453 -14.193  -1.234  1.00  0.00     0.019 A 
HETATM   28  C   UNL     1      40.359 -14.999  -1.923  1.00  0.00     0.001 A 
HETATM   29  C   UNL     1      41.383 -15.630  -1.227  1.00  0.00     0.002 A 
HETATM   30  C   UNL     1      41.510 -15.445   0.153  1.00  0.00     0.030 A 
BRANCH  26  31
HETATM   31  C   UNL     1      38.429 -13.334   0.790  1.00  0.00     0.254 C 
HETATM   32  N   UNL     1      38.613 -12.002   1.064  1.00  0.00    -0.351 N 
HETATM   33  H   UNL     1      39.561 -11.757   1.336  1.00  0.00     0.163 HD
HETATM   34  O   UNL     1      37.385 -13.954   0.943  1.00  0.00    -0.268 OA
BRANCH  32  35
HETATM   35  C   UNL     1      37.564 -11.251   1.713  1.00  0.00     0.187 C 
BRANCH  35  36
HETATM   36  C   UNL     1      38.091 -10.740   3.003  1.00  0.00     0.070 A 
HETATM   37  O   UNL     1      38.654 -11.652   3.848  1.00  0.00    -0.325 OA
HETATM   38  C   UNL     1      39.077 -10.971   4.944  1.00  0.00     0.142 A 
HETATM   39  C   UNL     1      38.795  -9.632   4.818  1.00  0.00     0.027 A 
HETATM   40  C   UNL     1      38.153  -9.480   3.566  1.00  0.00     0.036 A 
ENDBRANCH  35  36
ENDBRANCH  32  35
ENDBRANCH  26  31
ENDBRANCH  22  25
ENDBRANCH   1  21
TORSDOF 7
ENDMDL
MODEL 10
REMARK VINA RESULT:      -9.6      1.973      3.131
REMARK  7 active torsions:
REMARK  status: ('A' for Active; 'I' for Inactive)
REMARK    1  A    between atoms: C_2  and  C_3 
REMARK    2  A    between atoms: N_16  and  C_17 
REMARK    3  A    between atoms: C_17  and  C_18 
REMARK       I    between atoms: C_18  and  N_19 
REMARK    4  A    between atoms: N_19  and  C_20 
REMARK    5  A    between atoms: C_21  and  C_22 
REMARK       I    between atoms: C_22  and  N_23 
REMARK    6  A    between atoms: N_23  and  C_24 
REMARK    7  A    between atoms: C_24  and  C_25 
ROOT
HETATM    1  C   UNL     1      42.069 -13.041   5.467  1.00  0.00     0.240 C 
ENDROOT
BRANCH   1   2
HETATM    2  N   UNL     1      41.659 -14.005   4.476  1.00  0.00    -0.259 N 
HETATM    3  C   UNL     1      40.475 -14.670   4.502  1.00  0.00     0.326 A 
HETATM    4  N   UNL     1      40.507 -15.672   3.562  1.00  0.00    -0.321 N 
HETATM    5  O   UNL     1      39.549 -14.495   5.276  1.00  0.00    -0.247 OA
HETATM    6  C   UNL     1      41.797 -15.776   2.905  1.00  0.00     0.140 A 
HETATM    7  H   UNL     1      39.771 -16.363   3.505  1.00  0.00     0.165 HD
HETATM    8  C   UNL     1      41.626 -15.456   1.420  1.00  0.00     0.054 C 
HETATM    9  C   UNL     1      42.524 -14.593   3.594  1.00  0.00     0.261 A 
HETATM   10  O   UNL     1      43.695 -14.277   3.426  1.00  0.00    -0.270 OA
BRANCH   6  11
HETATM   11  C   UNL     1      42.487 -17.098   3.251  1.00  0.00    -0.020 A 
HETATM   12  C   UNL     1      42.542 -18.178   2.349  1.00  0.00     0.022 A 
HETATM   13  C   UNL     1      43.262 -19.355   2.641  1.00  0.00    -0.025 A 
HETATM   14  C   UNL     1      43.944 -19.465   3.871  1.00  0.00    -0.026 A 
HETATM   15  C   UNL     1      43.332 -20.418   1.726  1.00  0.00     0.012 A 
HETATM   16  C   UNL     1      43.875 -18.407   4.784  1.00  0.00     0.013 A 
HETATM   17  C   UNL     1      44.686 -20.625   4.150  1.00  0.00     0.012 A 
HETATM   18  C   UNL     1      43.157 -17.247   4.480  1.00  0.00     0.011 A 
HETATM   19  C   UNL     1      44.752 -21.668   3.227  1.00  0.00     0.001 A 
HETATM   20  C   UNL     1      44.072 -21.566   2.016  1.00  0.00     0.001 A 
ENDBRANCH   6  11
ENDBRANCH   1   2
BRANCH   1  21
HETATM   21  C   UNL     1      41.429 -11.661   5.311  1.00  0.00     0.240 C 
HETATM   22  N   UNL     1      40.401 -11.488   6.230  1.00  0.00    -0.325 N 
HETATM   23  H   UNL     1      39.937 -12.337   6.535  1.00  0.00     0.169 HD
HETATM   24  O   UNL     1      41.740 -10.853   4.440  1.00  0.00    -0.271 OA
BRANCH  22  25
HETATM   25  C   UNL     1      39.717 -10.285   6.502  1.00  0.00     0.050 A 
HETATM   26  C   UNL     1      39.638  -9.648   7.749  1.00  0.00     0.058 A 
HETATM   27  C   UNL     1      38.892  -8.464   7.896  1.00  0.00     0.019 A 
HETATM   28  C   UNL     1      38.222  -7.910   6.806  1.00  0.00     0.001 A 
HETATM   29  C   UNL     1      38.275  -8.548   5.572  1.00  0.00     0.002 A 
HETATM   30  C   UNL     1      39.006  -9.730   5.425  1.00  0.00     0.030 A 
BRANCH  26  31
HETATM   31  C   UNL     1      40.082 -10.255   9.019  1.00  0.00     0.254 C 
HETATM   32  N   UNL     1      41.010  -9.517   9.711  1.00  0.00    -0.351 N 
HETATM   33  H   UNL     1      41.670  -9.014   9.123  1.00  0.00     0.163 HD
HETATM   34  O   UNL     1      39.553 -11.284   9.416  1.00  0.00    -0.268 OA
BRANCH  32  35
HETATM   35  C   UNL     1      41.543 -10.018  10.956  1.00  0.00     0.187 C 
BRANCH  35  36
HETATM   36  C   UNL     1      42.936 -10.471  10.715  1.00  0.00     0.070 A 
HETATM   37  O   UNL     1      43.220 -10.970   9.477  1.00  0.00    -0.325 OA
HETATM   38  C   UNL     1      44.537 -11.302   9.475  1.00  0.00     0.142 A 
HETATM   39  C   UNL     1      45.107 -11.024  10.694  1.00  0.00     0.027 A 
HETATM   40  C   UNL     1      44.073 -10.490  11.500  1.00  0.00     0.036 A 
ENDBRANCH  35  36
ENDBRANCH  32  35
ENDBRANCH  26  31
ENDBRANCH  22  25
ENDBRANCH   1  21
TORSDOF 7
ENDMDL
