MODEL 1
REMARK VINA RESULT:      -9.2      0.000      0.000
REMARK  6 active torsions:
REMARK  status: ('A' for Active; 'I' for Inactive)
REMARK    1  A    between atoms: C_5  and  N_6 
REMARK    2  A    between atoms: C_8  and  C_9 
REMARK    3  A    between atoms: C_16  and  C_17 
REMARK    4  A    between atoms: C_17  and  N_18 
REMARK    5  A    between atoms: C_22  and  N_23 
REMARK    6  A    between atoms: C_26  and  O_27 
ROOT
HETATM    1  N   UNL     1      42.164 -17.432   2.266  1.00  0.00    -0.244 N 
HETATM    2  N   UNL     1      42.283 -17.037   0.979  1.00  0.00    -0.167 NA
HETATM    3  C   UNL     1      41.463 -15.997   0.823  1.00  0.00     0.097 A 
HETATM    4  C   UNL     1      40.675 -15.790   1.989  1.00  0.00     0.016 A 
HETATM    5  C   UNL     1      41.194 -16.685   2.907  1.00  0.00     0.130 A 
ENDROOT
BRANCH   4   6
HETATM    6  C   UNL     1      39.568 -14.828   2.199  1.00  0.00     0.277 C 
BRANCH   6   7
HETATM    7  N   UNL     1      39.855 -13.733   3.252  1.00  0.00    -0.067 N 
HETATM    8  H   UNL     1      39.149 -13.006   3.047  1.00  0.00     0.280 HD
HETATM    9  C   UNL     1      39.619 -14.217   4.655  1.00  0.00     0.237 C 
HETATM   10  C   UNL     1      39.966 -13.147   5.668  1.00  0.00     0.061 C 
HETATM   11  C   UNL     1      41.381 -12.591   5.536  1.00  0.00     0.191 C 
HETATM   12  C   UNL     1      41.660 -12.169   4.091  1.00  0.00     0.061 C 
HETATM   13  C   UNL     1      41.224 -13.155   3.008  1.00  0.00     0.237 C 
BRANCH  11  14
HETATM   14  N   UNL     1      42.472 -13.460   6.164  1.00  0.00    -0.064 N 
HETATM   15  H   UNL     1      41.982 -14.013   6.903  1.00  0.00     0.280 HD
HETATM   16  C   UNL     1      42.942 -14.618   5.253  1.00  0.00     0.266 C 
HETATM   17  C   UNL     1      43.573 -15.685   6.151  1.00  0.00     0.144 C 
HETATM   18  C   UNL     1      44.798 -15.110   6.855  1.00  0.00     0.035 C 
HETATM   19  C   UNL     1      44.428 -13.881   7.681  1.00  0.00     0.030 C 
HETATM   20  C   UNL     1      43.638 -12.839   6.894  1.00  0.00     0.235 C 
BRANCH  17  21
HETATM   21  O   UNL     1      42.584 -16.011   7.134  1.00  0.00    -0.394 OA
HETATM   22  H   UNL     1      41.750 -15.570   6.865  1.00  0.00     0.210 HD
ENDBRANCH  17  21
ENDBRANCH  11  14
ENDBRANCH   6   7
ENDBRANCH   4   6
BRANCH   3  23
HETATM   23  C   UNL     1      41.425 -15.264  -0.438  1.00  0.00    -0.005 A 
HETATM   24  C   UNL     1      41.037 -15.913  -1.618  1.00  0.00     0.017 A 
HETATM   25  C   UNL     1      40.993 -15.208  -2.824  1.00  0.00     0.043 A 
HETATM   26  C   UNL     1      41.345 -13.863  -2.846  1.00  0.00     0.116 A 
HETATM   27  F   UNL     1      41.296 -13.187  -4.000  1.00  0.00    -0.206 F 
HETATM   28  C   UNL     1      41.755 -13.211  -1.689  1.00  0.00     0.043 A 
HETATM   29  C   UNL     1      41.803 -13.912  -0.483  1.00  0.00     0.017 A 
ENDBRANCH   3  23
BRANCH   1  30
HETATM   30  C   UNL     1      42.920 -18.516   2.788  1.00  0.00     0.058 A 
HETATM   31  C   UNL     1      43.288 -18.510   4.140  1.00  0.00     0.032 A 
HETATM   32  C   UNL     1      44.043 -19.560   4.672  1.00  0.00     0.009 A 
HETATM   33  C   UNL     1      44.447 -20.624   3.861  1.00  0.00    -0.062 A 
HETATM   34  C   UNL     1      45.244 -21.765   4.426  1.00  0.00     0.048 C 
HETATM   35  C   UNL     1      44.071 -20.635   2.514  1.00  0.00     0.009 A 
HETATM   36  C   UNL     1      43.311 -19.589   1.977  1.00  0.00     0.032 A 
ENDBRANCH   1  30
TORSDOF 6
ENDMDL
MODEL 2
REMARK VINA RESULT:      -9.2      2.439      3.359
REMARK  6 active torsions:
REMARK  status: ('A' for Active; 'I' for Inactive)
REMARK    1  A    between atoms: C_5  and  N_6 
REMARK    2  A    between atoms: C_8  and  C_9 
REMARK    3  A    between atoms: C_16  and  C_17 
REMARK    4  A    between atoms: C_17  and  N_18 
REMARK    5  A    between atoms: C_22  and  N_23 
REMARK    6  A    between atoms: C_26  and  O_27 
ROOT
HETATM    1  N   UNL     1      42.997 -16.949   3.662  1.00  0.00    -0.244 N 
HETATM    2  N   UNL     1      41.943 -16.807   2.829  1.00  0.00    -0.167 NA
HETATM    3  C   UNL     1      41.722 -15.497   2.713  1.00  0.00     0.097 A 
HETATM    4  C   UNL     1      42.553 -14.760   3.602  1.00  0.00     0.016 A 
HETATM    5  C   UNL     1      43.394 -15.716   4.145  1.00  0.00     0.130 A 
ENDROOT
BRANCH   4   6
HETATM    6  C   UNL     1      42.551 -13.305   3.878  1.00  0.00     0.277 C 
BRANCH   6   7
HETATM    7  N   UNL     1      41.241 -12.766   4.497  1.00  0.00    -0.067 N 
HETATM    8  H   UNL     1      40.538 -12.919   3.754  1.00  0.00     0.280 HD
HETATM    9  C   UNL     1      40.813 -13.560   5.700  1.00  0.00     0.237 C 
HETATM   10  C   UNL     1      39.563 -12.975   6.323  1.00  0.00     0.061 C 
HETATM   11  C   UNL     1      39.672 -11.496   6.682  1.00  0.00     0.191 C 
HETATM   12  C   UNL     1      40.186 -10.689   5.486  1.00  0.00     0.061 C 
HETATM   13  C   UNL     1      41.374 -11.285   4.736  1.00  0.00     0.237 C 
BRANCH  11  14
HETATM   14  N   UNL     1      40.395 -11.207   7.998  1.00  0.00    -0.064 N 
HETATM   15  H   UNL     1      41.008 -12.038   8.156  1.00  0.00     0.280 HD
HETATM   16  C   UNL     1      41.481 -10.112   7.880  1.00  0.00     0.266 C 
HETATM   17  C   UNL     1      42.461 -10.305   9.041  1.00  0.00     0.144 C 
HETATM   18  C   UNL     1      41.735 -10.111  10.368  1.00  0.00     0.035 C 
HETATM   19  C   UNL     1      40.565 -11.083  10.500  1.00  0.00     0.030 C 
HETATM   20  C   UNL     1      39.631 -11.072   9.293  1.00  0.00     0.235 C 
BRANCH  17  21
HETATM   21  O   UNL     1      42.912 -11.662   8.955  1.00  0.00    -0.394 OA
HETATM   22  H   UNL     1      42.118 -12.237   8.984  1.00  0.00     0.210 HD
ENDBRANCH  17  21
ENDBRANCH  11  14
ENDBRANCH   6   7
ENDBRANCH   4   6
BRANCH   3  23
HETATM   23  C   UNL     1      40.705 -14.994   1.796  1.00  0.00    -0.005 A 
HETATM   24  C   UNL     1      39.363 -14.938   2.195  1.00  0.00     0.017 A 
HETATM   25  C   UNL     1      38.391 -14.447   1.320  1.00  0.00     0.043 A 
HETATM   26  C   UNL     1      38.762 -14.024   0.049  1.00  0.00     0.116 A 
HETATM   27  F   UNL     1      37.832 -13.548  -0.787  1.00  0.00    -0.206 F 
HETATM   28  C   UNL     1      40.086 -14.095  -0.371  1.00  0.00     0.043 A 
HETATM   29  C   UNL     1      41.060 -14.587   0.500  1.00  0.00     0.017 A 
ENDBRANCH   3  23
BRANCH   1  30
HETATM   30  C   UNL     1      43.520 -18.227   3.996  1.00  0.00     0.058 A 
HETATM   31  C   UNL     1      43.581 -18.616   5.341  1.00  0.00     0.032 A 
HETATM   32  C   UNL     1      44.104 -19.864   5.692  1.00  0.00     0.009 A 
HETATM   33  C   UNL     1      44.581 -20.736   4.710  1.00  0.00    -0.062 A 
HETATM   34  C   UNL     1      45.130 -22.085   5.076  1.00  0.00     0.048 C 
HETATM   35  C   UNL     1      44.510 -20.351   3.366  1.00  0.00     0.009 A 
HETATM   36  C   UNL     1      43.983 -19.106   3.007  1.00  0.00     0.032 A 
ENDBRANCH   1  30
TORSDOF 6
ENDMDL
MODEL 3
REMARK VINA RESULT:      -9.1      3.123      7.520
REMARK  6 active torsions:
REMARK  status: ('A' for Active; 'I' for Inactive)
REMARK    1  A    between atoms: C_5  and  N_6 
REMARK    2  A    between atoms: C_8  and  C_9 
REMARK    3  A    between atoms: C_16  and  C_17 
REMARK    4  A    between atoms: C_17  and  N_18 
REMARK    5  A    between atoms: C_22  and  N_23 
REMARK    6  A    between atoms: C_26  and  O_27 
ROOT
HETATM    1  N   UNL     1      43.239 -13.967   5.832  1.00  0.00    -0.244 N 
HETATM    2  N   UNL     1      43.700 -15.178   5.447  1.00  0.00    -0.167 NA
HETATM    3  C   UNL     1      42.961 -15.551   4.402  1.00  0.00     0.097 A 
HETATM    4  C   UNL     1      41.894 -14.637   4.179  1.00  0.00     0.016 A 
HETATM    5  C   UNL     1      42.142 -13.610   5.073  1.00  0.00     0.130 A 
ENDROOT
BRANCH   4   6
HETATM    6  C   UNL     1      40.781 -14.732   3.206  1.00  0.00     0.277 C 
BRANCH   6   7
HETATM    7  N   UNL     1      40.765 -13.620   2.132  1.00  0.00    -0.067 N 
HETATM    8  H   UNL     1      40.942 -12.756   2.673  1.00  0.00     0.280 HD
HETATM    9  C   UNL     1      41.881 -13.773   1.137  1.00  0.00     0.237 C 
HETATM   10  C   UNL     1      41.805 -12.708   0.064  1.00  0.00     0.061 C 
HETATM   11  C   UNL     1      40.463 -12.639  -0.659  1.00  0.00     0.191 C 
HETATM   12  C   UNL     1      39.313 -12.564   0.348  1.00  0.00     0.061 C 
HETATM   13  C   UNL     1      39.389 -13.533   1.526  1.00  0.00     0.237 C 
BRANCH  11  14
HETATM   14  N   UNL     1      40.274 -13.683  -1.761  1.00  0.00    -0.064 N 
HETATM   15  H   UNL     1      40.887 -13.361  -2.543  1.00  0.00     0.280 HD
HETATM   16  C   UNL     1      40.953 -15.038  -1.452  1.00  0.00     0.266 C 
HETATM   17  C   UNL     1      41.172 -15.760  -2.784  1.00  0.00     0.144 C 
HETATM   18  C   UNL     1      39.827 -16.044  -3.445  1.00  0.00     0.035 C 
HETATM   19  C   UNL     1      39.043 -14.753  -3.670  1.00  0.00     0.030 C 
HETATM   20  C   UNL     1      38.930 -13.889  -2.417  1.00  0.00     0.235 C 
BRANCH  17  21
HETATM   21  O   UNL     1      41.911 -14.852  -3.609  1.00  0.00    -0.394 OA
HETATM   22  H   UNL     1      42.388 -15.387  -4.278  1.00  0.00     0.210 HD
ENDBRANCH  17  21
ENDBRANCH  11  14
ENDBRANCH   6   7
ENDBRANCH   4   6
BRANCH   3  23
HETATM   23  C   UNL     1      43.267 -16.779   3.677  1.00  0.00    -0.005 A 
HETATM   24  C   UNL     1      43.180 -18.019   4.324  1.00  0.00     0.017 A 
HETATM   25  C   UNL     1      43.465 -19.196   3.627  1.00  0.00     0.043 A 
HETATM   26  C   UNL     1      43.845 -19.128   2.291  1.00  0.00     0.116 A 
HETATM   27  F   UNL     1      44.111 -20.256   1.622  1.00  0.00    -0.206 F 
HETATM   28  C   UNL     1      43.959 -17.904   1.641  1.00  0.00     0.043 A 
HETATM   29  C   UNL     1      43.678 -16.726   2.334  1.00  0.00     0.017 A 
ENDBRANCH   3  23
BRANCH   1  30
HETATM   30  C   UNL     1      43.817 -13.259   6.920  1.00  0.00     0.058 A 
HETATM   31  C   UNL     1      43.067 -12.273   7.576  1.00  0.00     0.032 A 
HETATM   32  C   UNL     1      43.621 -11.555   8.639  1.00  0.00     0.009 A 
HETATM   33  C   UNL     1      44.931 -11.803   9.057  1.00  0.00    -0.062 A 
HETATM   34  C   UNL     1      45.530 -11.047  10.209  1.00  0.00     0.048 C 
HETATM   35  C   UNL     1      45.677 -12.793   8.408  1.00  0.00     0.009 A 
HETATM   36  C   UNL     1      45.127 -13.520   7.346  1.00  0.00     0.032 A 
ENDBRANCH   1  30
TORSDOF 6
ENDMDL
MODEL 4
REMARK VINA RESULT:      -8.8      3.139      6.194
REMARK  6 active torsions:
REMARK  status: ('A' for Active; 'I' for Inactive)
REMARK    1  A    between atoms: C_5  and  N_6 
REMARK    2  A    between atoms: C_8  and  C_9 
REMARK    3  A    between atoms: C_16  and  C_17 
REMARK    4  A    between atoms: C_17  and  N_18 
REMARK    5  A    between atoms: C_22  and  N_23 
REMARK    6  A    between atoms: C_26  and  O_27 
ROOT
HETATM    1  N   UNL     1      41.597 -16.924   3.295  1.00  0.00    -0.244 N 
HETATM    2  N   UNL     1      41.650 -15.800   4.044  1.00  0.00    -0.167 NA
HETATM    3  C   UNL     1      40.657 -15.016   3.623  1.00  0.00     0.097 A 
HETATM    4  C   UNL     1      40.024 -15.567   2.475  1.00  0.00     0.016 A 
HETATM    5  C   UNL     1      40.611 -16.812   2.334  1.00  0.00     0.130 A 
ENDROOT
BRANCH   4   6
HETATM    6  C   UNL     1      38.963 -14.973   1.628  1.00  0.00     0.277 C 
BRANCH   6   7
HETATM    7  N   UNL     1      39.356 -14.776   0.145  1.00  0.00    -0.067 N 
HETATM    8  H   UNL     1      38.976 -15.617  -0.322  1.00  0.00     0.280 HD
HETATM    9  C   UNL     1      38.690 -13.574  -0.465  1.00  0.00     0.237 C 
HETATM   10  C   UNL     1      39.139 -13.369  -1.896  1.00  0.00     0.061 C 
HETATM   11  C   UNL     1      40.651 -13.277  -2.074  1.00  0.00     0.191 C 
HETATM   12  C   UNL     1      41.346 -14.455  -1.386  1.00  0.00     0.061 C 
HETATM   13  C   UNL     1      40.857 -14.794   0.021  1.00  0.00     0.237 C 
BRANCH  11  14
HETATM   14  N   UNL     1      41.253 -11.909  -1.749  1.00  0.00    -0.064 N 
HETATM   15  H   UNL     1      41.211 -11.838  -0.708  1.00  0.00     0.280 HD
HETATM   16  C   UNL     1      42.786 -11.847  -1.943  1.00  0.00     0.266 C 
HETATM   17  C   UNL     1      43.313 -10.686  -1.094  1.00  0.00     0.144 C 
HETATM   18  C   UNL     1      42.719  -9.372  -1.590  1.00  0.00     0.035 C 
HETATM   19  C   UNL     1      41.193  -9.408  -1.543  1.00  0.00     0.030 C 
HETATM   20  C   UNL     1      40.596 -10.636  -2.224  1.00  0.00     0.235 C 
BRANCH  17  21
HETATM   21  O   UNL     1      42.849 -10.929   0.239  1.00  0.00    -0.394 OA
HETATM   22  H   UNL     1      42.039 -10.392   0.369  1.00  0.00     0.210 HD
ENDBRANCH  17  21
ENDBRANCH  11  14
ENDBRANCH   6   7
ENDBRANCH   4   6
BRANCH   3  23
HETATM   23  C   UNL     1      40.370 -13.755   4.298  1.00  0.00    -0.005 A 
HETATM   24  C   UNL     1      40.731 -12.539   3.702  1.00  0.00     0.017 A 
HETATM   25  C   UNL     1      40.448 -11.331   4.344  1.00  0.00     0.043 A 
HETATM   26  C   UNL     1      39.815 -11.343   5.582  1.00  0.00     0.116 A 
HETATM   27  F   UNL     1      39.539 -10.186   6.193  1.00  0.00    -0.206 F 
HETATM   28  C   UNL     1      39.472 -12.541   6.198  1.00  0.00     0.043 A 
HETATM   29  C   UNL     1      39.755 -13.751   5.560  1.00  0.00     0.017 A 
ENDBRANCH   3  23
BRANCH   1  30
HETATM   30  C   UNL     1      42.509 -17.996   3.491  1.00  0.00     0.058 A 
HETATM   31  C   UNL     1      43.032 -18.229   4.770  1.00  0.00     0.032 A 
HETATM   32  C   UNL     1      43.941 -19.270   4.982  1.00  0.00     0.009 A 
HETATM   33  C   UNL     1      44.346 -20.085   3.922  1.00  0.00    -0.062 A 
HETATM   34  C   UNL     1      45.310 -21.216   4.143  1.00  0.00     0.048 C 
HETATM   35  C   UNL     1      43.816 -19.858   2.647  1.00  0.00     0.009 A 
HETATM   36  C   UNL     1      42.902 -18.821   2.429  1.00  0.00     0.032 A 
ENDBRANCH   1  30
TORSDOF 6
ENDMDL
MODEL 5
REMARK VINA RESULT:      -8.8      3.402      7.288
REMARK  6 active torsions:
REMARK  status: ('A' for Active; 'I' for Inactive)
REMARK    1  A    between atoms: C_5  and  N_6 
REMARK    2  A    between atoms: C_8  and  C_9 
REMARK    3  A    between atoms: C_16  and  C_17 
REMARK    4  A    between atoms: C_17  and  N_18 
REMARK    5  A    between atoms: C_22  and  N_23 
REMARK    6  A    between atoms: C_26  and  O_27 
ROOT
HETATM    1  N   UNL     1      42.868 -17.317   2.779  1.00  0.00    -0.244 N 
HETATM    2  N   UNL     1      42.552 -16.569   3.858  1.00  0.00    -0.167 NA
HETATM    3  C   UNL     1      42.078 -15.412   3.394  1.00  0.00     0.097 A 
HETATM    4  C   UNL     1      42.218 -15.334   1.981  1.00  0.00     0.016 A 
HETATM    5  C   UNL     1      42.670 -16.592   1.620  1.00  0.00     0.130 A 
ENDROOT
BRANCH   4   6
HETATM    6  C   UNL     1      41.932 -14.190   1.084  1.00  0.00     0.277 C 
BRANCH   6   7
HETATM    7  N   UNL     1      41.991 -14.522  -0.425  1.00  0.00    -0.067 N 
HETATM    8  H   UNL     1      42.955 -14.874  -0.560  1.00  0.00     0.280 HD
HETATM    9  C   UNL     1      41.044 -15.627  -0.802  1.00  0.00     0.237 C 
HETATM   10  C   UNL     1      41.078 -15.890  -2.292  1.00  0.00     0.061 C 
HETATM   11  C   UNL     1      40.816 -14.658  -3.154  1.00  0.00     0.191 C 
HETATM   12  C   UNL     1      41.720 -13.499  -2.724  1.00  0.00     0.061 C 
HETATM   13  C   UNL     1      41.826 -13.254  -1.220  1.00  0.00     0.237 C 
BRANCH  11  14
HETATM   14  N   UNL     1      39.341 -14.286  -3.310  1.00  0.00    -0.064 N 
HETATM   15  H   UNL     1      38.960 -14.286  -2.337  1.00  0.00     0.280 HD
HETATM   16  C   UNL     1      39.112 -12.800  -3.670  1.00  0.00     0.266 C 
HETATM   17  C   UNL     1      37.682 -12.439  -3.259  1.00  0.00     0.144 C 
HETATM   18  C   UNL     1      36.688 -13.277  -4.057  1.00  0.00     0.035 C 
HETATM   19  C   UNL     1      36.935 -14.769  -3.844  1.00  0.00     0.030 C 
HETATM   20  C   UNL     1      38.389 -15.178  -4.069  1.00  0.00     0.235 C 
BRANCH  17  21
HETATM   21  O   UNL     1      37.570 -12.783  -1.873  1.00  0.00    -0.394 OA
HETATM   22  H   UNL     1      38.478 -12.805  -1.504  1.00  0.00     0.210 HD
ENDBRANCH  17  21
ENDBRANCH  11  14
ENDBRANCH   6   7
ENDBRANCH   4   6
BRANCH   3  23
HETATM   23  C   UNL     1      41.548 -14.407   4.309  1.00  0.00    -0.005 A 
HETATM   24  C   UNL     1      42.348 -13.330   4.713  1.00  0.00     0.017 A 
HETATM   25  C   UNL     1      41.837 -12.363   5.582  1.00  0.00     0.043 A 
HETATM   26  C   UNL     1      40.533 -12.481   6.050  1.00  0.00     0.116 A 
HETATM   27  F   UNL     1      40.042 -11.551   6.877  1.00  0.00    -0.206 F 
HETATM   28  C   UNL     1      39.733 -13.556   5.678  1.00  0.00     0.043 A 
HETATM   29  C   UNL     1      40.241 -14.525   4.811  1.00  0.00     0.017 A 
ENDBRANCH   3  23
BRANCH   1  30
HETATM   30  C   UNL     1      43.389 -18.633   2.907  1.00  0.00     0.058 A 
HETATM   31  C   UNL     1      43.197 -19.553   1.868  1.00  0.00     0.032 A 
HETATM   32  C   UNL     1      43.689 -20.857   1.979  1.00  0.00     0.009 A 
HETATM   33  C   UNL     1      44.371 -21.262   3.130  1.00  0.00    -0.062 A 
HETATM   34  C   UNL     1      44.918 -22.656   3.252  1.00  0.00     0.048 C 
HETATM   35  C   UNL     1      44.571 -20.340   4.163  1.00  0.00     0.009 A 
HETATM   36  C   UNL     1      44.085 -19.032   4.056  1.00  0.00     0.032 A 
ENDBRANCH   1  30
TORSDOF 6
ENDMDL
MODEL 6
REMARK VINA RESULT:      -8.7      3.538      6.481
REMARK  6 active torsions:
REMARK  status: ('A' for Active; 'I' for Inactive)
REMARK    1  A    between atoms: C_5  and  N_6 
REMARK    2  A    between atoms: C_8  and  C_9 
REMARK    3  A    between atoms: C_16  and  C_17 
REMARK    4  A    between atoms: C_17  and  N_18 
REMARK    5  A    between atoms: C_22  and  N_23 
REMARK    6  A    between atoms: C_26  and  O_27 
ROOT
HETATM    1  N   UNL     1      40.830 -15.039   2.093  1.00  0.00    -0.244 N 
HETATM    2  N   UNL     1      41.924 -15.669   2.575  1.00  0.00    -0.167 NA
HETATM    3  C   UNL     1      41.826 -15.637   3.904  1.00  0.00     0.097 A 
HETATM    4  C   UNL     1      40.721 -14.842   4.316  1.00  0.00     0.016 A 
HETATM    5  C   UNL     1      40.076 -14.529   3.132  1.00  0.00     0.130 A 
ENDROOT
BRANCH   4   6
HETATM    6  C   UNL     1      40.323 -14.449   5.687  1.00  0.00     0.277 C 
BRANCH   6   7
HETATM    7  N   UNL     1      40.353 -12.928   5.958  1.00  0.00    -0.067 N 
HETATM    8  H   UNL     1      40.073 -12.513   5.052  1.00  0.00     0.280 HD
HETATM    9  C   UNL     1      39.336 -12.512   6.984  1.00  0.00     0.237 C 
HETATM   10  C   UNL     1      39.428 -11.029   7.275  1.00  0.00     0.061 C 
HETATM   11  C   UNL     1      40.817 -10.556   7.692  1.00  0.00     0.191 C 
HETATM   12  C   UNL     1      41.873 -11.043   6.695  1.00  0.00     0.061 C 
HETATM   13  C   UNL     1      41.765 -12.504   6.265  1.00  0.00     0.237 C 
BRANCH  11  14
HETATM   14  N   UNL     1      41.167 -10.808   9.159  1.00  0.00    -0.064 N 
HETATM   15  H   UNL     1      41.542 -11.782   9.182  1.00  0.00     0.280 HD
HETATM   16  C   UNL     1      42.424 -10.043   9.635  1.00  0.00     0.266 C 
HETATM   17  C   UNL     1      42.971 -10.772  10.865  1.00  0.00     0.144 C 
HETATM   18  C   UNL     1      41.941 -10.734  11.989  1.00  0.00     0.035 C 
HETATM   19  C   UNL     1      40.623 -11.366  11.546  1.00  0.00     0.030 C 
HETATM   20  C   UNL     1      40.099 -10.807  10.226  1.00  0.00     0.235 C 
BRANCH  17  21
HETATM   21  O   UNL     1      43.167 -12.134  10.463  1.00  0.00    -0.394 OA
HETATM   22  H   UNL     1      42.861 -12.211   9.535  1.00  0.00     0.210 HD
ENDBRANCH  17  21
ENDBRANCH  11  14
ENDBRANCH   6   7
ENDBRANCH   4   6
BRANCH   3  23
HETATM   23  C   UNL     1      42.806 -16.326   4.737  1.00  0.00    -0.005 A 
HETATM   24  C   UNL     1      43.191 -17.639   4.433  1.00  0.00     0.017 A 
HETATM   25  C   UNL     1      44.136 -18.295   5.225  1.00  0.00     0.043 A 
HETATM   26  C   UNL     1      44.684 -17.641   6.323  1.00  0.00     0.116 A 
HETATM   27  F   UNL     1      45.593 -18.267   7.078  1.00  0.00    -0.206 F 
HETATM   28  C   UNL     1      44.296 -16.347   6.653  1.00  0.00     0.043 A 
HETATM   29  C   UNL     1      43.350 -15.689   5.865  1.00  0.00     0.017 A 
ENDBRANCH   3  23
BRANCH   1  30
HETATM   30  C   UNL     1      40.599 -14.904   0.698  1.00  0.00     0.058 A 
HETATM   31  C   UNL     1      39.634 -13.994   0.245  1.00  0.00     0.032 A 
HETATM   32  C   UNL     1      39.380 -13.856  -1.123  1.00  0.00     0.009 A 
HETATM   33  C   UNL     1      40.078 -14.628  -2.056  1.00  0.00    -0.062 A 
HETATM   34  C   UNL     1      39.825 -14.475  -3.528  1.00  0.00     0.048 C 
HETATM   35  C   UNL     1      41.048 -15.530  -1.604  1.00  0.00     0.009 A 
HETATM   36  C   UNL     1      41.310 -15.669  -0.236  1.00  0.00     0.032 A 
ENDBRANCH   1  30
TORSDOF 6
ENDMDL
MODEL 7
REMARK VINA RESULT:      -8.7      2.508      3.959
REMARK  6 active torsions:
REMARK  status: ('A' for Active; 'I' for Inactive)
REMARK    1  A    between atoms: C_5  and  N_6 
REMARK    2  A    between atoms: C_8  and  C_9 
REMARK    3  A    between atoms: C_16  and  C_17 
REMARK    4  A    between atoms: C_17  and  N_18 
REMARK    5  A    between atoms: C_22  and  N_23 
REMARK    6  A    between atoms: C_26  and  O_27 
ROOT
HETATM    1  N   UNL     1      42.043 -17.255   2.171  1.00  0.00    -0.244 N 
HETATM    2  N   UNL     1      42.237 -16.872   0.890  1.00  0.00    -0.167 NA
HETATM    3  C   UNL     1      41.381 -15.876   0.658  1.00  0.00     0.097 A 
HETATM    4  C   UNL     1      40.501 -15.692   1.760  1.00  0.00     0.016 A 
HETATM    5  C   UNL     1      40.995 -16.549   2.729  1.00  0.00     0.130 A 
ENDROOT
BRANCH   4   6
HETATM    6  C   UNL     1      39.337 -14.783   1.874  1.00  0.00     0.277 C 
BRANCH   6   7
HETATM    7  N   UNL     1      39.548 -13.579   2.820  1.00  0.00    -0.067 N 
HETATM    8  H   UNL     1      39.213 -13.925   3.736  1.00  0.00     0.280 HD
HETATM    9  C   UNL     1      41.000 -13.221   2.970  1.00  0.00     0.237 C 
HETATM   10  C   UNL     1      41.174 -12.002   3.851  1.00  0.00     0.061 C 
HETATM   11  C   UNL     1      40.377 -10.782   3.400  1.00  0.00     0.191 C 
HETATM   12  C   UNL     1      38.910 -11.154   3.166  1.00  0.00     0.061 C 
HETATM   13  C   UNL     1      38.662 -12.442   2.384  1.00  0.00     0.237 C 
BRANCH  11  14
HETATM   14  N   UNL     1      41.017  -9.982   2.264  1.00  0.00    -0.064 N 
HETATM   15  H   UNL     1      42.023 -10.262   2.273  1.00  0.00     0.280 HD
HETATM   16  C   UNL     1      40.628 -10.489   0.856  1.00  0.00     0.266 C 
HETATM   17  C   UNL     1      41.707 -10.013  -0.121  1.00  0.00     0.144 C 
HETATM   18  C   UNL     1      41.735  -8.489  -0.158  1.00  0.00     0.035 C 
HETATM   19  C   UNL     1      41.994  -7.912   1.232  1.00  0.00     0.030 C 
HETATM   20  C   UNL     1      41.062  -8.474   2.302  1.00  0.00     0.235 C 
BRANCH  17  21
HETATM   21  O   UNL     1      42.952 -10.487   0.404  1.00  0.00    -0.394 OA
HETATM   22  H   UNL     1      42.884 -11.463   0.481  1.00  0.00     0.210 HD
ENDBRANCH  17  21
ENDBRANCH  11  14
ENDBRANCH   6   7
ENDBRANCH   4   6
BRANCH   3  23
HETATM   23  C   UNL     1      41.399 -15.162  -0.614  1.00  0.00    -0.005 A 
HETATM   24  C   UNL     1      41.793 -13.818  -0.662  1.00  0.00     0.017 A 
HETATM   25  C   UNL     1      41.819 -13.137  -1.881  1.00  0.00     0.043 A 
HETATM   26  C   UNL     1      41.443 -13.799  -3.045  1.00  0.00     0.116 A 
HETATM   27  F   UNL     1      41.475 -13.148  -4.214  1.00  0.00    -0.206 F 
HETATM   28  C   UNL     1      41.028 -15.125  -3.012  1.00  0.00     0.043 A 
HETATM   29  C   UNL     1      40.998 -15.808  -1.795  1.00  0.00     0.017 A 
ENDBRANCH   3  23
BRANCH   1  30
HETATM   30  C   UNL     1      42.810 -18.294   2.764  1.00  0.00     0.058 A 
HETATM   31  C   UNL     1      43.118 -18.228   4.130  1.00  0.00     0.032 A 
HETATM   32  C   UNL     1      43.883 -19.233   4.731  1.00  0.00     0.009 A 
HETATM   33  C   UNL     1      44.357 -20.310   3.978  1.00  0.00    -0.062 A 
HETATM   34  C   UNL     1      45.165 -21.402   4.617  1.00  0.00     0.048 C 
HETATM   35  C   UNL     1      44.041 -20.381   2.616  1.00  0.00     0.009 A 
HETATM   36  C   UNL     1      43.272 -19.381   2.010  1.00  0.00     0.032 A 
ENDBRANCH   1  30
TORSDOF 6
ENDMDL
MODEL 8
REMARK VINA RESULT:      -8.6      3.348      6.688
REMARK  6 active torsions:
REMARK  status: ('A' for Active; 'I' for Inactive)
REMARK    1  A    between atoms: C_5  and  N_6 
REMARK    2  A    between atoms: C_8  and  C_9 
REMARK    3  A    between atoms: C_16  and  C_17 
REMARK    4  A    between atoms: C_17  and  N_18 
REMARK    5  A    between atoms: C_22  and  N_23 
REMARK    6  A    between atoms: C_26  and  O_27 
ROOT
HETATM    1  N   UNL     1      43.116 -16.773   4.025  1.00  0.00    -0.244 N 
HETATM    2  N   UNL     1      42.532 -16.031   4.990  1.00  0.00    -0.167 NA
HETATM    3  C   UNL     1      42.184 -14.875   4.423  1.00  0.00     0.097 A 
HETATM    4  C   UNL     1      42.679 -14.791   3.092  1.00  0.00     0.016 A 
HETATM    5  C   UNL     1      43.215 -16.045   2.855  1.00  0.00     0.130 A 
ENDROOT
BRANCH   4   6
HETATM    6  C   UNL     1      42.622 -13.647   2.153  1.00  0.00     0.277 C 
BRANCH   6   7
HETATM    7  N   UNL     1      41.198 -13.253   1.699  1.00  0.00    -0.067 N 
HETATM    8  H   UNL     1      40.836 -12.692   2.490  1.00  0.00     0.280 HD
HETATM    9  C   UNL     1      41.212 -12.372   0.482  1.00  0.00     0.237 C 
HETATM   10  C   UNL     1      39.805 -12.052   0.023  1.00  0.00     0.061 C 
HETATM   11  C   UNL     1      38.932 -13.278  -0.227  1.00  0.00     0.191 C 
HETATM   12  C   UNL     1      38.974 -14.223   0.977  1.00  0.00     0.061 C 
HETATM   13  C   UNL     1      40.356 -14.495   1.567  1.00  0.00     0.237 C 
BRANCH  11  14
HETATM   14  N   UNL     1      39.156 -13.961  -1.577  1.00  0.00    -0.064 N 
HETATM   15  H   UNL     1      39.605 -13.232  -2.175  1.00  0.00     0.280 HD
HETATM   16  C   UNL     1      40.295 -15.007  -1.559  1.00  0.00     0.266 C 
HETATM   17  C   UNL     1      40.776 -15.191  -3.000  1.00  0.00     0.144 C 
HETATM   18  C   UNL     1      39.642 -15.741  -3.858  1.00  0.00     0.035 C 
HETATM   19  C   UNL     1      38.430 -14.814  -3.824  1.00  0.00     0.030 C 
HETATM   20  C   UNL     1      37.993 -14.443  -2.409  1.00  0.00     0.235 C 
BRANCH  17  21
HETATM   21  O   UNL     1      41.121 -13.884  -3.472  1.00  0.00    -0.394 OA
HETATM   22  H   UNL     1      42.074 -13.899  -3.706  1.00  0.00     0.210 HD
ENDBRANCH  17  21
ENDBRANCH  11  14
ENDBRANCH   6   7
ENDBRANCH   4   6
BRANCH   3  23
HETATM   23  C   UNL     1      41.432 -13.876   5.174  1.00  0.00    -0.005 A 
HETATM   24  C   UNL     1      40.039 -13.981   5.288  1.00  0.00     0.017 A 
HETATM   25  C   UNL     1      39.321 -13.029   6.015  1.00  0.00     0.043 A 
HETATM   26  C   UNL     1      39.995 -11.971   6.615  1.00  0.00     0.116 A 
HETATM   27  F   UNL     1      39.307 -11.063   7.316  1.00  0.00    -0.206 F 
HETATM   28  C   UNL     1      41.373 -11.838   6.491  1.00  0.00     0.043 A 
HETATM   29  C   UNL     1      42.094 -12.787   5.764  1.00  0.00     0.017 A 
ENDBRANCH   3  23
BRANCH   1  30
HETATM   30  C   UNL     1      43.596 -18.086   4.280  1.00  0.00     0.058 A 
HETATM   31  C   UNL     1      43.670 -18.548   5.601  1.00  0.00     0.032 A 
HETATM   32  C   UNL     1      44.151 -19.831   5.875  1.00  0.00     0.009 A 
HETATM   33  C   UNL     1      44.572 -20.668   4.838  1.00  0.00    -0.062 A 
HETATM   34  C   UNL     1      45.076 -22.054   5.120  1.00  0.00     0.048 C 
HETATM   35  C   UNL     1      44.489 -20.211   3.518  1.00  0.00     0.009 A 
HETATM   36  C   UNL     1      44.004 -18.929   3.236  1.00  0.00     0.032 A 
ENDBRANCH   1  30
TORSDOF 6
ENDMDL
MODEL 9
REMARK VINA RESULT:      -8.6      3.281      6.696
REMARK  6 active torsions:
REMARK  status: ('A' for Active; 'I' for Inactive)
REMARK    1  A    between atoms: C_5  and  N_6 
REMARK    2  A    between atoms: C_8  and  C_9 
REMARK    3  A    between atoms: C_16  and  C_17 
REMARK    4  A    between atoms: C_17  and  N_18 
REMARK    5  A    between atoms: C_22  and  N_23 
REMARK    6  A    between atoms: C_26  and  O_27 
ROOT
HETATM    1  N   UNL     1      42.719 -17.172   3.941  1.00  0.00    -0.244 N 
HETATM    2  N   UNL     1      43.439 -16.384   4.770  1.00  0.00    -0.167 NA
HETATM    3  C   UNL     1      42.679 -15.322   5.041  1.00  0.00     0.097 A 
HETATM    4  C   UNL     1      41.489 -15.335   4.261  1.00  0.00     0.016 A 
HETATM    5  C   UNL     1      41.523 -16.560   3.618  1.00  0.00     0.130 A 
ENDROOT
BRANCH   4   6
HETATM    6  C   UNL     1      40.435 -14.298   4.164  1.00  0.00     0.277 C 
BRANCH   6   7
HETATM    7  N   UNL     1      40.691 -13.215   3.091  1.00  0.00    -0.067 N 
HETATM    8  H   UNL     1      40.999 -12.395   3.640  1.00  0.00     0.280 HD
HETATM    9  C   UNL     1      41.811 -13.589   2.161  1.00  0.00     0.237 C 
HETATM   10  C   UNL     1      41.999 -12.542   1.084  1.00  0.00     0.061 C 
HETATM   11  C   UNL     1      40.738 -12.226   0.286  1.00  0.00     0.191 C 
HETATM   12  C   UNL     1      39.569 -11.923   1.226  1.00  0.00     0.061 C 
HETATM   13  C   UNL     1      39.393 -12.875   2.407  1.00  0.00     0.237 C 
BRANCH  11  14
HETATM   14  N   UNL     1      40.415 -13.227  -0.824  1.00  0.00    -0.064 N 
HETATM   15  H   UNL     1      39.728 -13.888  -0.398  1.00  0.00     0.280 HD
HETATM   16  C   UNL     1      39.532 -12.639  -1.949  1.00  0.00     0.266 C 
HETATM   17  C   UNL     1      38.845 -13.809  -2.658  1.00  0.00     0.144 C 
HETATM   18  C   UNL     1      39.892 -14.711  -3.302  1.00  0.00     0.035 C 
HETATM   19  C   UNL     1      40.880 -15.233  -2.260  1.00  0.00     0.030 C 
HETATM   20  C   UNL     1      41.482 -14.132  -1.392  1.00  0.00     0.235 C 
BRANCH  17  21
HETATM   21  O   UNL     1      38.165 -14.546  -1.635  1.00  0.00    -0.394 OA
HETATM   22  H   UNL     1      38.068 -13.951  -0.861  1.00  0.00     0.210 HD
ENDBRANCH  17  21
ENDBRANCH  11  14
ENDBRANCH   6   7
ENDBRANCH   4   6
BRANCH   3  23
HETATM   23  C   UNL     1      43.124 -14.314   5.996  1.00  0.00    -0.005 A 
HETATM   24  C   UNL     1      42.421 -13.109   6.128  1.00  0.00     0.017 A 
HETATM   25  C   UNL     1      42.843 -12.148   7.050  1.00  0.00     0.043 A 
HETATM   26  C   UNL     1      43.970 -12.390   7.828  1.00  0.00     0.116 A 
HETATM   27  F   UNL     1      44.370 -11.472   8.715  1.00  0.00    -0.206 F 
HETATM   28  C   UNL     1      44.692 -13.570   7.693  1.00  0.00     0.043 A 
HETATM   29  C   UNL     1      44.275 -14.532   6.771  1.00  0.00     0.017 A 
ENDBRANCH   3  23
BRANCH   1  30
HETATM   30  C   UNL     1      43.224 -18.411   3.463  1.00  0.00     0.058 A 
HETATM   31  C   UNL     1      42.752 -18.922   2.246  1.00  0.00     0.032 A 
HETATM   32  C   UNL     1      43.225 -20.145   1.763  1.00  0.00     0.009 A 
HETATM   33  C   UNL     1      44.167 -20.879   2.489  1.00  0.00    -0.062 A 
HETATM   34  C   UNL     1      44.693 -22.187   1.971  1.00  0.00     0.048 C 
HETATM   35  C   UNL     1      44.645 -20.364   3.699  1.00  0.00     0.009 A 
HETATM   36  C   UNL     1      44.179 -19.137   4.186  1.00  0.00     0.032 A 
ENDBRANCH   1  30
TORSDOF 6
ENDMDL
MODEL 10
REMARK VINA RESULT:      -8.5      2.893      6.371
REMARK  6 active torsions:
REMARK  status: ('A' for Active; 'I' for Inactive)
REMARK    1  A    between atoms: C_5  and  N_6 
REMARK    2  A    between atoms: C_8  and  C_9 
REMARK    3  A    between atoms: C_16  and  C_17 
REMARK    4  A    between atoms: C_17  and  N_18 
REMARK    5  A    between atoms: C_22  and  N_23 
REMARK    6  A    between atoms: C_26  and  O_27 
ROOT
HETATM    1  N   UNL     1      40.183 -15.208   1.635  1.00  0.00    -0.244 N 
HETATM    2  N   UNL     1      41.094 -16.185   1.430  1.00  0.00    -0.167 NA
HETATM    3  C   UNL     1      41.492 -16.594   2.635  1.00  0.00     0.097 A 
HETATM    4  C   UNL     1      40.943 -15.773   3.659  1.00  0.00     0.016 A 
HETATM    5  C   UNL     1      40.066 -14.940   2.986  1.00  0.00     0.130 A 
ENDROOT
BRANCH   4   6
HETATM    6  C   UNL     1      41.215 -15.802   5.115  1.00  0.00     0.277 C 
BRANCH   6   7
HETATM    7  N   UNL     1      42.680 -15.502   5.505  1.00  0.00    -0.067 N 
HETATM    8  H   UNL     1      43.231 -16.111   4.875  1.00  0.00     0.280 HD
HETATM    9  C   UNL     1      43.066 -14.078   5.215  1.00  0.00     0.237 C 
HETATM   10  C   UNL     1      44.484 -13.794   5.662  1.00  0.00     0.061 C 
HETATM   11  C   UNL     1      44.759 -14.124   7.126  1.00  0.00     0.191 C 
HETATM   12  C   UNL     1      44.296 -15.547   7.453  1.00  0.00     0.061 C 
HETATM   13  C   UNL     1      42.918 -15.940   6.926  1.00  0.00     0.237 C 
BRANCH  11  14
HETATM   14  N   UNL     1      44.293 -13.061   8.121  1.00  0.00    -0.064 N 
HETATM   15  H   UNL     1      43.737 -13.586   8.833  1.00  0.00     0.280 HD
HETATM   16  C   UNL     1      45.425 -12.528   9.031  1.00  0.00     0.266 C 
HETATM   17  C   UNL     1      44.771 -11.936  10.283  1.00  0.00     0.144 C 
HETATM   18  C   UNL     1      43.882 -10.760   9.895  1.00  0.00     0.035 C 
HETATM   19  C   UNL     1      42.810 -11.189   8.896  1.00  0.00     0.030 C 
HETATM   20  C   UNL     1      43.372 -11.945   7.694  1.00  0.00     0.235 C 
BRANCH  17  21
HETATM   21  O   UNL     1      43.951 -12.976  10.830  1.00  0.00    -0.394 OA
HETATM   22  H   UNL     1      44.498 -13.467  11.479  1.00  0.00     0.210 HD
ENDBRANCH  17  21
ENDBRANCH  11  14
ENDBRANCH   6   7
ENDBRANCH   4   6
BRANCH   3  23
HETATM   23  C   UNL     1      42.409 -17.720   2.772  1.00  0.00    -0.005 A 
HETATM   24  C   UNL     1      42.552 -18.643   1.727  1.00  0.00     0.017 A 
HETATM   25  C   UNL     1      43.437 -19.716   1.855  1.00  0.00     0.043 A 
HETATM   26  C   UNL     1      44.166 -19.869   3.029  1.00  0.00     0.116 A 
HETATM   27  F   UNL     1      45.018 -20.893   3.148  1.00  0.00    -0.206 F 
HETATM   28  C   UNL     1      44.018 -18.976   4.084  1.00  0.00     0.043 A 
HETATM   29  C   UNL     1      43.134 -17.903   3.961  1.00  0.00     0.017 A 
ENDBRANCH   3  23
BRANCH   1  30
HETATM   30  C   UNL     1      39.532 -14.554   0.555  1.00  0.00     0.058 A 
HETATM   31  C   UNL     1      40.189 -14.442  -0.678  1.00  0.00     0.032 A 
HETATM   32  C   UNL     1      39.571 -13.791  -1.750  1.00  0.00     0.009 A 
HETATM   33  C   UNL     1      38.297 -13.236  -1.605  1.00  0.00    -0.062 A 
HETATM   34  C   UNL     1      37.619 -12.549  -2.755  1.00  0.00     0.048 C 
HETATM   35  C   UNL     1      37.637 -13.357  -0.377  1.00  0.00     0.009 A 
HETATM   36  C   UNL     1      38.248 -14.012   0.699  1.00  0.00     0.032 A 
ENDBRANCH   1  30
TORSDOF 6
ENDMDL
