MODEL 1
REMARK VINA RESULT:      -8.8      0.000      0.000
REMARK  7 active torsions:
REMARK  status: ('A' for Active; 'I' for Inactive)
REMARK    1  A    between atoms: C_2  and  C_3 
REMARK       I    between atoms: C_3  and  N_4 
REMARK    2  A    between atoms: N_7  and  C_8 
REMARK    3  A    between atoms: C_9  and  N_10 
REMARK    4  A    between atoms: N_10  and  C_11 
REMARK    5  A    between atoms: C_11  and  N_12 
REMARK       I    between atoms: N_12  and  C_13 
REMARK    6  A    between atoms: C_13  and  C_14 
REMARK    7  A    between atoms: C_15  and  O_16 
ROOT
HETATM    1  C   UNL     1      40.778 -13.985   2.851  1.00  0.00     0.037 A 
HETATM    2  C   UNL     1      40.806 -15.400   2.710  1.00  0.00     0.057 A 
HETATM    3  C   UNL     1      40.935 -15.991   1.450  1.00  0.00     0.055 A 
HETATM    4  C   UNL     1      41.084 -15.186   0.325  1.00  0.00     0.036 A 
HETATM    5 CL   UNL     1      41.268 -15.912  -1.224  1.00  0.00    -0.084 Cl
HETATM    6  C   UNL     1      41.076 -13.799   0.440  1.00  0.00     0.026 A 
HETATM    7  C   UNL     1      40.916 -13.203   1.695  1.00  0.00     0.027 A 
ENDROOT
BRANCH   2   8
HETATM    8  N   UNL     1      40.599 -16.156   3.887  1.00  0.00    -0.331 N 
HETATM    9  H   UNL     1      39.609 -16.299   4.079  1.00  0.00     0.168 HD
BRANCH   8  10
HETATM   10  C   UNL     1      41.460 -16.803   4.701  1.00  0.00     0.179 C 
HETATM   11  S   UNL     1      41.788 -16.165   6.213  1.00  0.00    -0.040 SA
BRANCH  10  12
HETATM   12  N   UNL     1      42.117 -17.934   4.319  1.00  0.00    -0.299 N 
HETATM   13  C   UNL     1      43.264 -18.065   3.540  1.00  0.00     0.260 C 
HETATM   14  O   UNL     1      43.933 -17.154   3.067  1.00  0.00    -0.267 OA
HETATM   15  H   UNL     1      41.911 -18.735   4.908  1.00  0.00     0.171 HD
BRANCH  13  16
HETATM   16  C   UNL     1      43.697 -19.464   3.297  1.00  0.00     0.066 A 
HETATM   17  C   UNL     1      44.388 -20.222   4.255  1.00  0.00     0.089 A 
HETATM   18  C   UNL     1      44.696 -21.570   4.012  1.00  0.00    -0.028 A 
HETATM   19  C   UNL     1      45.409 -22.412   5.030  1.00  0.00     0.051 C 
HETATM   20  C   UNL     1      44.371 -22.120   2.762  1.00  0.00     0.009 A 
HETATM   21  C   UNL     1      43.723 -21.356   1.790  1.00  0.00     0.002 A 
HETATM   22  C   UNL     1      43.384 -20.030   2.056  1.00  0.00     0.020 A 
BRANCH  17  23
HETATM   23  O   UNL     1      44.723 -19.670   5.469  1.00  0.00    -0.354 OA
HETATM   24  C   UNL     1      43.746 -20.026   6.456  1.00  0.00     0.210 C 
ENDBRANCH  17  23
ENDBRANCH  13  16
ENDBRANCH  10  12
ENDBRANCH   8  10
ENDBRANCH   2   8
BRANCH   1  25
HETATM   25  N   UNL     1      40.646 -13.430   4.147  1.00  0.00    -0.278 NA
HETATM   26  C   UNL     1      39.330 -12.859   4.509  1.00  0.00     0.115 C 
HETATM   27  C   UNL     1      39.298 -12.536   6.013  1.00  0.00     0.140 C 
HETATM   28  N   UNL     1      40.438 -11.719   6.459  1.00  0.00    -0.350 N 
HETATM   29  C   UNL     1      40.273 -10.999   7.640  1.00  0.00     0.219 C 
HETATM   30  C   UNL     1      41.753 -12.140   5.946  1.00  0.00     0.140 C 
HETATM   31  O   UNL     1      39.172 -10.868   8.175  1.00  0.00    -0.273 OA
HETATM   32  C   UNL     1      41.741 -12.468   4.440  1.00  0.00     0.115 C 
BRANCH  29  33
HETATM   33  C   UNL     1      41.522 -10.362   8.233  1.00  0.00     0.098 C 
HETATM   34  C   UNL     1      41.645 -10.607   9.729  1.00  0.00     0.014 C 
ENDBRANCH  29  33
ENDBRANCH   1  25
TORSDOF 7
ENDMDL
MODEL 2
REMARK VINA RESULT:      -8.7      2.826      3.146
REMARK  7 active torsions:
REMARK  status: ('A' for Active; 'I' for Inactive)
REMARK    1  A    between atoms: C_2  and  C_3 
REMARK       I    between atoms: C_3  and  N_4 
REMARK    2  A    between atoms: N_7  and  C_8 
REMARK    3  A    between atoms: C_9  and  N_10 
REMARK    4  A    between atoms: N_10  and  C_11 
REMARK    5  A    between atoms: C_11  and  N_12 
REMARK       I    between atoms: N_12  and  C_13 
REMARK    6  A    between atoms: C_13  and  C_14 
REMARK    7  A    between atoms: C_15  and  O_16 
ROOT
HETATM    1  C   UNL     1      40.211 -13.968   3.194  1.00  0.00     0.037 A 
HETATM    2  C   UNL     1      39.780 -14.930   2.239  1.00  0.00     0.057 A 
HETATM    3  C   UNL     1      38.727 -14.649   1.365  1.00  0.00     0.055 A 
HETATM    4  C   UNL     1      38.122 -13.396   1.398  1.00  0.00     0.036 A 
HETATM    5 CL   UNL     1      36.841 -13.039   0.306  1.00  0.00    -0.084 Cl
HETATM    6  C   UNL     1      38.538 -12.432   2.313  1.00  0.00     0.026 A 
HETATM    7  C   UNL     1      39.571 -12.721   3.210  1.00  0.00     0.027 A 
ENDROOT
BRANCH   2   8
HETATM    8  N   UNL     1      40.405 -16.198   2.296  1.00  0.00    -0.331 N 
HETATM    9  H   UNL     1      40.011 -16.784   3.030  1.00  0.00     0.168 HD
BRANCH   8  10
HETATM   10  C   UNL     1      41.313 -16.788   1.490  1.00  0.00     0.179 C 
HETATM   11  S   UNL     1      41.571 -16.164  -0.041  1.00  0.00    -0.040 SA
BRANCH  10  12
HETATM   12  N   UNL     1      41.995 -17.910   1.855  1.00  0.00    -0.299 N 
HETATM   13  C   UNL     1      43.370 -18.126   1.909  1.00  0.00     0.260 C 
HETATM   14  O   UNL     1      44.247 -17.307   1.661  1.00  0.00    -0.267 OA
HETATM   15  H   UNL     1      41.444 -18.547   2.420  1.00  0.00     0.171 HD
BRANCH  13  16
HETATM   16  C   UNL     1      43.772 -19.491   2.332  1.00  0.00     0.066 A 
HETATM   17  C   UNL     1      44.178 -19.790   3.641  1.00  0.00     0.089 A 
HETATM   18  C   UNL     1      44.460 -21.114   4.015  1.00  0.00    -0.028 A 
HETATM   19  C   UNL     1      44.869 -21.468   5.416  1.00  0.00     0.051 C 
HETATM   20  C   UNL     1      44.406 -22.117   3.035  1.00  0.00     0.009 A 
HETATM   21  C   UNL     1      44.046 -21.815   1.720  1.00  0.00     0.002 A 
HETATM   22  C   UNL     1      43.727 -20.504   1.368  1.00  0.00     0.020 A 
BRANCH  17  23
HETATM   23  O   UNL     1      44.249 -18.800   4.592  1.00  0.00    -0.354 OA
HETATM   24  C   UNL     1      43.002 -18.701   5.292  1.00  0.00     0.210 C 
ENDBRANCH  17  23
ENDBRANCH  13  16
ENDBRANCH  10  12
ENDBRANCH   8  10
ENDBRANCH   2   8
BRANCH   1  25
HETATM   25  N   UNL     1      41.283 -14.296   4.060  1.00  0.00    -0.278 NA
HETATM   26  C   UNL     1      40.936 -14.804   5.405  1.00  0.00     0.115 C 
HETATM   27  C   UNL     1      42.200 -15.337   6.103  1.00  0.00     0.140 C 
HETATM   28  N   UNL     1      43.316 -14.377   6.104  1.00  0.00    -0.350 N 
HETATM   29  C   UNL     1      44.298 -14.555   7.075  1.00  0.00     0.219 C 
HETATM   30  C   UNL     1      43.559 -13.694   4.822  1.00  0.00     0.140 C 
HETATM   31  O   UNL     1      44.148 -15.329   8.020  1.00  0.00    -0.273 OA
HETATM   32  C   UNL     1      42.269 -13.187   4.148  1.00  0.00     0.115 C 
BRANCH  29  33
HETATM   33  C   UNL     1      45.568 -13.730   6.922  1.00  0.00     0.098 C 
HETATM   34  C   UNL     1      45.799 -12.794   8.097  1.00  0.00     0.014 C 
ENDBRANCH  29  33
ENDBRANCH   1  25
TORSDOF 7
ENDMDL
MODEL 3
REMARK VINA RESULT:      -8.5      3.178      4.410
REMARK  7 active torsions:
REMARK  status: ('A' for Active; 'I' for Inactive)
REMARK    1  A    between atoms: C_2  and  C_3 
REMARK       I    between atoms: C_3  and  N_4 
REMARK    2  A    between atoms: N_7  and  C_8 
REMARK    3  A    between atoms: C_9  and  N_10 
REMARK    4  A    between atoms: N_10  and  C_11 
REMARK    5  A    between atoms: C_11  and  N_12 
REMARK       I    between atoms: N_12  and  C_13 
REMARK    6  A    between atoms: C_13  and  C_14 
REMARK    7  A    between atoms: C_15  and  O_16 
ROOT
HETATM    1  C   UNL     1      42.447 -14.568   5.072  1.00  0.00     0.037 A 
HETATM    2  C   UNL     1      41.859 -15.849   5.268  1.00  0.00     0.057 A 
HETATM    3  C   UNL     1      42.253 -16.660   6.337  1.00  0.00     0.055 A 
HETATM    4  C   UNL     1      43.197 -16.191   7.244  1.00  0.00     0.036 A 
HETATM    5 CL   UNL     1      43.665 -17.179   8.573  1.00  0.00    -0.084 Cl
HETATM    6  C   UNL     1      43.774 -14.934   7.082  1.00  0.00     0.026 A 
HETATM    7  C   UNL     1      43.406 -14.132   5.997  1.00  0.00     0.027 A 
ENDROOT
BRANCH   2   8
HETATM    8  N   UNL     1      40.944 -16.281   4.281  1.00  0.00    -0.331 N 
HETATM    9  H   UNL     1      40.015 -15.891   4.425  1.00  0.00     0.168 HD
BRANCH   8  10
HETATM   10  C   UNL     1      41.117 -16.996   3.149  1.00  0.00     0.179 C 
HETATM   11  S   UNL     1      40.342 -16.507   1.749  1.00  0.00    -0.040 SA
BRANCH  10  12
HETATM   12  N   UNL     1      41.861 -18.138   3.111  1.00  0.00    -0.299 N 
HETATM   13  C   UNL     1      43.240 -18.287   2.995  1.00  0.00     0.260 C 
HETATM   14  O   UNL     1      44.069 -17.387   2.938  1.00  0.00    -0.267 OA
HETATM   15  H   UNL     1      41.379 -18.942   3.501  1.00  0.00     0.171 HD
BRANCH  13  16
HETATM   16  C   UNL     1      43.716 -19.693   2.962  1.00  0.00     0.066 A 
HETATM   17  C   UNL     1      44.381 -20.295   4.041  1.00  0.00     0.089 A 
HETATM   18  C   UNL     1      44.730 -21.655   3.995  1.00  0.00    -0.028 A 
HETATM   19  C   UNL     1      45.417 -22.331   5.146  1.00  0.00     0.051 C 
HETATM   20  C   UNL     1      44.473 -22.377   2.820  1.00  0.00     0.009 A 
HETATM   21  C   UNL     1      43.851 -21.769   1.727  1.00  0.00     0.002 A 
HETATM   22  C   UNL     1      43.471 -20.430   1.797  1.00  0.00     0.020 A 
BRANCH  17  23
HETATM   23  O   UNL     1      44.650 -19.576   5.182  1.00  0.00    -0.354 OA
HETATM   24  C   UNL     1      43.701 -19.907   6.205  1.00  0.00     0.210 C 
ENDBRANCH  17  23
ENDBRANCH  13  16
ENDBRANCH  10  12
ENDBRANCH   8  10
ENDBRANCH   2   8
BRANCH   1  25
HETATM   25  N   UNL     1      42.017 -13.780   3.976  1.00  0.00    -0.278 NA
HETATM   26  C   UNL     1      42.914 -13.704   2.803  1.00  0.00     0.115 C 
HETATM   27  C   UNL     1      42.184 -13.022   1.632  1.00  0.00     0.140 C 
HETATM   28  N   UNL     1      41.576 -11.732   1.994  1.00  0.00    -0.350 N 
HETATM   29  C   UNL     1      41.316 -10.844   0.954  1.00  0.00     0.219 C 
HETATM   30  C   UNL     1      40.842 -11.718   3.271  1.00  0.00     0.140 C 
HETATM   31  O   UNL     1      41.762 -11.021  -0.181  1.00  0.00    -0.273 OA
HETATM   32  C   UNL     1      41.599 -12.422   4.415  1.00  0.00     0.115 C 
BRANCH  29  33
HETATM   33  C   UNL     1      40.464  -9.628   1.288  1.00  0.00     0.098 C 
HETATM   34  C   UNL     1      41.302  -8.420   1.678  1.00  0.00     0.014 C 
ENDBRANCH  29  33
ENDBRANCH   1  25
TORSDOF 7
ENDMDL
MODEL 4
REMARK VINA RESULT:      -8.4      3.176      5.736
REMARK  7 active torsions:
REMARK  status: ('A' for Active; 'I' for Inactive)
REMARK    1  A    between atoms: C_2  and  C_3 
REMARK       I    between atoms: C_3  and  N_4 
REMARK    2  A    between atoms: N_7  and  C_8 
REMARK    3  A    between atoms: C_9  and  N_10 
REMARK    4  A    between atoms: N_10  and  C_11 
REMARK    5  A    between atoms: C_11  and  N_12 
REMARK       I    between atoms: N_12  and  C_13 
REMARK    6  A    between atoms: C_13  and  C_14 
REMARK    7  A    between atoms: C_15  and  O_16 
ROOT
HETATM    1  C   UNL     1      39.985 -13.505   2.958  1.00  0.00     0.037 A 
HETATM    2  C   UNL     1      40.368 -14.392   4.002  1.00  0.00     0.057 A 
HETATM    3  C   UNL     1      40.145 -14.059   5.341  1.00  0.00     0.055 A 
HETATM    4  C   UNL     1      39.501 -12.867   5.655  1.00  0.00     0.036 A 
HETATM    5 CL   UNL     1      39.206 -12.466   7.302  1.00  0.00    -0.084 Cl
HETATM    6  C   UNL     1      39.103 -11.990   4.650  1.00  0.00     0.026 A 
HETATM    7  C   UNL     1      39.351 -12.305   3.310  1.00  0.00     0.027 A 
ENDROOT
BRANCH   2   8
HETATM    8  N   UNL     1      41.062 -15.561   3.613  1.00  0.00    -0.331 N 
HETATM    9  H   UNL     1      40.471 -16.194   3.076  1.00  0.00     0.168 HD
BRANCH   8  10
HETATM   10  C   UNL     1      42.361 -15.911   3.719  1.00  0.00     0.179 C 
HETATM   11  S   UNL     1      43.506 -14.721   3.987  1.00  0.00    -0.040 SA
BRANCH  10  12
HETATM   12  N   UNL     1      42.788 -17.197   3.564  1.00  0.00    -0.299 N 
HETATM   13  C   UNL     1      43.663 -17.726   2.619  1.00  0.00     0.260 C 
HETATM   14  O   UNL     1      44.255 -17.105   1.745  1.00  0.00    -0.267 OA
HETATM   15  H   UNL     1      42.679 -17.758   4.403  1.00  0.00     0.171 HD
BRANCH  13  16
HETATM   16  C   UNL     1      43.889 -19.189   2.728  1.00  0.00     0.066 A 
HETATM   17  C   UNL     1      44.449 -19.788   3.866  1.00  0.00     0.089 A 
HETATM   18  C   UNL     1      44.558 -21.185   3.957  1.00  0.00    -0.028 A 
HETATM   19  C   UNL     1      45.126 -21.854   5.175  1.00  0.00     0.051 C 
HETATM   20  C   UNL     1      44.171 -21.964   2.855  1.00  0.00     0.009 A 
HETATM   21  C   UNL     1      43.655 -21.368   1.703  1.00  0.00     0.002 A 
HETATM   22  C   UNL     1      43.511 -19.983   1.638  1.00  0.00     0.020 A 
BRANCH  17  23
HETATM   23  O   UNL     1      44.846 -19.018   4.934  1.00  0.00    -0.354 OA
HETATM   24  C   UNL     1      43.889 -19.122   5.996  1.00  0.00     0.210 C 
ENDBRANCH  17  23
ENDBRANCH  13  16
ENDBRANCH  10  12
ENDBRANCH   8  10
ENDBRANCH   2   8
BRANCH   1  25
HETATM   25  N   UNL     1      40.229 -13.884   1.615  1.00  0.00    -0.278 NA
HETATM   26  C   UNL     1      41.457 -13.363   0.976  1.00  0.00     0.115 C 
HETATM   27  C   UNL     1      41.682 -14.068  -0.372  1.00  0.00     0.140 C 
HETATM   28  N   UNL     1      40.502 -14.039  -1.252  1.00  0.00    -0.350 N 
HETATM   29  C   UNL     1      40.728 -14.215  -2.615  1.00  0.00     0.219 C 
HETATM   30  C   UNL     1      39.222 -14.354  -0.597  1.00  0.00     0.140 C 
HETATM   31  O   UNL     1      41.860 -14.180  -3.098  1.00  0.00    -0.273 OA
HETATM   32  C   UNL     1      39.039 -13.640   0.757  1.00  0.00     0.115 C 
BRANCH  29  33
HETATM   33  C   UNL     1      39.501 -14.438  -3.488  1.00  0.00     0.098 C 
HETATM   34  C   UNL     1      39.351 -15.888  -3.919  1.00  0.00     0.014 C 
ENDBRANCH  29  33
ENDBRANCH   1  25
TORSDOF 7
ENDMDL
MODEL 5
REMARK VINA RESULT:      -8.3      2.872      5.707
REMARK  7 active torsions:
REMARK  status: ('A' for Active; 'I' for Inactive)
REMARK    1  A    between atoms: C_2  and  C_3 
REMARK       I    between atoms: C_3  and  N_4 
REMARK    2  A    between atoms: N_7  and  C_8 
REMARK    3  A    between atoms: C_9  and  N_10 
REMARK    4  A    between atoms: N_10  and  C_11 
REMARK    5  A    between atoms: C_11  and  N_12 
REMARK       I    between atoms: N_12  and  C_13 
REMARK    6  A    between atoms: C_13  and  C_14 
REMARK    7  A    between atoms: C_15  and  O_16 
ROOT
HETATM    1  C   UNL     1      40.621 -12.646   3.865  1.00  0.00     0.037 A 
HETATM    2  C   UNL     1      41.518 -12.776   4.962  1.00  0.00     0.057 A 
HETATM    3  C   UNL     1      41.151 -12.347   6.241  1.00  0.00     0.055 A 
HETATM    4  C   UNL     1      39.877 -11.828   6.453  1.00  0.00     0.036 A 
HETATM    5 CL   UNL     1      39.416 -11.320   8.031  1.00  0.00    -0.084 Cl
HETATM    6  C   UNL     1      38.977 -11.705   5.397  1.00  0.00     0.026 A 
HETATM    7  C   UNL     1      39.351 -12.104   4.111  1.00  0.00     0.027 A 
ENDROOT
BRANCH   2   8
HETATM    8  N   UNL     1      42.811 -13.265   4.665  1.00  0.00    -0.331 N 
HETATM    9  H   UNL     1      43.296 -12.674   3.993  1.00  0.00     0.168 HD
BRANCH   8  10
HETATM   10  C   UNL     1      43.533 -14.274   5.197  1.00  0.00     0.179 C 
HETATM   11  S   UNL     1      44.408 -14.001   6.596  1.00  0.00    -0.040 SA
BRANCH  10  12
HETATM   12  N   UNL     1      43.621 -15.500   4.607  1.00  0.00    -0.299 N 
HETATM   13  C   UNL     1      42.606 -16.403   4.298  1.00  0.00     0.260 C 
HETATM   14  O   UNL     1      41.405 -16.240   4.475  1.00  0.00    -0.267 OA
HETATM   15  H   UNL     1      44.479 -15.631   4.082  1.00  0.00     0.171 HD
BRANCH  13  16
HETATM   16  C   UNL     1      43.066 -17.669   3.674  1.00  0.00     0.066 A 
HETATM   17  C   UNL     1      43.940 -18.559   4.318  1.00  0.00     0.089 A 
HETATM   18  C   UNL     1      44.274 -19.787   3.724  1.00  0.00    -0.028 A 
HETATM   19  C   UNL     1      45.183 -20.769   4.402  1.00  0.00     0.051 C 
HETATM   20  C   UNL     1      43.780 -20.070   2.440  1.00  0.00     0.009 A 
HETATM   21  C   UNL     1      42.946 -19.167   1.779  1.00  0.00     0.002 A 
HETATM   22  C   UNL     1      42.587 -17.969   2.394  1.00  0.00     0.020 A 
BRANCH  17  23
HETATM   23  O   UNL     1      44.438 -18.265   5.566  1.00  0.00    -0.354 OA
HETATM   24  C   UNL     1      43.545 -18.753   6.576  1.00  0.00     0.210 C 
ENDBRANCH  17  23
ENDBRANCH  13  16
ENDBRANCH  10  12
ENDBRANCH   8  10
ENDBRANCH   2   8
BRANCH   1  25
HETATM   25  N   UNL     1      41.035 -13.095   2.587  1.00  0.00    -0.278 NA
HETATM   26  C   UNL     1      41.262 -12.066   1.548  1.00  0.00     0.115 C 
HETATM   27  C   UNL     1      41.938 -12.705   0.322  1.00  0.00     0.140 C 
HETATM   28  N   UNL     1      41.238 -13.900  -0.174  1.00  0.00    -0.350 N 
HETATM   29  C   UNL     1      41.472 -14.263  -1.498  1.00  0.00     0.219 C 
HETATM   30  C   UNL     1      40.810 -14.855   0.862  1.00  0.00     0.140 C 
HETATM   31  O   UNL     1      42.055 -13.517  -2.285  1.00  0.00    -0.273 OA
HETATM   32  C   UNL     1      40.151 -14.177   2.080  1.00  0.00     0.115 C 
BRANCH  29  33
HETATM   33  C   UNL     1      40.956 -15.627  -1.936  1.00  0.00     0.098 C 
HETATM   34  C   UNL     1      40.254 -15.578  -3.284  1.00  0.00     0.014 C 
ENDBRANCH  29  33
ENDBRANCH   1  25
TORSDOF 7
ENDMDL
MODEL 6
REMARK VINA RESULT:      -8.0      3.063      7.725
REMARK  7 active torsions:
REMARK  status: ('A' for Active; 'I' for Inactive)
REMARK    1  A    between atoms: C_2  and  C_3 
REMARK       I    between atoms: C_3  and  N_4 
REMARK    2  A    between atoms: N_7  and  C_8 
REMARK    3  A    between atoms: C_9  and  N_10 
REMARK    4  A    between atoms: N_10  and  C_11 
REMARK    5  A    between atoms: C_11  and  N_12 
REMARK       I    between atoms: N_12  and  C_13 
REMARK    6  A    between atoms: C_13  and  C_14 
REMARK    7  A    between atoms: C_15  and  O_16 
ROOT
HETATM    1  C   UNL     1      42.502 -17.459   2.599  1.00  0.00     0.037 A 
HETATM    2  C   UNL     1      43.161 -17.222   3.837  1.00  0.00     0.057 A 
HETATM    3  C   UNL     1      43.984 -18.197   4.407  1.00  0.00     0.055 A 
HETATM    4  C   UNL     1      44.198 -19.396   3.734  1.00  0.00     0.036 A 
HETATM    5 CL   UNL     1      45.230 -20.588   4.423  1.00  0.00    -0.084 Cl
HETATM    6  C   UNL     1      43.576 -19.644   2.513  1.00  0.00     0.026 A 
HETATM    7  C   UNL     1      42.727 -18.684   1.954  1.00  0.00     0.027 A 
ENDROOT
BRANCH   2   8
HETATM    8  N   UNL     1      42.858 -16.004   4.490  1.00  0.00    -0.331 N 
HETATM    9  H   UNL     1      43.000 -15.201   3.880  1.00  0.00     0.168 HD
BRANCH   8  10
HETATM   10  C   UNL     1      42.313 -15.744   5.696  1.00  0.00     0.179 C 
HETATM   11  S   UNL     1      40.969 -16.611   6.188  1.00  0.00    -0.040 SA
BRANCH  10  12
HETATM   12  N   UNL     1      42.783 -14.760   6.515  1.00  0.00    -0.299 N 
HETATM   13  C   UNL     1      43.772 -13.810   6.270  1.00  0.00     0.260 C 
HETATM   14  O   UNL     1      44.397 -13.658   5.228  1.00  0.00    -0.267 OA
HETATM   15  H   UNL     1      42.141 -14.521   7.263  1.00  0.00     0.171 HD
BRANCH  13  16
HETATM   16  C   UNL     1      44.052 -12.895   7.406  1.00  0.00     0.066 A 
HETATM   17  C   UNL     1      43.110 -11.975   7.889  1.00  0.00     0.089 A 
HETATM   18  C   UNL     1      43.391 -11.195   9.023  1.00  0.00    -0.028 A 
HETATM   19  C   UNL     1      42.391 -10.224   9.580  1.00  0.00     0.051 C 
HETATM   20  C   UNL     1      44.661 -11.298   9.613  1.00  0.00     0.009 A 
HETATM   21  C   UNL     1      45.617 -12.181   9.107  1.00  0.00     0.002 A 
HETATM   22  C   UNL     1      45.314 -12.980   8.006  1.00  0.00     0.020 A 
BRANCH  17  23
HETATM   23  O   UNL     1      41.876 -11.864   7.294  1.00  0.00    -0.354 OA
HETATM   24  C   UNL     1      41.911 -10.855   6.276  1.00  0.00     0.210 C 
ENDBRANCH  17  23
ENDBRANCH  13  16
ENDBRANCH  10  12
ENDBRANCH   8  10
ENDBRANCH   2   8
BRANCH   1  25
HETATM   25  N   UNL     1      41.677 -16.443   2.058  1.00  0.00    -0.278 NA
HETATM   26  C   UNL     1      40.213 -16.629   2.164  1.00  0.00     0.115 C 
HETATM   27  C   UNL     1      39.492 -15.332   1.757  1.00  0.00     0.140 C 
HETATM   28  N   UNL     1      39.927 -14.806   0.453  1.00  0.00    -0.350 N 
HETATM   29  C   UNL     1      39.049 -13.949  -0.205  1.00  0.00     0.219 C 
HETATM   30  C   UNL     1      41.383 -14.799   0.231  1.00  0.00     0.140 C 
HETATM   31  O   UNL     1      37.883 -13.801   0.164  1.00  0.00    -0.273 OA
HETATM   32  C   UNL     1      42.071 -16.108   0.664  1.00  0.00     0.115 C 
BRANCH  29  33
HETATM   33  C   UNL     1      39.594 -13.210  -1.419  1.00  0.00     0.098 C 
HETATM   34  C   UNL     1      39.216 -13.884  -2.728  1.00  0.00     0.014 C 
ENDBRANCH  29  33
ENDBRANCH   1  25
TORSDOF 7
ENDMDL
MODEL 7
REMARK VINA RESULT:      -8.0      3.184      6.959
REMARK  7 active torsions:
REMARK  status: ('A' for Active; 'I' for Inactive)
REMARK    1  A    between atoms: C_2  and  C_3 
REMARK       I    between atoms: C_3  and  N_4 
REMARK    2  A    between atoms: N_7  and  C_8 
REMARK    3  A    between atoms: C_9  and  N_10 
REMARK    4  A    between atoms: N_10  and  C_11 
REMARK    5  A    between atoms: C_11  and  N_12 
REMARK       I    between atoms: N_12  and  C_13 
REMARK    6  A    between atoms: C_13  and  C_14 
REMARK    7  A    between atoms: C_15  and  O_16 
ROOT
HETATM    1  C   UNL     1      43.282 -17.295   4.308  1.00  0.00     0.037 A 
HETATM    2  C   UNL     1      43.538 -17.679   2.962  1.00  0.00     0.057 A 
HETATM    3  C   UNL     1      44.057 -18.942   2.666  1.00  0.00     0.055 A 
HETATM    4  C   UNL     1      44.283 -19.851   3.694  1.00  0.00     0.036 A 
HETATM    5 CL   UNL     1      44.900 -21.416   3.328  1.00  0.00    -0.084 Cl
HETATM    6  C   UNL     1      44.025 -19.503   5.018  1.00  0.00     0.026 A 
HETATM    7  C   UNL     1      43.535 -18.230   5.322  1.00  0.00     0.027 A 
ENDROOT
BRANCH   2   8
HETATM    8  N   UNL     1      43.332 -16.689   1.974  1.00  0.00    -0.331 N 
HETATM    9  H   UNL     1      44.169 -16.132   1.813  1.00  0.00     0.168 HD
BRANCH   8  10
HETATM   10  C   UNL     1      42.292 -16.448   1.148  1.00  0.00     0.179 C 
HETATM   11  S   UNL     1      40.953 -17.448   1.210  1.00  0.00    -0.040 SA
BRANCH  10  12
HETATM   12  N   UNL     1      42.310 -15.448   0.221  1.00  0.00    -0.299 N 
HETATM   13  C   UNL     1      41.408 -14.404   0.034  1.00  0.00     0.260 C 
HETATM   14  O   UNL     1      40.416 -14.167   0.714  1.00  0.00    -0.267 OA
HETATM   15  H   UNL     1      43.230 -15.291  -0.179  1.00  0.00     0.171 HD
BRANCH  13  16
HETATM   16  C   UNL     1      41.725 -13.499  -1.099  1.00  0.00     0.066 A 
HETATM   17  C   UNL     1      42.328 -12.245  -0.923  1.00  0.00     0.089 A 
HETATM   18  C   UNL     1      42.691 -11.465  -2.033  1.00  0.00    -0.028 A 
HETATM   19  C   UNL     1      43.362 -10.132  -1.874  1.00  0.00     0.051 C 
HETATM   20  C   UNL     1      42.366 -11.930  -3.317  1.00  0.00     0.009 A 
HETATM   21  C   UNL     1      41.727 -13.159  -3.494  1.00  0.00     0.002 A 
HETATM   22  C   UNL     1      41.407 -13.944  -2.388  1.00  0.00     0.020 A 
BRANCH  17  23
HETATM   23  O   UNL     1      42.623 -11.785   0.339  1.00  0.00    -0.354 OA
HETATM   24  C   UNL     1      41.563 -10.947   0.817  1.00  0.00     0.210 C 
ENDBRANCH  17  23
ENDBRANCH  13  16
ENDBRANCH  10  12
ENDBRANCH   8  10
ENDBRANCH   2   8
BRANCH   1  25
HETATM   25  N   UNL     1      42.755 -16.004   4.562  1.00  0.00    -0.278 NA
HETATM   26  C   UNL     1      43.437 -15.184   5.587  1.00  0.00     0.115 C 
HETATM   27  C   UNL     1      42.892 -13.745   5.549  1.00  0.00     0.140 C 
HETATM   28  N   UNL     1      41.423 -13.675   5.619  1.00  0.00    -0.350 N 
HETATM   29  C   UNL     1      40.870 -12.474   6.055  1.00  0.00     0.219 C 
HETATM   30  C   UNL     1      40.706 -14.630   4.756  1.00  0.00     0.140 C 
HETATM   31  O   UNL     1      41.556 -11.587   6.565  1.00  0.00    -0.273 OA
HETATM   32  C   UNL     1      41.290 -16.055   4.810  1.00  0.00     0.115 C 
BRANCH  29  33
HETATM   33  C   UNL     1      39.366 -12.312   5.887  1.00  0.00     0.098 C 
HETATM   34  C   UNL     1      39.006 -11.317   4.796  1.00  0.00     0.014 C 
ENDBRANCH  29  33
ENDBRANCH   1  25
TORSDOF 7
ENDMDL
MODEL 8
REMARK VINA RESULT:      -8.0      2.764      7.558
REMARK  7 active torsions:
REMARK  status: ('A' for Active; 'I' for Inactive)
REMARK    1  A    between atoms: C_2  and  C_3 
REMARK       I    between atoms: C_3  and  N_4 
REMARK    2  A    between atoms: N_7  and  C_8 
REMARK    3  A    between atoms: C_9  and  N_10 
REMARK    4  A    between atoms: N_10  and  C_11 
REMARK    5  A    between atoms: C_11  and  N_12 
REMARK       I    between atoms: N_12  and  C_13 
REMARK    6  A    between atoms: C_13  and  C_14 
REMARK    7  A    between atoms: C_15  and  O_16 
ROOT
HETATM    1  C   UNL     1      42.800 -17.963   2.841  1.00  0.00     0.037 A 
HETATM    2  C   UNL     1      43.030 -17.983   4.244  1.00  0.00     0.057 A 
HETATM    3  C   UNL     1      43.775 -19.009   4.832  1.00  0.00     0.055 A 
HETATM    4  C   UNL     1      44.337 -19.997   4.030  1.00  0.00     0.036 A 
HETATM    5 CL   UNL     1      45.274 -21.248   4.750  1.00  0.00    -0.084 Cl
HETATM    6  C   UNL     1      44.138 -19.990   2.652  1.00  0.00     0.026 A 
HETATM    7  C   UNL     1      43.368 -18.982   2.063  1.00  0.00     0.027 A 
ENDROOT
BRANCH   2   8
HETATM    8  N   UNL     1      42.389 -16.976   5.003  1.00  0.00    -0.331 N 
HETATM    9  H   UNL     1      41.558 -17.327   5.476  1.00  0.00     0.168 HD
BRANCH   8  10
HETATM   10  C   UNL     1      42.748 -15.709   5.298  1.00  0.00     0.179 C 
HETATM   11  S   UNL     1      43.922 -15.445   6.460  1.00  0.00    -0.040 SA
BRANCH  10  12
HETATM   12  N   UNL     1      42.152 -14.627   4.722  1.00  0.00    -0.299 N 
HETATM   13  C   UNL     1      42.711 -13.641   3.913  1.00  0.00     0.260 C 
HETATM   14  O   UNL     1      43.874 -13.583   3.532  1.00  0.00    -0.267 OA
HETATM   15  H   UNL     1      41.145 -14.721   4.641  1.00  0.00     0.171 HD
BRANCH  13  16
HETATM   16  C   UNL     1      41.766 -12.583   3.474  1.00  0.00     0.066 A 
HETATM   17  C   UNL     1      40.842 -11.983   4.343  1.00  0.00     0.089 A 
HETATM   18  C   UNL     1      40.033 -10.923   3.902  1.00  0.00    -0.028 A 
HETATM   19  C   UNL     1      39.056 -10.244   4.817  1.00  0.00     0.051 C 
HETATM   20  C   UNL     1      40.110 -10.532   2.556  1.00  0.00     0.009 A 
HETATM   21  C   UNL     1      40.997 -11.158   1.678  1.00  0.00     0.002 A 
HETATM   22  C   UNL     1      41.826 -12.181   2.135  1.00  0.00     0.020 A 
BRANCH  17  23
HETATM   23  O   UNL     1      40.757 -12.386   5.655  1.00  0.00    -0.354 OA
HETATM   24  C   UNL     1      41.601 -11.567   6.475  1.00  0.00     0.210 C 
ENDBRANCH  17  23
ENDBRANCH  13  16
ENDBRANCH  10  12
ENDBRANCH   8  10
ENDBRANCH   2   8
BRANCH   1  25
HETATM   25  N   UNL     1      42.040 -16.903   2.288  1.00  0.00    -0.278 NA
HETATM   26  C   UNL     1      40.567 -17.029   2.336  1.00  0.00     0.115 C 
HETATM   27  C   UNL     1      39.916 -15.696   1.926  1.00  0.00     0.140 C 
HETATM   28  N   UNL     1      40.422 -15.168   0.648  1.00  0.00    -0.350 N 
HETATM   29  C   UNL     1      39.606 -14.263  -0.026  1.00  0.00     0.219 C 
HETATM   30  C   UNL     1      41.884 -15.219   0.481  1.00  0.00     0.140 C 
HETATM   31  O   UNL     1      38.434 -14.072   0.302  1.00  0.00    -0.273 OA
HETATM   32  C   UNL     1      42.499 -16.564   0.915  1.00  0.00     0.115 C 
BRANCH  29  33
HETATM   33  C   UNL     1      40.227 -13.529  -1.206  1.00  0.00     0.098 C 
HETATM   34  C   UNL     1      39.525 -12.214  -1.507  1.00  0.00     0.014 C 
ENDBRANCH  29  33
ENDBRANCH   1  25
TORSDOF 7
ENDMDL
MODEL 9
REMARK VINA RESULT:      -7.9      3.058      6.672
REMARK  7 active torsions:
REMARK  status: ('A' for Active; 'I' for Inactive)
REMARK    1  A    between atoms: C_2  and  C_3 
REMARK       I    between atoms: C_3  and  N_4 
REMARK    2  A    between atoms: N_7  and  C_8 
REMARK    3  A    between atoms: C_9  and  N_10 
REMARK    4  A    between atoms: N_10  and  C_11 
REMARK    5  A    between atoms: C_11  and  N_12 
REMARK       I    between atoms: N_12  and  C_13 
REMARK    6  A    between atoms: C_13  and  C_14 
REMARK    7  A    between atoms: C_15  and  O_16 
ROOT
HETATM    1  C   UNL     1      43.339 -17.210   5.132  1.00  0.00     0.037 A 
HETATM    2  C   UNL     1      42.966 -18.140   4.122  1.00  0.00     0.057 A 
HETATM    3  C   UNL     1      43.563 -19.402   4.055  1.00  0.00     0.055 A 
HETATM    4  C   UNL     1      44.501 -19.769   5.015  1.00  0.00     0.036 A 
HETATM    5 CL   UNL     1      45.221 -21.331   4.948  1.00  0.00    -0.084 Cl
HETATM    6  C   UNL     1      44.871 -18.882   6.022  1.00  0.00     0.026 A 
HETATM    7  C   UNL     1      44.298 -17.607   6.074  1.00  0.00     0.027 A 
ENDROOT
BRANCH   2   8
HETATM    8  N   UNL     1      42.044 -17.681   3.152  1.00  0.00    -0.331 N 
HETATM    9  H   UNL     1      41.097 -17.630   3.521  1.00  0.00     0.168 HD
BRANCH   8  10
HETATM   10  C   UNL     1      42.221 -17.197   1.905  1.00  0.00     0.179 C 
HETATM   11  S   UNL     1      43.665 -17.491   1.113  1.00  0.00    -0.040 SA
BRANCH  10  12
HETATM   12  N   UNL     1      41.285 -16.429   1.279  1.00  0.00    -0.299 N 
HETATM   13  C   UNL     1      41.031 -15.066   1.415  1.00  0.00     0.260 C 
HETATM   14  O   UNL     1      41.646 -14.276   2.121  1.00  0.00    -0.267 OA
HETATM   15  H   UNL     1      40.940 -16.841   0.418  1.00  0.00     0.171 HD
BRANCH  13  16
HETATM   16  C   UNL     1      39.907 -14.555   0.590  1.00  0.00     0.066 A 
HETATM   17  C   UNL     1      40.027 -14.311  -0.787  1.00  0.00     0.089 A 
HETATM   18  C   UNL     1      38.910 -13.915  -1.541  1.00  0.00    -0.028 A 
HETATM   19  C   UNL     1      39.003 -13.674  -3.020  1.00  0.00     0.051 C 
HETATM   20  C   UNL     1      37.694 -13.691  -0.876  1.00  0.00     0.009 A 
HETATM   21  C   UNL     1      37.583 -13.891   0.501  1.00  0.00     0.002 A 
HETATM   22  C   UNL     1      38.687 -14.324   1.234  1.00  0.00     0.020 A 
BRANCH  17  23
HETATM   23  O   UNL     1      41.227 -14.511  -1.428  1.00  0.00    -0.354 OA
HETATM   24  C   UNL     1      42.005 -13.307  -1.399  1.00  0.00     0.210 C 
ENDBRANCH  17  23
ENDBRANCH  13  16
ENDBRANCH  10  12
ENDBRANCH   8  10
ENDBRANCH   2   8
BRANCH   1  25
HETATM   25  N   UNL     1      42.706 -15.943   5.162  1.00  0.00    -0.278 NA
HETATM   26  C   UNL     1      43.564 -14.763   5.405  1.00  0.00     0.115 C 
HETATM   27  C   UNL     1      42.761 -13.474   5.157  1.00  0.00     0.140 C 
HETATM   28  N   UNL     1      41.482 -13.434   5.884  1.00  0.00    -0.350 N 
HETATM   29  C   UNL     1      40.922 -12.178   6.105  1.00  0.00     0.219 C 
HETATM   30  C   UNL     1      40.690 -14.675   5.834  1.00  0.00     0.140 C 
HETATM   31  O   UNL     1      41.552 -11.139   5.904  1.00  0.00    -0.273 OA
HETATM   32  C   UNL     1      41.532 -15.944   6.074  1.00  0.00     0.115 C 
BRANCH  29  33
HETATM   33  C   UNL     1      39.492 -12.148   6.625  1.00  0.00     0.098 C 
HETATM   34  C   UNL     1      39.390 -11.530   8.011  1.00  0.00     0.014 C 
ENDBRANCH  29  33
ENDBRANCH   1  25
TORSDOF 7
ENDMDL
MODEL 10
REMARK VINA RESULT:      -7.9      3.254      6.035
REMARK  7 active torsions:
REMARK  status: ('A' for Active; 'I' for Inactive)
REMARK    1  A    between atoms: C_2  and  C_3 
REMARK       I    between atoms: C_3  and  N_4 
REMARK    2  A    between atoms: N_7  and  C_8 
REMARK    3  A    between atoms: C_9  and  N_10 
REMARK    4  A    between atoms: N_10  and  C_11 
REMARK    5  A    between atoms: C_11  and  N_12 
REMARK       I    between atoms: N_12  and  C_13 
REMARK    6  A    between atoms: C_13  and  C_14 
REMARK    7  A    between atoms: C_15  and  O_16 
ROOT
HETATM    1  C   UNL     1      39.542 -12.800   3.306  1.00  0.00     0.037 A 
HETATM    2  C   UNL     1      40.216 -13.601   4.269  1.00  0.00     0.057 A 
HETATM    3  C   UNL     1      40.207 -13.252   5.622  1.00  0.00     0.055 A 
HETATM    4  C   UNL     1      39.492 -12.134   6.039  1.00  0.00     0.036 A 
HETATM    5 CL   UNL     1      39.460 -11.716   7.708  1.00  0.00    -0.084 Cl
HETATM    6  C   UNL     1      38.811 -11.344   5.116  1.00  0.00     0.026 A 
HETATM    7  C   UNL     1      38.843 -11.672   3.758  1.00  0.00     0.027 A 
ENDROOT
BRANCH   2   8
HETATM    8  N   UNL     1      40.963 -14.693   3.769  1.00  0.00    -0.331 N 
HETATM    9  H   UNL     1      40.371 -15.376   3.300  1.00  0.00     0.168 HD
BRANCH   8  10
HETATM   10  C   UNL     1      42.293 -14.914   3.699  1.00  0.00     0.179 C 
HETATM   11  S   UNL     1      43.317 -13.630   3.382  1.00  0.00    -0.040 SA
BRANCH  10  12
HETATM   12  N   UNL     1      42.835 -16.159   3.826  1.00  0.00    -0.299 N 
HETATM   13  C   UNL     1      42.199 -17.378   4.047  1.00  0.00     0.260 C 
HETATM   14  O   UNL     1      40.991 -17.565   4.138  1.00  0.00    -0.267 OA
HETATM   15  H   UNL     1      43.765 -16.232   3.427  1.00  0.00     0.171 HD
BRANCH  13  16
HETATM   16  C   UNL     1      43.108 -18.546   4.158  1.00  0.00     0.066 A 
HETATM   17  C   UNL     1      43.370 -19.409   3.083  1.00  0.00     0.089 A 
HETATM   18  C   UNL     1      44.308 -20.446   3.213  1.00  0.00    -0.028 A 
HETATM   19  C   UNL     1      44.629 -21.366   2.071  1.00  0.00     0.051 C 
HETATM   20  C   UNL     1      44.918 -20.650   4.461  1.00  0.00     0.009 A 
HETATM   21  C   UNL     1      44.626 -19.820   5.545  1.00  0.00     0.002 A 
HETATM   22  C   UNL     1      43.724 -18.768   5.395  1.00  0.00     0.020 A 
BRANCH  17  23
HETATM   23  O   UNL     1      42.753 -19.216   1.870  1.00  0.00    -0.354 OA
HETATM   24  C   UNL     1      43.465 -18.232   1.108  1.00  0.00     0.210 C 
ENDBRANCH  17  23
ENDBRANCH  13  16
ENDBRANCH  10  12
ENDBRANCH   8  10
ENDBRANCH   2   8
BRANCH   1  25
HETATM   25  N   UNL     1      39.577 -13.193   1.945  1.00  0.00    -0.278 NA
HETATM   26  C   UNL     1      40.521 -12.478   1.058  1.00  0.00     0.115 C 
HETATM   27  C   UNL     1      40.602 -13.194  -0.301  1.00  0.00     0.140 C 
HETATM   28  N   UNL     1      39.286 -13.437  -0.914  1.00  0.00    -0.350 N 
HETATM   29  C   UNL     1      39.259 -13.635  -2.292  1.00  0.00     0.219 C 
HETATM   30  C   UNL     1      38.254 -13.959  -0.002  1.00  0.00     0.140 C 
HETATM   31  O   UNL     1      40.239 -13.407  -3.002  1.00  0.00    -0.273 OA
HETATM   32  C   UNL     1      38.213 -13.226   1.354  1.00  0.00     0.115 C 
BRANCH  29  33
HETATM   33  C   UNL     1      37.949 -14.133  -2.886  1.00  0.00     0.098 C 
HETATM   34  C   UNL     1      38.133 -15.386  -3.728  1.00  0.00     0.014 C 
ENDBRANCH  29  33
ENDBRANCH   1  25
TORSDOF 7
ENDMDL
