MODEL 1
REMARK VINA RESULT:      -8.9      0.000      0.000
REMARK  11 active torsions:
REMARK  status: ('A' for Active; 'I' for Inactive)
REMARK    1  A    between atoms: C_2  and  C_3 
REMARK    2  A    between atoms: C_3  and  C_4 
REMARK    3  A    between atoms: C_4  and  O_5 
REMARK    4  A    between atoms: O_5  and  C_6 
REMARK    5  A    between atoms: C_8  and  C_9 
REMARK       I    between atoms: C_9  and  N_10 
REMARK    6  A    between atoms: N_10  and  C_11 
REMARK    7  A    between atoms: C_11  and  N_12 
REMARK    8  A    between atoms: N_12  and  C_13 
REMARK    9  A    between atoms: C_15  and  C_16 
REMARK   10  A    between atoms: C_23  and  C_24 
REMARK   11  A    between atoms: C_27  and  O_28 
ROOT
HETATM    1  C   UNL     1      41.659 -13.120   5.668  1.00  0.00     0.035 A 
HETATM    2  C   UNL     1      42.362 -14.271   5.307  1.00  0.00     0.048 A 
HETATM    3  C   UNL     1      41.815 -15.227   4.438  1.00  0.00     0.052 A 
HETATM    4  C   UNL     1      40.536 -15.001   3.924  1.00  0.00     0.080 A 
HETATM    5  C   UNL     1      39.858 -13.814   4.209  1.00  0.00     0.040 A 
HETATM    6  C   UNL     1      40.428 -12.864   5.065  1.00  0.00     0.032 A 
ENDROOT
BRANCH   1   7
HETATM    7  N   UNL     1      42.183 -12.188   6.589  1.00  0.00    -0.333 N 
HETATM    8  H   UNL     1      43.159 -12.309   6.861  1.00  0.00     0.168 HD
BRANCH   7   9
HETATM    9  C   UNL     1      41.621 -11.001   7.000  1.00  0.00     0.179 C 
HETATM   10  S   UNL     1      41.501  -9.554   6.162  1.00  0.00    -0.040 SA
BRANCH   9  11
HETATM   11  N   UNL     1      41.089 -10.996   8.269  1.00  0.00    -0.299 N 
HETATM   12  C   UNL     1      39.763 -11.048   8.670  1.00  0.00     0.257 C 
HETATM   13  O   UNL     1      38.859 -11.550   8.015  1.00  0.00    -0.267 OA
HETATM   14  H   UNL     1      41.785 -10.798   8.978  1.00  0.00     0.171 HD
BRANCH  12  15
HETATM   15  C   UNL     1      39.541 -10.548  10.053  1.00  0.00     0.035 A 
HETATM   16  C   UNL     1      40.282 -11.090  11.110  1.00  0.00     0.053 A 
HETATM   17  C   UNL     1      40.132 -10.562  12.392  1.00  0.00     0.069 A 
HETATM   18  C   UNL     1      39.223  -9.521  12.611  1.00  0.00     0.037 A 
HETATM   19  C   UNL     1      38.458  -9.005  11.567  1.00  0.00     0.004 A 
HETATM   20  C   UNL     1      38.616  -9.518  10.283  1.00  0.00     0.017 A 
BRANCH  17  21
HETATM   21  O   UNL     1      40.817 -10.943  13.510  1.00  0.00    -0.351 OA
BRANCH  21  22
HETATM   22  C   UNL     1      41.357  -9.918  14.342  1.00  0.00     0.175 C 
BRANCH  22  23
HETATM   23  C   UNL     1      42.871  -9.884  14.141  1.00  0.00     0.026 C 
BRANCH  23  24
HETATM   24  C   UNL     1      43.271  -9.237  12.812  1.00  0.00    -0.002 C 
HETATM   25  C   UNL     1      43.893 -10.253  11.866  1.00  0.00     0.005 C 
ENDBRANCH  23  24
ENDBRANCH  22  23
ENDBRANCH  21  22
ENDBRANCH  17  21
ENDBRANCH  12  15
ENDBRANCH   9  11
ENDBRANCH   7   9
ENDBRANCH   1   7
BRANCH   3  26
HETATM   26  C   UNL     1      42.579 -16.425   4.123  1.00  0.00     0.183 A 
HETATM   27  O   UNL     1      43.278 -16.978   5.164  1.00  0.00    -0.289 OA
HETATM   28  C   UNL     1      43.816 -18.109   4.634  1.00  0.00     0.106 A 
HETATM   29  C   UNL     1      43.428 -18.182   3.308  1.00  0.00     0.094 A 
HETATM   30  C   UNL     1      44.593 -19.049   5.290  1.00  0.00     0.040 A 
HETATM   31  N   UNL     1      42.691 -17.067   2.972  1.00  0.00    -0.221 NA
HETATM   32  C   UNL     1      43.800 -19.312   2.565  1.00  0.00     0.041 A 
HETATM   33  C   UNL     1      44.543 -20.337   3.197  1.00  0.00    -0.056 A 
HETATM   34  C   UNL     1      44.954 -20.173   4.534  1.00  0.00     0.010 A 
BRANCH  33  35
HETATM   35  C   UNL     1      44.885 -21.569   2.385  1.00  0.00     0.034 C 
HETATM   36  C   UNL     1      43.816 -22.053   1.410  1.00  0.00     0.010 C 
ENDBRANCH  33  35
ENDBRANCH   3  26
BRANCH   4  37
HETATM   37  O   UNL     1      39.889 -15.904   3.123  1.00  0.00    -0.360 OA
HETATM   38  H   UNL     1      40.018 -16.799   3.499  1.00  0.00     0.217 HD
ENDBRANCH   4  37
TORSDOF 11
ENDMDL
MODEL 2
REMARK VINA RESULT:      -8.8      2.492     10.161
REMARK  11 active torsions:
REMARK  status: ('A' for Active; 'I' for Inactive)
REMARK    1  A    between atoms: C_2  and  C_3 
REMARK    2  A    between atoms: C_3  and  C_4 
REMARK    3  A    between atoms: C_4  and  O_5 
REMARK    4  A    between atoms: O_5  and  C_6 
REMARK    5  A    between atoms: C_8  and  C_9 
REMARK       I    between atoms: C_9  and  N_10 
REMARK    6  A    between atoms: N_10  and  C_11 
REMARK    7  A    between atoms: C_11  and  N_12 
REMARK    8  A    between atoms: N_12  and  C_13 
REMARK    9  A    between atoms: C_15  and  C_16 
REMARK   10  A    between atoms: C_23  and  C_24 
REMARK   11  A    between atoms: C_27  and  O_28 
ROOT
HETATM    1  C   UNL     1      40.479 -12.170   4.906  1.00  0.00     0.035 A 
HETATM    2  C   UNL     1      40.914 -12.009   6.224  1.00  0.00     0.048 A 
HETATM    3  C   UNL     1      41.396 -10.779   6.696  1.00  0.00     0.052 A 
HETATM    4  C   UNL     1      41.429  -9.696   5.814  1.00  0.00     0.080 A 
HETATM    5  C   UNL     1      40.918  -9.821   4.520  1.00  0.00     0.040 A 
HETATM    6  C   UNL     1      40.424 -11.053   4.073  1.00  0.00     0.032 A 
ENDROOT
BRANCH   1   7
HETATM    7  N   UNL     1      40.051 -13.420   4.413  1.00  0.00    -0.333 N 
HETATM    8  H   UNL     1      39.075 -13.670   4.576  1.00  0.00     0.168 HD
BRANCH   7   9
HETATM    9  C   UNL     1      40.713 -14.256   3.542  1.00  0.00     0.179 C 
HETATM   10  S   UNL     1      40.794 -14.173   1.871  1.00  0.00    -0.040 SA
BRANCH   9  11
HETATM   11  N   UNL     1      41.398 -15.302   4.117  1.00  0.00    -0.299 N 
HETATM   12  C   UNL     1      41.319 -15.806   5.406  1.00  0.00     0.257 C 
HETATM   13  O   UNL     1      40.334 -15.718   6.127  1.00  0.00    -0.267 OA
HETATM   14  H   UNL     1      42.145 -15.645   3.526  1.00  0.00     0.171 HD
BRANCH  12  15
HETATM   15  C   UNL     1      42.513 -16.595   5.808  1.00  0.00     0.035 A 
HETATM   16  C   UNL     1      42.588 -17.952   5.472  1.00  0.00     0.053 A 
HETATM   17  C   UNL     1      43.745 -18.670   5.777  1.00  0.00     0.069 A 
HETATM   18  C   UNL     1      44.800 -18.035   6.441  1.00  0.00     0.037 A 
HETATM   19  C   UNL     1      44.712 -16.693   6.810  1.00  0.00     0.004 A 
HETATM   20  C   UNL     1      43.566 -15.970   6.493  1.00  0.00     0.017 A 
BRANCH  17  21
HETATM   21  O   UNL     1      43.992 -19.976   5.469  1.00  0.00    -0.351 OA
BRANCH  21  22
HETATM   22  C   UNL     1      45.135 -20.267   4.667  1.00  0.00     0.175 C 
BRANCH  22  23
HETATM   23  C   UNL     1      44.684 -20.376   3.211  1.00  0.00     0.026 C 
BRANCH  23  24
HETATM   24  C   UNL     1      44.436 -21.825   2.781  1.00  0.00    -0.002 C 
HETATM   25  C   UNL     1      43.969 -21.903   1.336  1.00  0.00     0.005 C 
ENDBRANCH  23  24
ENDBRANCH  22  23
ENDBRANCH  21  22
ENDBRANCH  17  21
ENDBRANCH  12  15
ENDBRANCH   9  11
ENDBRANCH   7   9
ENDBRANCH   1   7
BRANCH   3  26
HETATM   26  C   UNL     1      41.868 -10.678   8.069  1.00  0.00     0.183 A 
HETATM   27  O   UNL     1      43.152 -11.102   8.293  1.00  0.00    -0.289 OA
HETATM   28  C   UNL     1      43.366 -10.820   9.605  1.00  0.00     0.106 A 
HETATM   29  C   UNL     1      42.211 -10.252  10.112  1.00  0.00     0.094 A 
HETATM   30  C   UNL     1      44.532 -11.029  10.323  1.00  0.00     0.040 A 
HETATM   31  N   UNL     1      41.235 -10.226   9.139  1.00  0.00    -0.221 NA
HETATM   32  C   UNL     1      42.215  -9.802  11.441  1.00  0.00     0.041 A 
HETATM   33  C   UNL     1      43.397  -9.933  12.207  1.00  0.00    -0.056 A 
HETATM   34  C   UNL     1      44.521 -10.572  11.647  1.00  0.00     0.010 A 
BRANCH  33  35
HETATM   35  C   UNL     1      43.389  -9.390  13.621  1.00  0.00     0.034 C 
HETATM   36  C   UNL     1      42.378 -10.014  14.579  1.00  0.00     0.010 C 
ENDBRANCH  33  35
ENDBRANCH   3  26
BRANCH   4  37
HETATM   37  O   UNL     1      41.943  -8.475   6.159  1.00  0.00    -0.360 OA
HETATM   38  H   UNL     1      42.908  -8.574   6.297  1.00  0.00     0.217 HD
ENDBRANCH   4  37
TORSDOF 11
ENDMDL
MODEL 3
REMARK VINA RESULT:      -8.8      2.675      5.093
REMARK  11 active torsions:
REMARK  status: ('A' for Active; 'I' for Inactive)
REMARK    1  A    between atoms: C_2  and  C_3 
REMARK    2  A    between atoms: C_3  and  C_4 
REMARK    3  A    between atoms: C_4  and  O_5 
REMARK    4  A    between atoms: O_5  and  C_6 
REMARK    5  A    between atoms: C_8  and  C_9 
REMARK       I    between atoms: C_9  and  N_10 
REMARK    6  A    between atoms: N_10  and  C_11 
REMARK    7  A    between atoms: C_11  and  N_12 
REMARK    8  A    between atoms: N_12  and  C_13 
REMARK    9  A    between atoms: C_15  and  C_16 
REMARK   10  A    between atoms: C_23  and  C_24 
REMARK   11  A    between atoms: C_27  and  O_28 
ROOT
HETATM    1  C   UNL     1      39.558 -12.018   6.744  1.00  0.00     0.035 A 
HETATM    2  C   UNL     1      40.006 -13.201   6.153  1.00  0.00     0.048 A 
HETATM    3  C   UNL     1      40.299 -13.277   4.783  1.00  0.00     0.052 A 
HETATM    4  C   UNL     1      40.137 -12.127   4.006  1.00  0.00     0.080 A 
HETATM    5  C   UNL     1      39.772 -10.917   4.599  1.00  0.00     0.040 A 
HETATM    6  C   UNL     1      39.502 -10.857   5.972  1.00  0.00     0.032 A 
ENDROOT
BRANCH   1   7
HETATM    7  N   UNL     1      39.206 -11.955   8.109  1.00  0.00    -0.333 N 
HETATM    8  H   UNL     1      38.723 -12.766   8.497  1.00  0.00     0.168 HD
BRANCH   7   9
HETATM    9  C   UNL     1      39.627 -11.041   9.048  1.00  0.00     0.179 C 
HETATM   10  S   UNL     1      38.735  -9.856   9.827  1.00  0.00    -0.040 SA
BRANCH   9  11
HETATM   11  N   UNL     1      40.958 -11.105   9.394  1.00  0.00    -0.299 N 
HETATM   12  C   UNL     1      42.028 -10.358   8.924  1.00  0.00     0.257 C 
HETATM   13  O   UNL     1      41.936  -9.229   8.462  1.00  0.00    -0.267 OA
HETATM   14  H   UNL     1      41.166 -11.903   9.980  1.00  0.00     0.171 HD
BRANCH  12  15
HETATM   15  C   UNL     1      43.347 -11.005   9.152  1.00  0.00     0.035 A 
HETATM   16  C   UNL     1      43.736 -12.082   8.347  1.00  0.00     0.053 A 
HETATM   17  C   UNL     1      45.007 -12.633   8.508  1.00  0.00     0.069 A 
HETATM   18  C   UNL     1      45.864 -12.124   9.490  1.00  0.00     0.037 A 
HETATM   19  C   UNL     1      45.465 -11.075  10.318  1.00  0.00     0.004 A 
HETATM   20  C   UNL     1      44.203 -10.513  10.150  1.00  0.00     0.017 A 
BRANCH  17  21
HETATM   21  O   UNL     1      45.551 -13.644   7.770  1.00  0.00    -0.351 OA
BRANCH  21  22
HETATM   22  C   UNL     1      44.740 -14.245   6.762  1.00  0.00     0.175 C 
BRANCH  22  23
HETATM   23  C   UNL     1      44.086 -15.493   7.355  1.00  0.00     0.026 C 
BRANCH  23  24
HETATM   24  C   UNL     1      44.476 -16.770   6.605  1.00  0.00    -0.002 C 
HETATM   25  C   UNL     1      43.562 -17.929   6.972  1.00  0.00     0.005 C 
ENDBRANCH  23  24
ENDBRANCH  22  23
ENDBRANCH  21  22
ENDBRANCH  17  21
ENDBRANCH  12  15
ENDBRANCH   9  11
ENDBRANCH   7   9
ENDBRANCH   1   7
BRANCH   3  26
HETATM   26  C   UNL     1      40.730 -14.546   4.215  1.00  0.00     0.183 A 
HETATM   27  O   UNL     1      40.150 -14.895   3.023  1.00  0.00    -0.289 OA
HETATM   28  C   UNL     1      40.782 -16.048   2.677  1.00  0.00     0.106 A 
HETATM   29  C   UNL     1      41.699 -16.345   3.670  1.00  0.00     0.094 A 
HETATM   30  C   UNL     1      40.581 -16.796   1.529  1.00  0.00     0.040 A 
HETATM   31  N   UNL     1      41.612 -15.413   4.682  1.00  0.00    -0.221 NA
HETATM   32  C   UNL     1      42.533 -17.458   3.497  1.00  0.00     0.041 A 
HETATM   33  C   UNL     1      42.417 -18.227   2.315  1.00  0.00    -0.056 A 
HETATM   34  C   UNL     1      41.424 -17.903   1.370  1.00  0.00     0.010 A 
BRANCH  33  35
HETATM   35  C   UNL     1      43.367 -19.393   2.130  1.00  0.00     0.034 C 
HETATM   36  C   UNL     1      44.291 -19.703   3.304  1.00  0.00     0.010 C 
ENDBRANCH  33  35
ENDBRANCH   3  26
BRANCH   4  37
HETATM   37  O   UNL     1      40.332 -12.116   2.650  1.00  0.00    -0.360 OA
HETATM   38  H   UNL     1      39.782 -11.402   2.266  1.00  0.00     0.217 HD
ENDBRANCH   4  37
TORSDOF 11
ENDMDL
MODEL 4
REMARK VINA RESULT:      -8.7      4.757      9.663
REMARK  11 active torsions:
REMARK  status: ('A' for Active; 'I' for Inactive)
REMARK    1  A    between atoms: C_2  and  C_3 
REMARK    2  A    between atoms: C_3  and  C_4 
REMARK    3  A    between atoms: C_4  and  O_5 
REMARK    4  A    between atoms: O_5  and  C_6 
REMARK    5  A    between atoms: C_8  and  C_9 
REMARK       I    between atoms: C_9  and  N_10 
REMARK    6  A    between atoms: N_10  and  C_11 
REMARK    7  A    between atoms: C_11  and  N_12 
REMARK    8  A    between atoms: N_12  and  C_13 
REMARK    9  A    between atoms: C_15  and  C_16 
REMARK   10  A    between atoms: C_23  and  C_24 
REMARK   11  A    between atoms: C_27  and  O_28 
ROOT
HETATM    1  C   UNL     1      39.486 -12.331   3.620  1.00  0.00     0.035 A 
HETATM    2  C   UNL     1      40.123 -13.523   3.269  1.00  0.00     0.048 A 
HETATM    3  C   UNL     1      40.452 -14.494   4.226  1.00  0.00     0.052 A 
HETATM    4  C   UNL     1      40.120 -14.248   5.561  1.00  0.00     0.080 A 
HETATM    5  C   UNL     1      39.407 -13.100   5.914  1.00  0.00     0.040 A 
HETATM    6  C   UNL     1      39.072 -12.151   4.941  1.00  0.00     0.032 A 
ENDROOT
BRANCH   1   7
HETATM    7  N   UNL     1      39.209 -11.327   2.668  1.00  0.00    -0.333 N 
HETATM    8  H   UNL     1      38.275 -10.919   2.688  1.00  0.00     0.168 HD
BRANCH   7   9
HETATM    9  C   UNL     1      40.103 -10.663   1.858  1.00  0.00     0.179 C 
HETATM   10  S   UNL     1      40.785  -9.148   2.076  1.00  0.00    -0.040 SA
BRANCH   9  11
HETATM   11  N   UNL     1      40.486 -11.327   0.715  1.00  0.00    -0.299 N 
HETATM   12  C   UNL     1      41.714 -11.879   0.386  1.00  0.00     0.257 C 
HETATM   13  O   UNL     1      42.540 -12.271   1.199  1.00  0.00    -0.267 OA
HETATM   14  H   UNL     1      39.786 -11.275  -0.014  1.00  0.00     0.171 HD
BRANCH  12  15
HETATM   15  C   UNL     1      41.901 -12.080  -1.076  1.00  0.00     0.035 A 
HETATM   16  C   UNL     1      41.642 -13.336  -1.638  1.00  0.00     0.053 A 
HETATM   17  C   UNL     1      41.738 -13.499  -3.020  1.00  0.00     0.069 A 
HETATM   18  C   UNL     1      42.120 -12.418  -3.821  1.00  0.00     0.037 A 
HETATM   19  C   UNL     1      42.413 -11.177  -3.259  1.00  0.00     0.004 A 
HETATM   20  C   UNL     1      42.304 -11.005  -1.883  1.00  0.00     0.017 A 
BRANCH  17  21
HETATM   21  O   UNL     1      41.467 -14.639  -3.721  1.00  0.00    -0.351 OA
BRANCH  21  22
HETATM   22  C   UNL     1      40.673 -15.640  -3.085  1.00  0.00     0.175 C 
BRANCH  22  23
HETATM   23  C   UNL     1      39.329 -15.717  -3.809  1.00  0.00     0.026 C 
BRANCH  23  24
HETATM   24  C   UNL     1      38.294 -14.751  -3.227  1.00  0.00    -0.002 C 
HETATM   25  C   UNL     1      37.012 -14.752  -4.046  1.00  0.00     0.005 C 
ENDBRANCH  23  24
ENDBRANCH  22  23
ENDBRANCH  21  22
ENDBRANCH  17  21
ENDBRANCH  12  15
ENDBRANCH   9  11
ENDBRANCH   7   9
ENDBRANCH   1   7
BRANCH   3  26
HETATM   26  C   UNL     1      41.146 -15.703   3.807  1.00  0.00     0.183 A 
HETATM   27  O   UNL     1      41.608 -15.710   2.517  1.00  0.00    -0.289 OA
HETATM   28  C   UNL     1      42.280 -16.887   2.416  1.00  0.00     0.106 A 
HETATM   29  C   UNL     1      42.187 -17.535   3.635  1.00  0.00     0.094 A 
HETATM   30  C   UNL     1      42.966 -17.363   1.310  1.00  0.00     0.040 A 
HETATM   31  N   UNL     1      41.404 -16.800   4.498  1.00  0.00    -0.221 NA
HETATM   32  C   UNL     1      42.874 -18.747   3.801  1.00  0.00     0.041 A 
HETATM   33  C   UNL     1      43.643 -19.254   2.726  1.00  0.00    -0.056 A 
HETATM   34  C   UNL     1      43.648 -18.573   1.494  1.00  0.00     0.010 A 
BRANCH  33  35
HETATM   35  C   UNL     1      44.417 -20.537   2.952  1.00  0.00     0.034 C 
HETATM   36  C   UNL     1      44.213 -21.639   1.917  1.00  0.00     0.010 C 
ENDBRANCH  33  35
ENDBRANCH   3  26
BRANCH   4  37
HETATM   37  O   UNL     1      40.457 -15.102   6.578  1.00  0.00    -0.360 OA
HETATM   38  H   UNL     1      41.349 -14.859   6.902  1.00  0.00     0.217 HD
ENDBRANCH   4  37
TORSDOF 11
ENDMDL
MODEL 5
REMARK VINA RESULT:      -8.7      1.925      3.028
REMARK  11 active torsions:
REMARK  status: ('A' for Active; 'I' for Inactive)
REMARK    1  A    between atoms: C_2  and  C_3 
REMARK    2  A    between atoms: C_3  and  C_4 
REMARK    3  A    between atoms: C_4  and  O_5 
REMARK    4  A    between atoms: O_5  and  C_6 
REMARK    5  A    between atoms: C_8  and  C_9 
REMARK       I    between atoms: C_9  and  N_10 
REMARK    6  A    between atoms: N_10  and  C_11 
REMARK    7  A    between atoms: C_11  and  N_12 
REMARK    8  A    between atoms: N_12  and  C_13 
REMARK    9  A    between atoms: C_15  and  C_16 
REMARK   10  A    between atoms: C_23  and  C_24 
REMARK   11  A    between atoms: C_27  and  O_28 
ROOT
HETATM    1  C   UNL     1      39.852 -13.141   5.735  1.00  0.00     0.035 A 
HETATM    2  C   UNL     1      40.718 -14.213   5.509  1.00  0.00     0.048 A 
HETATM    3  C   UNL     1      40.930 -14.731   4.222  1.00  0.00     0.052 A 
HETATM    4  C   UNL     1      40.253 -14.144   3.151  1.00  0.00     0.080 A 
HETATM    5  C   UNL     1      39.451 -13.018   3.351  1.00  0.00     0.040 A 
HETATM    6  C   UNL     1      39.266 -12.504   4.640  1.00  0.00     0.032 A 
ENDROOT
BRANCH   1   7
HETATM    7  N   UNL     1      39.592 -12.658   7.035  1.00  0.00    -0.333 N 
HETATM    8  H   UNL     1      39.291 -13.342   7.728  1.00  0.00     0.168 HD
BRANCH   7   9
HETATM    9  C   UNL     1      39.906 -11.422   7.554  1.00  0.00     0.179 C 
HETATM   10  S   UNL     1      39.547  -9.906   6.938  1.00  0.00    -0.040 SA
BRANCH   9  11
HETATM   11  N   UNL     1      40.611 -11.429   8.736  1.00  0.00    -0.299 N 
HETATM   12  C   UNL     1      40.363 -10.745   9.915  1.00  0.00     0.257 C 
HETATM   13  O   UNL     1      39.258 -10.367  10.280  1.00  0.00    -0.267 OA
HETATM   14  H   UNL     1      41.497 -11.913   8.653  1.00  0.00     0.171 HD
BRANCH  12  15
HETATM   15  C   UNL     1      41.560 -10.616  10.789  1.00  0.00     0.035 A 
HETATM   16  C   UNL     1      42.816 -10.993  10.299  1.00  0.00     0.053 A 
HETATM   17  C   UNL     1      43.947 -10.793  11.090  1.00  0.00     0.069 A 
HETATM   18  C   UNL     1      43.809 -10.249  12.372  1.00  0.00     0.037 A 
HETATM   19  C   UNL     1      42.555  -9.907  12.876  1.00  0.00     0.004 A 
HETATM   20  C   UNL     1      41.426 -10.091  12.083  1.00  0.00     0.017 A 
BRANCH  17  21
HETATM   21  O   UNL     1      45.239 -11.056  10.737  1.00  0.00    -0.351 OA
BRANCH  21  22
HETATM   22  C   UNL     1      45.576 -11.001   9.352  1.00  0.00     0.175 C 
BRANCH  22  23
HETATM   23  C   UNL     1      45.883 -12.421   8.876  1.00  0.00     0.026 C 
BRANCH  23  24
HETATM   24  C   UNL     1      44.706 -13.056   8.131  1.00  0.00    -0.002 C 
HETATM   25  C   UNL     1      45.185 -13.942   6.991  1.00  0.00     0.005 C 
ENDBRANCH  23  24
ENDBRANCH  22  23
ENDBRANCH  21  22
ENDBRANCH  17  21
ENDBRANCH  12  15
ENDBRANCH   9  11
ENDBRANCH   7   9
ENDBRANCH   1   7
BRANCH   3  26
HETATM   26  C   UNL     1      41.818 -15.871   4.050  1.00  0.00     0.183 A 
HETATM   27  O   UNL     1      42.467 -16.299   5.179  1.00  0.00    -0.289 OA
HETATM   28  C   UNL     1      43.143 -17.405   4.769  1.00  0.00     0.106 A 
HETATM   29  C   UNL     1      42.881 -17.588   3.423  1.00  0.00     0.094 A 
HETATM   30  C   UNL     1      43.937 -18.232   5.546  1.00  0.00     0.040 A 
HETATM   31  N   UNL     1      42.085 -16.565   2.956  1.00  0.00    -0.221 NA
HETATM   32  C   UNL     1      43.412 -18.721   2.787  1.00  0.00     0.041 A 
HETATM   33  C   UNL     1      44.181 -19.636   3.544  1.00  0.00    -0.056 A 
HETATM   34  C   UNL     1      44.457 -19.359   4.897  1.00  0.00     0.010 A 
BRANCH  33  35
HETATM   35  C   UNL     1      44.696 -20.877   2.844  1.00  0.00     0.034 C 
HETATM   36  C   UNL     1      43.771 -21.499   1.803  1.00  0.00     0.010 C 
ENDBRANCH  33  35
ENDBRANCH   3  26
BRANCH   4  37
HETATM   37  O   UNL     1      40.340 -14.618   1.869  1.00  0.00    -0.360 OA
HETATM   38  H   UNL     1      41.283 -14.787   1.666  1.00  0.00     0.217 HD
ENDBRANCH   4  37
TORSDOF 11
ENDMDL
MODEL 6
REMARK VINA RESULT:      -8.6      5.417      9.754
REMARK  11 active torsions:
REMARK  status: ('A' for Active; 'I' for Inactive)
REMARK    1  A    between atoms: C_2  and  C_3 
REMARK    2  A    between atoms: C_3  and  C_4 
REMARK    3  A    between atoms: C_4  and  O_5 
REMARK    4  A    between atoms: O_5  and  C_6 
REMARK    5  A    between atoms: C_8  and  C_9 
REMARK       I    between atoms: C_9  and  N_10 
REMARK    6  A    between atoms: N_10  and  C_11 
REMARK    7  A    between atoms: C_11  and  N_12 
REMARK    8  A    between atoms: N_12  and  C_13 
REMARK    9  A    between atoms: C_15  and  C_16 
REMARK   10  A    between atoms: C_23  and  C_24 
REMARK   11  A    between atoms: C_27  and  O_28 
ROOT
HETATM    1  C   UNL     1      41.843 -14.435   4.303  1.00  0.00     0.035 A 
HETATM    2  C   UNL     1      42.129 -13.715   3.141  1.00  0.00     0.048 A 
HETATM    3  C   UNL     1      41.513 -14.016   1.916  1.00  0.00     0.052 A 
HETATM    4  C   UNL     1      40.588 -15.063   1.879  1.00  0.00     0.080 A 
HETATM    5  C   UNL     1      40.229 -15.733   3.050  1.00  0.00     0.040 A 
HETATM    6  C   UNL     1      40.842 -15.406   4.266  1.00  0.00     0.032 A 
ENDROOT
BRANCH   1   7
HETATM    7  N   UNL     1      42.505 -14.173   5.521  1.00  0.00    -0.333 N 
HETATM    8  H   UNL     1      42.096 -13.458   6.122  1.00  0.00     0.168 HD
BRANCH   7   9
HETATM    9  C   UNL     1      43.505 -14.911   6.113  1.00  0.00     0.179 C 
HETATM   10  S   UNL     1      44.856 -14.367   6.942  1.00  0.00    -0.040 SA
BRANCH   9  11
HETATM   11  N   UNL     1      43.384 -16.278   6.010  1.00  0.00    -0.299 N 
HETATM   12  C   UNL     1      43.430 -17.245   7.003  1.00  0.00     0.257 C 
HETATM   13  O   UNL     1      43.142 -17.050   8.176  1.00  0.00    -0.267 OA
HETATM   14  H   UNL     1      43.390 -16.594   5.048  1.00  0.00     0.171 HD
BRANCH  12  15
HETATM   15  C   UNL     1      43.741 -18.606   6.491  1.00  0.00     0.035 A 
HETATM   16  C   UNL     1      44.202 -18.760   5.178  1.00  0.00     0.053 A 
HETATM   17  C   UNL     1      44.572 -20.028   4.727  1.00  0.00     0.069 A 
HETATM   18  C   UNL     1      44.450 -21.130   5.580  1.00  0.00     0.037 A 
HETATM   19  C   UNL     1      43.956 -20.983   6.876  1.00  0.00     0.004 A 
HETATM   20  C   UNL     1      43.601 -19.718   7.334  1.00  0.00     0.017 A 
BRANCH  17  21
HETATM   21  O   UNL     1      45.087 -20.332   3.500  1.00  0.00    -0.351 OA
BRANCH  21  22
HETATM   22  C   UNL     1      44.191 -20.820   2.503  1.00  0.00     0.175 C 
BRANCH  22  23
HETATM   23  C   UNL     1      43.285 -19.669   2.069  1.00  0.00     0.026 C 
BRANCH  23  24
HETATM   24  C   UNL     1      44.076 -18.434   1.630  1.00  0.00    -0.002 C 
HETATM   25  C   UNL     1      43.175 -17.404   0.967  1.00  0.00     0.005 C 
ENDBRANCH  23  24
ENDBRANCH  22  23
ENDBRANCH  21  22
ENDBRANCH  17  21
ENDBRANCH  12  15
ENDBRANCH   9  11
ENDBRANCH   7   9
ENDBRANCH   1   7
BRANCH   3  26
HETATM   26  C   UNL     1      41.875 -13.255   0.730  1.00  0.00     0.183 A 
HETATM   27  O   UNL     1      41.874 -13.952  -0.450  1.00  0.00    -0.289 OA
HETATM   28  C   UNL     1      42.150 -13.007  -1.388  1.00  0.00     0.106 A 
HETATM   29  C   UNL     1      42.312 -11.797  -0.738  1.00  0.00     0.094 A 
HETATM   30  C   UNL     1      42.233 -13.193  -2.759  1.00  0.00     0.040 A 
HETATM   31  N   UNL     1      42.199 -11.978   0.624  1.00  0.00    -0.221 NA
HETATM   32  C   UNL     1      42.530 -10.647  -1.511  1.00  0.00     0.041 A 
HETATM   33  C   UNL     1      42.564 -10.763  -2.921  1.00  0.00    -0.056 A 
HETATM   34  C   UNL     1      42.449 -12.034  -3.516  1.00  0.00     0.010 A 
BRANCH  33  35
HETATM   35  C   UNL     1      42.748  -9.497  -3.732  1.00  0.00     0.034 C 
HETATM   36  C   UNL     1      42.531  -9.621  -5.237  1.00  0.00     0.010 C 
ENDBRANCH  33  35
ENDBRANCH   3  26
BRANCH   4  37
HETATM   37  O   UNL     1      39.984 -15.476   0.721  1.00  0.00    -0.360 OA
HETATM   38  H   UNL     1      40.669 -15.861   0.136  1.00  0.00     0.217 HD
ENDBRANCH   4  37
TORSDOF 11
ENDMDL
MODEL 7
REMARK VINA RESULT:      -8.6      4.648      9.147
REMARK  11 active torsions:
REMARK  status: ('A' for Active; 'I' for Inactive)
REMARK    1  A    between atoms: C_2  and  C_3 
REMARK    2  A    between atoms: C_3  and  C_4 
REMARK    3  A    between atoms: C_4  and  O_5 
REMARK    4  A    between atoms: O_5  and  C_6 
REMARK    5  A    between atoms: C_8  and  C_9 
REMARK       I    between atoms: C_9  and  N_10 
REMARK    6  A    between atoms: N_10  and  C_11 
REMARK    7  A    between atoms: C_11  and  N_12 
REMARK    8  A    between atoms: N_12  and  C_13 
REMARK    9  A    between atoms: C_15  and  C_16 
REMARK   10  A    between atoms: C_23  and  C_24 
REMARK   11  A    between atoms: C_27  and  O_28 
ROOT
HETATM    1  C   UNL     1      40.615 -14.065   5.546  1.00  0.00     0.035 A 
HETATM    2  C   UNL     1      40.693 -14.277   4.168  1.00  0.00     0.048 A 
HETATM    3  C   UNL     1      39.981 -13.481   3.257  1.00  0.00     0.052 A 
HETATM    4  C   UNL     1      39.183 -12.451   3.761  1.00  0.00     0.080 A 
HETATM    5  C   UNL     1      39.164 -12.174   5.129  1.00  0.00     0.040 A 
HETATM    6  C   UNL     1      39.895 -12.969   6.020  1.00  0.00     0.032 A 
ENDROOT
BRANCH   1   7
HETATM    7  N   UNL     1      41.283 -14.902   6.465  1.00  0.00    -0.333 N 
HETATM    8  H   UNL     1      40.711 -15.344   7.185  1.00  0.00     0.168 HD
BRANCH   7   9
HETATM    9  C   UNL     1      42.570 -15.385   6.387  1.00  0.00     0.179 C 
HETATM   10  S   UNL     1      44.010 -14.528   6.378  1.00  0.00    -0.040 SA
BRANCH   9  11
HETATM   11  N   UNL     1      42.694 -16.753   6.301  1.00  0.00    -0.299 N 
HETATM   12  C   UNL     1      43.259 -17.645   7.199  1.00  0.00     0.257 C 
HETATM   13  O   UNL     1      43.346 -17.455   8.405  1.00  0.00    -0.267 OA
HETATM   14  H   UNL     1      42.441 -17.106   5.386  1.00  0.00     0.171 HD
BRANCH  12  15
HETATM   15  C   UNL     1      43.644 -18.942   6.583  1.00  0.00     0.035 A 
HETATM   16  C   UNL     1      44.115 -18.968   5.264  1.00  0.00     0.053 A 
HETATM   17  C   UNL     1      44.552 -20.174   4.717  1.00  0.00     0.069 A 
HETATM   18  C   UNL     1      44.488 -21.345   5.480  1.00  0.00     0.037 A 
HETATM   19  C   UNL     1      43.985 -21.328   6.780  1.00  0.00     0.004 A 
HETATM   20  C   UNL     1      43.561 -20.124   7.335  1.00  0.00     0.017 A 
BRANCH  17  21
HETATM   21  O   UNL     1      45.086 -20.352   3.473  1.00  0.00    -0.351 OA
BRANCH  21  22
HETATM   22  C   UNL     1      44.217 -20.800   2.434  1.00  0.00     0.175 C 
BRANCH  22  23
HETATM   23  C   UNL     1      43.227 -19.678   2.120  1.00  0.00     0.026 C 
BRANCH  23  24
HETATM   24  C   UNL     1      43.908 -18.451   1.507  1.00  0.00    -0.002 C 
HETATM   25  C   UNL     1      43.429 -17.165   2.163  1.00  0.00     0.005 C 
ENDBRANCH  23  24
ENDBRANCH  22  23
ENDBRANCH  21  22
ENDBRANCH  17  21
ENDBRANCH  12  15
ENDBRANCH   9  11
ENDBRANCH   7   9
ENDBRANCH   1   7
BRANCH   3  26
HETATM   26  C   UNL     1      40.074 -13.769   1.834  1.00  0.00     0.183 A 
HETATM   27  O   UNL     1      40.972 -14.741   1.478  1.00  0.00    -0.289 OA
HETATM   28  C   UNL     1      40.796 -14.875   0.137  1.00  0.00     0.106 A 
HETATM   29  C   UNL     1      39.816 -13.980  -0.254  1.00  0.00     0.094 A 
HETATM   30  C   UNL     1      41.450 -15.759  -0.706  1.00  0.00     0.040 A 
HETATM   31  N   UNL     1      39.406 -13.231   0.828  1.00  0.00    -0.221 NA
HETATM   32  C   UNL     1      39.403 -13.986  -1.595  1.00  0.00     0.041 A 
HETATM   33  C   UNL     1      39.991 -14.909  -2.491  1.00  0.00    -0.056 A 
HETATM   34  C   UNL     1      41.024 -15.753  -2.040  1.00  0.00     0.010 A 
BRANCH  33  35
HETATM   35  C   UNL     1      39.487 -14.929  -3.920  1.00  0.00     0.034 C 
HETATM   36  C   UNL     1      38.634 -16.129  -4.319  1.00  0.00     0.010 C 
ENDBRANCH  33  35
ENDBRANCH   3  26
BRANCH   4  37
HETATM   37  O   UNL     1      38.399 -11.663   2.961  1.00  0.00    -0.360 OA
HETATM   38  H   UNL     1      38.349 -12.076   2.074  1.00  0.00     0.217 HD
ENDBRANCH   4  37
TORSDOF 11
ENDMDL
MODEL 8
REMARK VINA RESULT:      -8.6      2.155      2.820
REMARK  11 active torsions:
REMARK  status: ('A' for Active; 'I' for Inactive)
REMARK    1  A    between atoms: C_2  and  C_3 
REMARK    2  A    between atoms: C_3  and  C_4 
REMARK    3  A    between atoms: C_4  and  O_5 
REMARK    4  A    between atoms: O_5  and  C_6 
REMARK    5  A    between atoms: C_8  and  C_9 
REMARK       I    between atoms: C_9  and  N_10 
REMARK    6  A    between atoms: N_10  and  C_11 
REMARK    7  A    between atoms: C_11  and  N_12 
REMARK    8  A    between atoms: N_12  and  C_13 
REMARK    9  A    between atoms: C_15  and  C_16 
REMARK   10  A    between atoms: C_23  and  C_24 
REMARK   11  A    between atoms: C_27  and  O_28 
ROOT
HETATM    1  C   UNL     1      40.804 -12.314   2.800  1.00  0.00     0.035 A 
HETATM    2  C   UNL     1      41.584 -13.471   2.858  1.00  0.00     0.048 A 
HETATM    3  C   UNL     1      41.053 -14.734   2.553  1.00  0.00     0.052 A 
HETATM    4  C   UNL     1      39.710 -14.816   2.178  1.00  0.00     0.080 A 
HETATM    5  C   UNL     1      38.943 -13.658   2.033  1.00  0.00     0.040 A 
HETATM    6  C   UNL     1      39.495 -12.405   2.325  1.00  0.00     0.032 A 
ENDROOT
BRANCH   1   7
HETATM    7  N   UNL     1      41.319 -11.052   3.165  1.00  0.00    -0.333 N 
HETATM    8  H   UNL     1      42.028 -10.650   2.551  1.00  0.00     0.168 HD
BRANCH   7   9
HETATM    9  C   UNL     1      40.831 -10.184   4.115  1.00  0.00     0.179 C 
HETATM   10  S   UNL     1      40.089  -8.698   3.894  1.00  0.00    -0.040 SA
BRANCH   9  11
HETATM   11  N   UNL     1      40.974 -10.586   5.424  1.00  0.00    -0.299 N 
HETATM   12  C   UNL     1      40.024 -11.082   6.303  1.00  0.00     0.257 C 
HETATM   13  O   UNL     1      39.004 -11.669   5.964  1.00  0.00    -0.267 OA
HETATM   14  H   UNL     1      41.884 -10.353   5.802  1.00  0.00     0.171 HD
BRANCH  12  15
HETATM   15  C   UNL     1      40.414 -10.956   7.732  1.00  0.00     0.035 A 
HETATM   16  C   UNL     1      41.756 -10.730   8.063  1.00  0.00     0.053 A 
HETATM   17  C   UNL     1      42.106 -10.530   9.398  1.00  0.00     0.069 A 
HETATM   18  C   UNL     1      41.121 -10.588  10.390  1.00  0.00     0.037 A 
HETATM   19  C   UNL     1      39.791 -10.850  10.066  1.00  0.00     0.004 A 
HETATM   20  C   UNL     1      39.434 -11.035   8.733  1.00  0.00     0.017 A 
BRANCH  17  21
HETATM   21  O   UNL     1      43.354 -10.246   9.874  1.00  0.00    -0.351 OA
BRANCH  21  22
HETATM   22  C   UNL     1      44.097 -11.307  10.471  1.00  0.00     0.175 C 
BRANCH  22  23
HETATM   23  C   UNL     1      45.574 -11.108  10.132  1.00  0.00     0.026 C 
BRANCH  23  24
HETATM   24  C   UNL     1      45.950 -11.713   8.776  1.00  0.00    -0.002 C 
HETATM   25  C   UNL     1      45.041 -12.879   8.418  1.00  0.00     0.005 C 
ENDBRANCH  23  24
ENDBRANCH  22  23
ENDBRANCH  21  22
ENDBRANCH  17  21
ENDBRANCH  12  15
ENDBRANCH   9  11
ENDBRANCH   7   9
ENDBRANCH   1   7
BRANCH   3  26
HETATM   26  C   UNL     1      41.904 -15.910   2.663  1.00  0.00     0.183 A 
HETATM   27  O   UNL     1      42.445 -16.142   3.901  1.00  0.00    -0.289 OA
HETATM   28  C   UNL     1      43.105 -17.321   3.754  1.00  0.00     0.106 A 
HETATM   29  C   UNL     1      42.941 -17.740   2.445  1.00  0.00     0.094 A 
HETATM   30  C   UNL     1      43.801 -18.014   4.730  1.00  0.00     0.040 A 
HETATM   31  N   UNL     1      42.226 -16.797   1.738  1.00  0.00    -0.221 NA
HETATM   32  C   UNL     1      43.471 -18.983   2.070  1.00  0.00     0.041 A 
HETATM   33  C   UNL     1      44.141 -19.765   3.040  1.00  0.00    -0.056 A 
HETATM   34  C   UNL     1      44.323 -19.255   4.340  1.00  0.00     0.010 A 
BRANCH  33  35
HETATM   35  C   UNL     1      44.657 -21.126   2.620  1.00  0.00     0.034 C 
HETATM   36  C   UNL     1      43.836 -21.865   1.567  1.00  0.00     0.010 C 
ENDBRANCH  33  35
ENDBRANCH   3  26
BRANCH   4  37
HETATM   37  O   UNL     1      39.083 -16.007   1.926  1.00  0.00    -0.360 OA
HETATM   38  H   UNL     1      39.104 -16.546   2.744  1.00  0.00     0.217 HD
ENDBRANCH   4  37
TORSDOF 11
ENDMDL
MODEL 9
REMARK VINA RESULT:      -8.5      1.819      2.260
REMARK  11 active torsions:
REMARK  status: ('A' for Active; 'I' for Inactive)
REMARK    1  A    between atoms: C_2  and  C_3 
REMARK    2  A    between atoms: C_3  and  C_4 
REMARK    3  A    between atoms: C_4  and  O_5 
REMARK    4  A    between atoms: O_5  and  C_6 
REMARK    5  A    between atoms: C_8  and  C_9 
REMARK       I    between atoms: C_9  and  N_10 
REMARK    6  A    between atoms: N_10  and  C_11 
REMARK    7  A    between atoms: C_11  and  N_12 
REMARK    8  A    between atoms: N_12  and  C_13 
REMARK    9  A    between atoms: C_15  and  C_16 
REMARK   10  A    between atoms: C_23  and  C_24 
REMARK   11  A    between atoms: C_27  and  O_28 
ROOT
HETATM    1  C   UNL     1      41.029 -12.553   3.468  1.00  0.00     0.035 A 
HETATM    2  C   UNL     1      41.736 -13.752   3.354  1.00  0.00     0.048 A 
HETATM    3  C   UNL     1      41.138 -14.917   2.849  1.00  0.00     0.052 A 
HETATM    4  C   UNL     1      39.800 -14.855   2.448  1.00  0.00     0.080 A 
HETATM    5  C   UNL     1      39.108 -13.642   2.477  1.00  0.00     0.040 A 
HETATM    6  C   UNL     1      39.728 -12.487   2.968  1.00  0.00     0.032 A 
ENDROOT
BRANCH   1   7
HETATM    7  N   UNL     1      41.611 -11.398   4.032  1.00  0.00    -0.333 N 
HETATM    8  H   UNL     1      42.628 -11.329   3.991  1.00  0.00     0.168 HD
BRANCH   7   9
HETATM    9  C   UNL     1      40.978 -10.243   4.430  1.00  0.00     0.179 C 
HETATM   10  S   UNL     1      40.490  -8.941   3.494  1.00  0.00    -0.040 SA
BRANCH   9  11
HETATM   11  N   UNL     1      40.712 -10.137   5.776  1.00  0.00    -0.299 N 
HETATM   12  C   UNL     1      41.377  -9.413   6.753  1.00  0.00     0.257 C 
HETATM   13  O   UNL     1      42.032  -8.401   6.541  1.00  0.00    -0.267 OA
HETATM   14  H   UNL     1      40.003 -10.793   6.081  1.00  0.00     0.171 HD
BRANCH  12  15
HETATM   15  C   UNL     1      41.118  -9.901   8.133  1.00  0.00     0.035 A 
HETATM   16  C   UNL     1      42.147 -10.524   8.849  1.00  0.00     0.053 A 
HETATM   17  C   UNL     1      41.926 -10.907  10.172  1.00  0.00     0.069 A 
HETATM   18  C   UNL     1      40.673 -10.692  10.756  1.00  0.00     0.037 A 
HETATM   19  C   UNL     1      39.635 -10.105  10.032  1.00  0.00     0.004 A 
HETATM   20  C   UNL     1      39.857  -9.708   8.717  1.00  0.00     0.017 A 
BRANCH  17  21
HETATM   21  O   UNL     1      42.839 -11.472  11.015  1.00  0.00    -0.351 OA
BRANCH  21  22
HETATM   22  C   UNL     1      42.746 -11.162  12.404  1.00  0.00     0.175 C 
BRANCH  22  23
HETATM   23  C   UNL     1      43.626  -9.944  12.683  1.00  0.00     0.026 C 
BRANCH  23  24
HETATM   24  C   UNL     1      43.253  -9.238  13.989  1.00  0.00    -0.002 C 
HETATM   25  C   UNL     1      42.258 -10.056  14.797  1.00  0.00     0.005 C 
ENDBRANCH  23  24
ENDBRANCH  22  23
ENDBRANCH  21  22
ENDBRANCH  17  21
ENDBRANCH  12  15
ENDBRANCH   9  11
ENDBRANCH   7   9
ENDBRANCH   1   7
BRANCH   3  26
HETATM   26  C   UNL     1      41.913 -16.146   2.784  1.00  0.00     0.183 A 
HETATM   27  O   UNL     1      42.595 -16.483   3.924  1.00  0.00    -0.289 OA
HETATM   28  C   UNL     1      43.147 -17.690   3.631  1.00  0.00     0.106 A 
HETATM   29  C   UNL     1      42.784 -18.021   2.337  1.00  0.00     0.094 A 
HETATM   30  C   UNL     1      43.917 -18.480   4.468  1.00  0.00     0.040 A 
HETATM   31  N   UNL     1      42.049 -16.997   1.780  1.00  0.00    -0.221 NA
HETATM   32  C   UNL     1      43.175 -19.270   1.832  1.00  0.00     0.041 A 
HETATM   33  C   UNL     1      43.911 -20.147   2.663  1.00  0.00    -0.056 A 
HETATM   34  C   UNL     1      44.297 -19.725   3.950  1.00  0.00     0.010 A 
BRANCH  33  35
HETATM   35  C   UNL     1      44.274 -21.510   2.109  1.00  0.00     0.034 C 
HETATM   36  C   UNL     1      44.587 -22.594   3.136  1.00  0.00     0.010 C 
ENDBRANCH  33  35
ENDBRANCH   3  26
BRANCH   4  37
HETATM   37  O   UNL     1      39.108 -15.950   2.005  1.00  0.00    -0.360 OA
HETATM   38  H   UNL     1      39.263 -16.044   1.043  1.00  0.00     0.217 HD
ENDBRANCH   4  37
TORSDOF 11
ENDMDL
MODEL 10
REMARK VINA RESULT:      -8.3      3.278      4.847
REMARK  11 active torsions:
REMARK  status: ('A' for Active; 'I' for Inactive)
REMARK    1  A    between atoms: C_2  and  C_3 
REMARK    2  A    between atoms: C_3  and  C_4 
REMARK    3  A    between atoms: C_4  and  O_5 
REMARK    4  A    between atoms: O_5  and  C_6 
REMARK    5  A    between atoms: C_8  and  C_9 
REMARK       I    between atoms: C_9  and  N_10 
REMARK    6  A    between atoms: N_10  and  C_11 
REMARK    7  A    between atoms: C_11  and  N_12 
REMARK    8  A    between atoms: N_12  and  C_13 
REMARK    9  A    between atoms: C_15  and  C_16 
REMARK   10  A    between atoms: C_23  and  C_24 
REMARK   11  A    between atoms: C_27  and  O_28 
ROOT
HETATM    1  C   UNL     1      41.312 -12.788   1.283  1.00  0.00     0.035 A 
HETATM    2  C   UNL     1      41.942 -13.972   1.673  1.00  0.00     0.048 A 
HETATM    3  C   UNL     1      41.879 -15.134   0.889  1.00  0.00     0.052 A 
HETATM    4  C   UNL     1      41.168 -15.085  -0.313  1.00  0.00     0.080 A 
HETATM    5  C   UNL     1      40.607 -13.886  -0.756  1.00  0.00     0.040 A 
HETATM    6  C   UNL     1      40.696 -12.732   0.033  1.00  0.00     0.032 A 
ENDROOT
BRANCH   1   7
HETATM    7  N   UNL     1      41.324 -11.637   2.099  1.00  0.00    -0.333 N 
HETATM    8  H   UNL     1      41.116 -10.749   1.644  1.00  0.00     0.168 HD
BRANCH   7   9
HETATM    9  C   UNL     1      41.356 -11.578   3.474  1.00  0.00     0.179 C 
HETATM   10  S   UNL     1      40.808 -10.356   4.482  1.00  0.00    -0.040 SA
BRANCH   9  11
HETATM   11  N   UNL     1      41.916 -12.663   4.109  1.00  0.00    -0.299 N 
HETATM   12  C   UNL     1      41.315 -13.625   4.906  1.00  0.00     0.257 C 
HETATM   13  O   UNL     1      40.138 -13.950   4.833  1.00  0.00    -0.267 OA
HETATM   14  H   UNL     1      42.928 -12.652   4.070  1.00  0.00     0.171 HD
BRANCH  12  15
HETATM   15  C   UNL     1      42.271 -14.343   5.791  1.00  0.00     0.035 A 
HETATM   16  C   UNL     1      43.402 -13.673   6.271  1.00  0.00     0.053 A 
HETATM   17  C   UNL     1      44.252 -14.322   7.167  1.00  0.00     0.069 A 
HETATM   18  C   UNL     1      43.981 -15.640   7.550  1.00  0.00     0.037 A 
HETATM   19  C   UNL     1      42.874 -16.321   7.044  1.00  0.00     0.004 A 
HETATM   20  C   UNL     1      42.016 -15.672   6.162  1.00  0.00     0.017 A 
BRANCH  17  21
HETATM   21  O   UNL     1      45.359 -13.790   7.763  1.00  0.00    -0.351 OA
BRANCH  21  22
HETATM   22  C   UNL     1      45.269 -12.460   8.271  1.00  0.00     0.175 C 
BRANCH  22  23
HETATM   23  C   UNL     1      44.590 -12.514   9.639  1.00  0.00     0.026 C 
BRANCH  23  24
HETATM   24  C   UNL     1      45.233 -11.558  10.649  1.00  0.00    -0.002 C 
HETATM   25  C   UNL     1      44.217 -10.571  11.203  1.00  0.00     0.005 C 
ENDBRANCH  23  24
ENDBRANCH  22  23
ENDBRANCH  21  22
ENDBRANCH  17  21
ENDBRANCH  12  15
ENDBRANCH   9  11
ENDBRANCH   7   9
ENDBRANCH   1   7
BRANCH   3  26
HETATM   26  C   UNL     1      42.527 -16.349   1.361  1.00  0.00     0.183 A 
HETATM   27  O   UNL     1      42.932 -16.340   2.670  1.00  0.00    -0.289 OA
HETATM   28  C   UNL     1      43.409 -17.596   2.874  1.00  0.00     0.106 A 
HETATM   29  C   UNL     1      43.281 -18.297   1.688  1.00  0.00     0.094 A 
HETATM   30  C   UNL     1      43.915 -18.114   4.055  1.00  0.00     0.040 A 
HETATM   31  N   UNL     1      42.776 -17.471   0.708  1.00  0.00    -0.221 NA
HETATM   32  C   UNL     1      43.639 -19.653   1.672  1.00  0.00     0.041 A 
HETATM   33  C   UNL     1      44.105 -20.255   2.864  1.00  0.00    -0.056 A 
HETATM   34  C   UNL     1      44.266 -19.470   4.022  1.00  0.00     0.010 A 
BRANCH  33  35
HETATM   35  C   UNL     1      44.434 -21.734   2.830  1.00  0.00     0.034 C 
HETATM   36  C   UNL     1      44.654 -22.408   4.181  1.00  0.00     0.010 C 
ENDBRANCH  33  35
ENDBRANCH   3  26
BRANCH   4  37
HETATM   37  O   UNL     1      40.993 -16.182  -1.115  1.00  0.00    -0.360 OA
HETATM   38  H   UNL     1      41.334 -15.969  -2.008  1.00  0.00     0.217 HD
ENDBRANCH   4  37
TORSDOF 11
ENDMDL
