MODEL 1
REMARK VINA RESULT:      -8.3      0.000      0.000
REMARK  6 active torsions:
REMARK  status: ('A' for Active; 'I' for Inactive)
REMARK    1  A    between atoms: C_9  and  C_10 
REMARK       I    between atoms: C_10  and  N_11 
REMARK    2  A    between atoms: N_11  and  C_12 
REMARK    3  A    between atoms: C_12  and  C_13 
REMARK    4  A    between atoms: C_13  and  O_14 
REMARK    5  A    between atoms: C_13  and  C_15 
REMARK    6  A    between atoms: C_18  and  O_19 
ROOT
HETATM    1  C   UNL     1      43.247 -16.796   6.499  1.00  0.00     0.258 C 
HETATM    2  N   UNL     1      44.178 -15.797   6.339  1.00  0.00    -0.350 N 
HETATM    3  O   UNL     1      42.163 -16.612   7.044  1.00  0.00    -0.267 OA
HETATM    4  H   UNL     1      45.009 -16.029   5.796  1.00  0.00     0.163 HD
ENDROOT
BRANCH   2   5
HETATM    5  C   UNL     1      43.961 -14.400   6.708  1.00  0.00     0.114 C 
HETATM    6  C   UNL     1      43.505 -13.583   5.494  1.00  0.00     0.035 C 
BRANCH   5   7
HETATM    7  C   UNL     1      45.177 -13.747   7.432  1.00  0.00     0.173 C 
BRANCH   7   8
HETATM    8  O   UNL     1      46.086 -13.179   6.480  1.00  0.00    -0.389 OA
HETATM    9  H   UNL     1      46.840 -13.790   6.425  1.00  0.00     0.210 HD
ENDBRANCH   7   8
BRANCH   7  10
HETATM   10  C   UNL     1      44.747 -12.650   8.392  1.00  0.00    -0.028 A 
HETATM   11  C   UNL     1      45.563 -12.304   9.478  1.00  0.00     0.012 A 
HETATM   12  C   UNL     1      45.170 -11.306  10.373  1.00  0.00     0.037 A 
HETATM   13  C   UNL     1      43.967 -10.623  10.195  1.00  0.00     0.068 A 
HETATM   14  C   UNL     1      43.139 -10.970   9.129  1.00  0.00     0.037 A 
HETATM   15  C   UNL     1      43.525 -11.978   8.236  1.00  0.00     0.012 A 
BRANCH  13  16
HETATM   16  O   UNL     1      43.707  -9.658  11.129  1.00  0.00    -0.356 OA
HETATM   17  C   UNL     1      43.657 -10.090  12.484  1.00  0.00     0.210 C 
ENDBRANCH  13  16
ENDBRANCH   7  10
ENDBRANCH   5   7
ENDBRANCH   2   5
BRANCH   1  18
HETATM   18  C   UNL     1      43.627 -18.086   5.946  1.00  0.00     0.105 A 
HETATM   19  C   UNL     1      43.792 -18.418   4.612  1.00  0.00     0.169 A 
HETATM   20  N   UNL     1      43.662 -17.670   3.469  1.00  0.00    -0.233 NA
HETATM   21  N   UNL     1      44.137 -19.773   4.579  1.00  0.00    -0.219 N 
HETATM   22  C   UNL     1      43.884 -18.286   2.343  1.00  0.00     0.035 A 
HETATM   23  C   UNL     1      43.748 -17.509   1.059  1.00  0.00     0.070 C 
HETATM   24  C   UNL     1      44.249 -19.733   2.214  1.00  0.00     0.053 A 
HETATM   25  C   UNL     1      44.364 -20.426   3.359  1.00  0.00     0.036 A 
HETATM   26  C   UNL     1      44.719 -21.881   3.394  1.00  0.00     0.070 C 
HETATM   27  N   UNL     1      44.206 -20.299   5.826  1.00  0.00    -0.170 NA
HETATM   28  C   UNL     1      43.898 -19.289   6.647  1.00  0.00     0.071 A 
HETATM   29  C   UNL     1      43.868 -19.513   8.116  1.00  0.00     0.073 C 
ENDBRANCH   1  18
TORSDOF 6
ENDMDL
MODEL 2
REMARK VINA RESULT:      -8.3      4.001      8.563
REMARK  6 active torsions:
REMARK  status: ('A' for Active; 'I' for Inactive)
REMARK    1  A    between atoms: C_9  and  C_10 
REMARK       I    between atoms: C_10  and  N_11 
REMARK    2  A    between atoms: N_11  and  C_12 
REMARK    3  A    between atoms: C_12  and  C_13 
REMARK    4  A    between atoms: C_13  and  O_14 
REMARK    5  A    between atoms: C_13  and  C_15 
REMARK    6  A    between atoms: C_18  and  O_19 
ROOT
HETATM    1  C   UNL     1      41.414 -16.877   4.731  1.00  0.00     0.258 C 
HETATM    2  N   UNL     1      42.533 -16.522   5.448  1.00  0.00    -0.350 N 
HETATM    3  O   UNL     1      40.932 -18.005   4.769  1.00  0.00    -0.267 OA
HETATM    4  H   UNL     1      42.802 -15.539   5.419  1.00  0.00     0.163 HD
ENDROOT
BRANCH   2   5
HETATM    5  C   UNL     1      43.219 -17.399   6.393  1.00  0.00     0.114 C 
HETATM    6  C   UNL     1      43.242 -16.777   7.793  1.00  0.00     0.035 C 
BRANCH   5   7
HETATM    7  C   UNL     1      44.639 -17.838   5.922  1.00  0.00     0.173 C 
BRANCH   7   8
HETATM    8  O   UNL     1      45.481 -18.116   7.049  1.00  0.00    -0.389 OA
HETATM    9  H   UNL     1      45.826 -19.015   6.917  1.00  0.00     0.210 HD
ENDBRANCH   7   8
BRANCH   7  10
HETATM   10  C   UNL     1      44.591 -19.079   5.047  1.00  0.00    -0.028 A 
HETATM   11  C   UNL     1      44.350 -18.963   3.671  1.00  0.00     0.012 A 
HETATM   12  C   UNL     1      44.291 -20.099   2.860  1.00  0.00     0.037 A 
HETATM   13  C   UNL     1      44.488 -21.370   3.401  1.00  0.00     0.068 A 
HETATM   14  C   UNL     1      44.712 -21.501   4.771  1.00  0.00     0.037 A 
HETATM   15  C   UNL     1      44.760 -20.363   5.587  1.00  0.00     0.012 A 
BRANCH  13  16
HETATM   16  O   UNL     1      44.423 -22.397   2.499  1.00  0.00    -0.356 OA
HETATM   17  C   UNL     1      43.951 -22.064   1.199  1.00  0.00     0.210 C 
ENDBRANCH  13  16
ENDBRANCH   7  10
ENDBRANCH   5   7
ENDBRANCH   2   5
BRANCH   1  18
HETATM   18  C   UNL     1      40.820 -15.806   3.948  1.00  0.00     0.105 A 
HETATM   19  C   UNL     1      40.298 -14.609   4.409  1.00  0.00     0.169 A 
HETATM   20  N   UNL     1      40.196 -14.094   5.677  1.00  0.00    -0.233 NA
HETATM   21  N   UNL     1      39.826 -13.922   3.286  1.00  0.00    -0.219 N 
HETATM   22  C   UNL     1      39.639 -12.922   5.783  1.00  0.00     0.035 A 
HETATM   23  C   UNL     1      39.497 -12.316   7.156  1.00  0.00     0.070 C 
HETATM   24  C   UNL     1      39.100 -12.120   4.640  1.00  0.00     0.053 A 
HETATM   25  C   UNL     1      39.220 -12.664   3.417  1.00  0.00     0.036 A 
HETATM   26  C   UNL     1      38.727 -11.987   2.176  1.00  0.00     0.070 C 
HETATM   27  N   UNL     1      40.038 -14.625   2.147  1.00  0.00    -0.170 NA
HETATM   28  C   UNL     1      40.632 -15.756   2.542  1.00  0.00     0.071 A 
HETATM   29  C   UNL     1      41.007 -16.784   1.537  1.00  0.00     0.073 C 
ENDBRANCH   1  18
TORSDOF 6
ENDMDL
MODEL 3
REMARK VINA RESULT:      -8.2      5.878      9.653
REMARK  6 active torsions:
REMARK  status: ('A' for Active; 'I' for Inactive)
REMARK    1  A    between atoms: C_9  and  C_10 
REMARK       I    between atoms: C_10  and  N_11 
REMARK    2  A    between atoms: N_11  and  C_12 
REMARK    3  A    between atoms: C_12  and  C_13 
REMARK    4  A    between atoms: C_13  and  O_14 
REMARK    5  A    between atoms: C_13  and  C_15 
REMARK    6  A    between atoms: C_18  and  O_19 
ROOT
HETATM    1  C   UNL     1      41.556 -14.715  -0.171  1.00  0.00     0.258 C 
HETATM    2  N   UNL     1      41.943 -16.034  -0.226  1.00  0.00    -0.350 N 
HETATM    3  O   UNL     1      41.191 -14.173   0.868  1.00  0.00    -0.267 OA
HETATM    4  H   UNL     1      42.314 -16.365  -1.115  1.00  0.00     0.163 HD
ENDROOT
BRANCH   2   5
HETATM    5  C   UNL     1      42.052 -16.910   0.938  1.00  0.00     0.114 C 
HETATM    6  C   UNL     1      40.725 -16.968   1.701  1.00  0.00     0.035 C 
BRANCH   5   7
HETATM    7  C   UNL     1      43.252 -16.564   1.872  1.00  0.00     0.173 C 
BRANCH   7   8
HETATM    8  O   UNL     1      42.915 -15.475   2.742  1.00  0.00    -0.389 OA
HETATM    9  H   UNL     1      41.995 -15.237   2.538  1.00  0.00     0.210 HD
ENDBRANCH   7   8
BRANCH   7  10
HETATM   10  C   UNL     1      43.667 -17.747   2.729  1.00  0.00    -0.028 A 
HETATM   11  C   UNL     1      43.682 -17.634   4.126  1.00  0.00     0.012 A 
HETATM   12  C   UNL     1      44.076 -18.713   4.923  1.00  0.00     0.037 A 
HETATM   13  C   UNL     1      44.444 -19.928   4.345  1.00  0.00     0.068 A 
HETATM   14  C   UNL     1      44.448 -20.047   2.956  1.00  0.00     0.037 A 
HETATM   15  C   UNL     1      44.065 -18.964   2.155  1.00  0.00     0.012 A 
BRANCH  13  16
HETATM   16  O   UNL     1      44.789 -20.908   5.234  1.00  0.00    -0.356 OA
HETATM   17  C   UNL     1      44.870 -22.230   4.714  1.00  0.00     0.210 C 
ENDBRANCH  13  16
ENDBRANCH   7  10
ENDBRANCH   5   7
ENDBRANCH   2   5
BRANCH   1  18
HETATM   18  C   UNL     1      41.641 -13.996  -1.431  1.00  0.00     0.105 A 
HETATM   19  C   UNL     1      42.115 -12.713  -1.642  1.00  0.00     0.169 A 
HETATM   20  N   UNL     1      42.628 -11.782  -0.774  1.00  0.00    -0.233 NA
HETATM   21  N   UNL     1      41.977 -12.457  -3.011  1.00  0.00    -0.219 N 
HETATM   22  C   UNL     1      42.988 -10.642  -1.291  1.00  0.00     0.035 A 
HETATM   23  C   UNL     1      43.551  -9.584  -0.377  1.00  0.00     0.070 C 
HETATM   24  C   UNL     1      42.869 -10.280  -2.739  1.00  0.00     0.053 A 
HETATM   25  C   UNL     1      42.360 -11.221  -3.552  1.00  0.00     0.036 A 
HETATM   26  C   UNL     1      42.176 -11.009  -5.022  1.00  0.00     0.070 C 
HETATM   27  N   UNL     1      41.451 -13.521  -3.664  1.00  0.00    -0.170 NA
HETATM   28  C   UNL     1      41.247 -14.444  -2.719  1.00  0.00     0.071 A 
HETATM   29  C   UNL     1      40.662 -15.760  -3.085  1.00  0.00     0.073 C 
ENDBRANCH   1  18
TORSDOF 6
ENDMDL
MODEL 4
REMARK VINA RESULT:      -8.2      2.429      5.281
REMARK  6 active torsions:
REMARK  status: ('A' for Active; 'I' for Inactive)
REMARK    1  A    between atoms: C_9  and  C_10 
REMARK       I    between atoms: C_10  and  N_11 
REMARK    2  A    between atoms: N_11  and  C_12 
REMARK    3  A    between atoms: C_12  and  C_13 
REMARK    4  A    between atoms: C_13  and  O_14 
REMARK    5  A    between atoms: C_13  and  C_15 
REMARK    6  A    between atoms: C_18  and  O_19 
ROOT
HETATM    1  C   UNL     1      43.441 -16.729   6.343  1.00  0.00     0.258 C 
HETATM    2  N   UNL     1      44.107 -15.685   5.745  1.00  0.00    -0.350 N 
HETATM    3  O   UNL     1      42.627 -16.566   7.248  1.00  0.00    -0.267 OA
HETATM    4  H   UNL     1      44.694 -15.916   4.944  1.00  0.00     0.163 HD
ENDROOT
BRANCH   2   5
HETATM    5  C   UNL     1      43.868 -14.275   6.042  1.00  0.00     0.114 C 
HETATM    6  C   UNL     1      44.318 -13.936   7.467  1.00  0.00     0.035 C 
BRANCH   5   7
HETATM    7  C   UNL     1      42.403 -13.817   5.766  1.00  0.00     0.173 C 
BRANCH   7   8
HETATM    8  O   UNL     1      42.283 -12.396   5.914  1.00  0.00    -0.389 OA
HETATM    9  H   UNL     1      42.283 -12.221   6.870  1.00  0.00     0.210 HD
ENDBRANCH   7   8
BRANCH   7  10
HETATM   10  C   UNL     1      41.944 -14.190   4.366  1.00  0.00    -0.028 A 
HETATM   11  C   UNL     1      40.895 -15.103   4.188  1.00  0.00     0.012 A 
HETATM   12  C   UNL     1      40.475 -15.462   2.905  1.00  0.00     0.037 A 
HETATM   13  C   UNL     1      41.079 -14.907   1.776  1.00  0.00     0.068 A 
HETATM   14  C   UNL     1      42.134 -14.011   1.940  1.00  0.00     0.037 A 
HETATM   15  C   UNL     1      42.565 -13.658   3.225  1.00  0.00     0.012 A 
BRANCH  13  16
HETATM   16  O   UNL     1      40.564 -15.327   0.581  1.00  0.00    -0.356 OA
HETATM   17  C   UNL     1      41.317 -14.996  -0.581  1.00  0.00     0.210 C 
ENDBRANCH  13  16
ENDBRANCH   7  10
ENDBRANCH   5   7
ENDBRANCH   2   5
BRANCH   1  18
HETATM   18  C   UNL     1      43.746 -18.044   5.803  1.00  0.00     0.105 A 
HETATM   19  C   UNL     1      43.835 -18.411   4.472  1.00  0.00     0.169 A 
HETATM   20  N   UNL     1      43.679 -17.684   3.319  1.00  0.00    -0.233 NA
HETATM   21  N   UNL     1      44.127 -19.779   4.455  1.00  0.00    -0.219 N 
HETATM   22  C   UNL     1      43.824 -18.333   2.199  1.00  0.00     0.035 A 
HETATM   23  C   UNL     1      43.656 -17.580   0.904  1.00  0.00     0.070 C 
HETATM   24  C   UNL     1      44.129 -19.795   2.087  1.00  0.00     0.053 A 
HETATM   25  C   UNL     1      44.272 -20.467   3.242  1.00  0.00     0.036 A 
HETATM   26  C   UNL     1      44.574 -21.933   3.295  1.00  0.00     0.070 C 
HETATM   27  N   UNL     1      44.236 -20.279   5.710  1.00  0.00    -0.170 NA
HETATM   28  C   UNL     1      44.005 -19.241   6.519  1.00  0.00     0.071 A 
HETATM   29  C   UNL     1      44.036 -19.431   7.993  1.00  0.00     0.073 C 
ENDBRANCH   1  18
TORSDOF 6
ENDMDL
MODEL 5
REMARK VINA RESULT:      -8.1      3.568      6.114
REMARK  6 active torsions:
REMARK  status: ('A' for Active; 'I' for Inactive)
REMARK    1  A    between atoms: C_9  and  C_10 
REMARK       I    between atoms: C_10  and  N_11 
REMARK    2  A    between atoms: N_11  and  C_12 
REMARK    3  A    between atoms: C_12  and  C_13 
REMARK    4  A    between atoms: C_13  and  O_14 
REMARK    5  A    between atoms: C_13  and  C_15 
REMARK    6  A    between atoms: C_18  and  O_19 
ROOT
HETATM    1  C   UNL     1      43.011 -15.249   5.758  1.00  0.00     0.258 C 
HETATM    2  N   UNL     1      41.696 -15.022   5.426  1.00  0.00    -0.350 N 
HETATM    3  O   UNL     1      43.779 -14.348   6.082  1.00  0.00    -0.267 OA
HETATM    4  H   UNL     1      41.118 -15.844   5.259  1.00  0.00     0.163 HD
ENDROOT
BRANCH   2   5
HETATM    5  C   UNL     1      41.040 -13.719   5.503  1.00  0.00     0.114 C 
HETATM    6  C   UNL     1      39.563 -13.877   5.883  1.00  0.00     0.035 C 
BRANCH   5   7
HETATM    7  C   UNL     1      41.227 -12.847   4.224  1.00  0.00     0.173 C 
BRANCH   7   8
HETATM    8  O   UNL     1      42.488 -12.167   4.258  1.00  0.00    -0.389 OA
HETATM    9  H   UNL     1      42.291 -11.221   4.152  1.00  0.00     0.210 HD
ENDBRANCH   7   8
BRANCH   7  10
HETATM   10  C   UNL     1      41.169 -13.679   2.953  1.00  0.00    -0.028 A 
HETATM   11  C   UNL     1      42.329 -13.888   2.195  1.00  0.00     0.012 A 
HETATM   12  C   UNL     1      42.284 -14.640   1.018  1.00  0.00     0.037 A 
HETATM   13  C   UNL     1      41.087 -15.211   0.584  1.00  0.00     0.068 A 
HETATM   14  C   UNL     1      39.924 -14.997   1.321  1.00  0.00     0.037 A 
HETATM   15  C   UNL     1      39.965 -14.234   2.495  1.00  0.00     0.012 A 
BRANCH  13  16
HETATM   16  O   UNL     1      41.180 -15.938  -0.571  1.00  0.00    -0.356 OA
HETATM   17  C   UNL     1      40.847 -15.255  -1.774  1.00  0.00     0.210 C 
ENDBRANCH  13  16
ENDBRANCH   7  10
ENDBRANCH   5   7
ENDBRANCH   2   5
BRANCH   1  18
HETATM   18  C   UNL     1      43.421 -16.644   5.731  1.00  0.00     0.105 A 
HETATM   19  C   UNL     1      43.663 -17.433   4.620  1.00  0.00     0.169 A 
HETATM   20  N   UNL     1      43.603 -17.152   3.279  1.00  0.00    -0.233 NA
HETATM   21  N   UNL     1      44.007 -18.701   5.100  1.00  0.00    -0.219 N 
HETATM   22  C   UNL     1      43.889 -18.130   2.467  1.00  0.00     0.035 A 
HETATM   23  C   UNL     1      43.830 -17.873   0.983  1.00  0.00     0.070 C 
HETATM   24  C   UNL     1      44.259 -19.517   2.891  1.00  0.00     0.053 A 
HETATM   25  C   UNL     1      44.304 -19.747   4.215  1.00  0.00     0.036 A 
HETATM   26  C   UNL     1      44.654 -21.083   4.794  1.00  0.00     0.070 C 
HETATM   27  N   UNL     1      44.002 -18.738   6.455  1.00  0.00    -0.170 NA
HETATM   28  C   UNL     1      43.648 -17.506   6.835  1.00  0.00     0.071 A 
HETATM   29  C   UNL     1      43.531 -17.184   8.281  1.00  0.00     0.073 C 
ENDBRANCH   1  18
TORSDOF 6
ENDMDL
MODEL 6
REMARK VINA RESULT:      -8.0      2.028      3.969
REMARK  6 active torsions:
REMARK  status: ('A' for Active; 'I' for Inactive)
REMARK    1  A    between atoms: C_9  and  C_10 
REMARK       I    between atoms: C_10  and  N_11 
REMARK    2  A    between atoms: N_11  and  C_12 
REMARK    3  A    between atoms: C_12  and  C_13 
REMARK    4  A    between atoms: C_13  and  O_14 
REMARK    5  A    between atoms: C_13  and  C_15 
REMARK    6  A    between atoms: C_18  and  O_19 
ROOT
HETATM    1  C   UNL     1      43.490 -13.484   6.677  1.00  0.00     0.258 C 
HETATM    2  N   UNL     1      44.535 -13.475   7.572  1.00  0.00    -0.350 N 
HETATM    3  O   UNL     1      42.677 -12.568   6.597  1.00  0.00    -0.267 OA
HETATM    4  H   UNL     1      45.206 -14.238   7.498  1.00  0.00     0.163 HD
ENDROOT
BRANCH   2   5
HETATM    5  C   UNL     1      44.852 -12.357   8.457  1.00  0.00     0.114 C 
HETATM    6  C   UNL     1      46.350 -12.038   8.412  1.00  0.00     0.035 C 
BRANCH   5   7
HETATM    7  C   UNL     1      44.336 -12.548   9.916  1.00  0.00     0.173 C 
BRANCH   7   8
HETATM    8  O   UNL     1      45.425 -12.842  10.801  1.00  0.00    -0.389 OA
HETATM    9  H   UNL     1      45.076 -12.747  11.704  1.00  0.00     0.210 HD
ENDBRANCH   7   8
BRANCH   7  10
HETATM   10  C   UNL     1      43.623 -11.311  10.434  1.00  0.00    -0.028 A 
HETATM   11  C   UNL     1      43.995 -10.745  11.662  1.00  0.00     0.012 A 
HETATM   12  C   UNL     1      43.335  -9.616  12.154  1.00  0.00     0.037 A 
HETATM   13  C   UNL     1      42.306  -9.019  11.425  1.00  0.00     0.068 A 
HETATM   14  C   UNL     1      41.916  -9.582  10.211  1.00  0.00     0.037 A 
HETATM   15  C   UNL     1      42.568 -10.721   9.722  1.00  0.00     0.012 A 
BRANCH  13  16
HETATM   16  O   UNL     1      41.756  -7.910  12.006  1.00  0.00    -0.356 OA
HETATM   17  C   UNL     1      41.729  -7.892  13.429  1.00  0.00     0.210 C 
ENDBRANCH  13  16
ENDBRANCH   7  10
ENDBRANCH   5   7
ENDBRANCH   2   5
BRANCH   1  18
HETATM   18  C   UNL     1      43.437 -14.646   5.805  1.00  0.00     0.105 A 
HETATM   19  C   UNL     1      43.596 -15.975   6.156  1.00  0.00     0.169 A 
HETATM   20  N   UNL     1      43.831 -16.570   7.370  1.00  0.00    -0.233 NA
HETATM   21  N   UNL     1      43.482 -16.715   4.974  1.00  0.00    -0.219 N 
HETATM   22  C   UNL     1      43.939 -17.868   7.370  1.00  0.00     0.035 A 
HETATM   23  C   UNL     1      44.205 -18.567   8.678  1.00  0.00     0.070 C 
HETATM   24  C   UNL     1      43.840 -18.737   6.155  1.00  0.00     0.053 A 
HETATM   25  C   UNL     1      43.610 -18.112   4.988  1.00  0.00     0.036 A 
HETATM   26  C   UNL     1      43.488 -18.843   3.687  1.00  0.00     0.070 C 
HETATM   27  N   UNL     1      43.249 -15.914   3.907  1.00  0.00    -0.170 NA
HETATM   28  C   UNL     1      43.224 -14.673   4.402  1.00  0.00     0.071 A 
HETATM   29  C   UNL     1      42.995 -13.519   3.494  1.00  0.00     0.073 C 
ENDBRANCH   1  18
TORSDOF 6
ENDMDL
MODEL 7
REMARK VINA RESULT:      -7.9      4.920      8.189
REMARK  6 active torsions:
REMARK  status: ('A' for Active; 'I' for Inactive)
REMARK    1  A    between atoms: C_9  and  C_10 
REMARK       I    between atoms: C_10  and  N_11 
REMARK    2  A    between atoms: N_11  and  C_12 
REMARK    3  A    between atoms: C_12  and  C_13 
REMARK    4  A    between atoms: C_13  and  O_14 
REMARK    5  A    between atoms: C_13  and  C_15 
REMARK    6  A    between atoms: C_18  and  O_19 
ROOT
HETATM    1  C   UNL     1      42.646 -14.542   2.788  1.00  0.00     0.258 C 
HETATM    2  N   UNL     1      41.612 -15.055   2.041  1.00  0.00    -0.350 N 
HETATM    3  O   UNL     1      43.156 -13.450   2.553  1.00  0.00    -0.267 OA
HETATM    4  H   UNL     1      41.198 -15.926   2.370  1.00  0.00     0.163 HD
ENDROOT
BRANCH   2   5
HETATM    5  C   UNL     1      40.945 -14.340   0.955  1.00  0.00     0.114 C 
HETATM    6  C   UNL     1      39.423 -14.474   1.071  1.00  0.00     0.035 C 
BRANCH   5   7
HETATM    7  C   UNL     1      41.462 -14.732  -0.463  1.00  0.00     0.173 C 
BRANCH   7   8
HETATM    8  O   UNL     1      40.465 -15.477  -1.175  1.00  0.00    -0.389 OA
HETATM    9  H   UNL     1      40.865 -15.723  -2.026  1.00  0.00     0.210 HD
ENDBRANCH   7   8
BRANCH   7  10
HETATM   10  C   UNL     1      41.828 -13.513  -1.293  1.00  0.00    -0.028 A 
HETATM   11  C   UNL     1      42.178 -12.311  -0.663  1.00  0.00     0.012 A 
HETATM   12  C   UNL     1      42.503 -11.180  -1.418  1.00  0.00     0.037 A 
HETATM   13  C   UNL     1      42.503 -11.232  -2.812  1.00  0.00     0.068 A 
HETATM   14  C   UNL     1      42.141 -12.417  -3.450  1.00  0.00     0.037 A 
HETATM   15  C   UNL     1      41.803 -13.547  -2.695  1.00  0.00     0.012 A 
BRANCH  13  16
HETATM   16  O   UNL     1      42.857 -10.065  -3.432  1.00  0.00    -0.356 OA
HETATM   17  C   UNL     1      42.483  -9.939  -4.799  1.00  0.00     0.210 C 
ENDBRANCH  13  16
ENDBRANCH   7  10
ENDBRANCH   5   7
ENDBRANCH   2   5
BRANCH   1  18
HETATM   18  C   UNL     1      43.073 -15.373   3.901  1.00  0.00     0.105 A 
HETATM   19  C   UNL     1      43.372 -16.725   3.882  1.00  0.00     0.169 A 
HETATM   20  N   UNL     1      43.366 -17.639   2.859  1.00  0.00    -0.233 NA
HETATM   21  N   UNL     1      43.711 -17.076   5.193  1.00  0.00    -0.219 N 
HETATM   22  C   UNL     1      43.698 -18.860   3.170  1.00  0.00     0.035 A 
HETATM   23  C   UNL     1      43.699 -19.903   2.082  1.00  0.00     0.070 C 
HETATM   24  C   UNL     1      44.066 -19.326   4.544  1.00  0.00     0.053 A 
HETATM   25  C   UNL     1      44.058 -18.396   5.514  1.00  0.00     0.036 A 
HETATM   26  C   UNL     1      44.399 -18.708   6.938  1.00  0.00     0.070 C 
HETATM   27  N   UNL     1      43.648 -16.009   6.025  1.00  0.00    -0.170 NA
HETATM   28  C   UNL     1      43.263 -14.988   5.253  1.00  0.00     0.071 A 
HETATM   29  C   UNL     1      43.081 -13.638   5.849  1.00  0.00     0.073 C 
ENDBRANCH   1  18
TORSDOF 6
ENDMDL
MODEL 8
REMARK VINA RESULT:      -7.8      3.996      7.686
REMARK  6 active torsions:
REMARK  status: ('A' for Active; 'I' for Inactive)
REMARK    1  A    between atoms: C_9  and  C_10 
REMARK       I    between atoms: C_10  and  N_11 
REMARK    2  A    between atoms: N_11  and  C_12 
REMARK    3  A    between atoms: C_12  and  C_13 
REMARK    4  A    between atoms: C_13  and  O_14 
REMARK    5  A    between atoms: C_13  and  C_15 
REMARK    6  A    between atoms: C_18  and  O_19 
ROOT
HETATM    1  C   UNL     1      41.268 -14.637   3.121  1.00  0.00     0.258 C 
HETATM    2  N   UNL     1      42.458 -14.785   3.795  1.00  0.00    -0.350 N 
HETATM    3  O   UNL     1      40.213 -14.370   3.687  1.00  0.00    -0.267 OA
HETATM    4  H   UNL     1      43.292 -14.917   3.226  1.00  0.00     0.163 HD
ENDROOT
BRANCH   2   5
HETATM    5  C   UNL     1      42.627 -14.559   5.228  1.00  0.00     0.114 C 
HETATM    6  C   UNL     1      44.011 -13.974   5.526  1.00  0.00     0.035 C 
BRANCH   5   7
HETATM    7  C   UNL     1      42.320 -15.815   6.101  1.00  0.00     0.173 C 
BRANCH   7   8
HETATM    8  O   UNL     1      40.921 -16.128   6.059  1.00  0.00    -0.389 OA
HETATM    9  H   UNL     1      40.489 -15.387   5.603  1.00  0.00     0.210 HD
ENDBRANCH   7   8
BRANCH   7  10
HETATM   10  C   UNL     1      43.095 -17.036   5.635  1.00  0.00    -0.028 A 
HETATM   11  C   UNL     1      42.579 -17.852   4.619  1.00  0.00     0.012 A 
HETATM   12  C   UNL     1      43.278 -18.985   4.193  1.00  0.00     0.037 A 
HETATM   13  C   UNL     1      44.510 -19.316   4.758  1.00  0.00     0.068 A 
HETATM   14  C   UNL     1      45.025 -18.521   5.780  1.00  0.00     0.037 A 
HETATM   15  C   UNL     1      44.321 -17.391   6.216  1.00  0.00     0.012 A 
BRANCH  13  16
HETATM   16  O   UNL     1      45.099 -20.436   4.240  1.00  0.00    -0.356 OA
HETATM   17  C   UNL     1      44.807 -20.731   2.879  1.00  0.00     0.210 C 
ENDBRANCH  13  16
ENDBRANCH   7  10
ENDBRANCH   5   7
ENDBRANCH   2   5
BRANCH   1  18
HETATM   18  C   UNL     1      41.356 -14.786   1.678  1.00  0.00     0.105 A 
HETATM   19  C   UNL     1      41.646 -13.808   0.742  1.00  0.00     0.169 A 
HETATM   20  N   UNL     1      41.931 -12.473   0.885  1.00  0.00    -0.233 NA
HETATM   21  N   UNL     1      41.594 -14.428  -0.511  1.00  0.00    -0.219 N 
HETATM   22  C   UNL     1      42.157 -11.807  -0.211  1.00  0.00     0.035 A 
HETATM   23  C   UNL     1      42.468 -10.336  -0.107  1.00  0.00     0.070 C 
HETATM   24  C   UNL     1      42.115 -12.386  -1.591  1.00  0.00     0.053 A 
HETATM   25  C   UNL     1      41.831 -13.696  -1.684  1.00  0.00     0.036 A 
HETATM   26  C   UNL     1      41.750 -14.417  -2.993  1.00  0.00     0.070 C 
HETATM   27  N   UNL     1      41.297 -15.745  -0.402  1.00  0.00    -0.170 NA
HETATM   28  C   UNL     1      41.152 -15.961   0.909  1.00  0.00     0.071 A 
HETATM   29  C   UNL     1      40.810 -17.322   1.401  1.00  0.00     0.073 C 
ENDBRANCH   1  18
TORSDOF 6
ENDMDL
MODEL 9
REMARK VINA RESULT:      -7.8      3.703      8.531
REMARK  6 active torsions:
REMARK  status: ('A' for Active; 'I' for Inactive)
REMARK    1  A    between atoms: C_9  and  C_10 
REMARK       I    between atoms: C_10  and  N_11 
REMARK    2  A    between atoms: N_11  and  C_12 
REMARK    3  A    between atoms: C_12  and  C_13 
REMARK    4  A    between atoms: C_13  and  O_14 
REMARK    5  A    between atoms: C_13  and  C_15 
REMARK    6  A    between atoms: C_18  and  O_19 
ROOT
HETATM    1  C   UNL     1      41.105 -11.092   6.888  1.00  0.00     0.258 C 
HETATM    2  N   UNL     1      41.281 -12.424   6.595  1.00  0.00    -0.350 N 
HETATM    3  O   UNL     1      40.616 -10.296   6.091  1.00  0.00    -0.267 OA
HETATM    4  H   UNL     1      41.611 -13.019   7.354  1.00  0.00     0.163 HD
ENDROOT
BRANCH   2   5
HETATM    5  C   UNL     1      40.835 -13.063   5.360  1.00  0.00     0.114 C 
HETATM    6  C   UNL     1      39.784 -14.138   5.653  1.00  0.00     0.035 C 
BRANCH   5   7
HETATM    7  C   UNL     1      42.002 -13.607   4.480  1.00  0.00     0.173 C 
BRANCH   7   8
HETATM    8  O   UNL     1      42.916 -12.554   4.147  1.00  0.00    -0.389 OA
HETATM    9  H   UNL     1      42.688 -11.803   4.721  1.00  0.00     0.210 HD
ENDBRANCH   7   8
BRANCH   7  10
HETATM   10  C   UNL     1      42.779 -14.708   5.181  1.00  0.00    -0.028 A 
HETATM   11  C   UNL     1      42.605 -16.046   4.801  1.00  0.00     0.012 A 
HETATM   12  C   UNL     1      43.305 -17.067   5.449  1.00  0.00     0.037 A 
HETATM   13  C   UNL     1      44.204 -16.773   6.475  1.00  0.00     0.068 A 
HETATM   14  C   UNL     1      44.374 -15.448   6.873  1.00  0.00     0.037 A 
HETATM   15  C   UNL     1      43.664 -14.425   6.232  1.00  0.00     0.012 A 
BRANCH  13  16
HETATM   16  O   UNL     1      44.839 -17.858   7.014  1.00  0.00    -0.356 OA
HETATM   17  C   UNL     1      44.003 -18.850   7.600  1.00  0.00     0.210 C 
ENDBRANCH  13  16
ENDBRANCH   7  10
ENDBRANCH   5   7
ENDBRANCH   2   5
BRANCH   1  18
HETATM   18  C   UNL     1      41.510 -10.697   8.227  1.00  0.00     0.105 A 
HETATM   19  C   UNL     1      42.735 -10.906   8.837  1.00  0.00     0.169 A 
HETATM   20  N   UNL     1      43.881 -11.510   8.384  1.00  0.00    -0.233 NA
HETATM   21  N   UNL     1      42.635 -10.369  10.125  1.00  0.00    -0.219 N 
HETATM   22  C   UNL     1      44.882 -11.554   9.217  1.00  0.00     0.035 A 
HETATM   23  C   UNL     1      46.161 -12.213   8.769  1.00  0.00     0.070 C 
HETATM   24  C   UNL     1      44.861 -11.013  10.613  1.00  0.00     0.053 A 
HETATM   25  C   UNL     1      43.718 -10.432  11.014  1.00  0.00     0.036 A 
HETATM   26  C   UNL     1      43.542  -9.848  12.381  1.00  0.00     0.070 C 
HETATM   27  N   UNL     1      41.413  -9.827  10.344  1.00  0.00    -0.170 NA
HETATM   28  C   UNL     1      40.736 -10.024   9.208  1.00  0.00     0.071 A 
HETATM   29  C   UNL     1      39.331  -9.554   9.094  1.00  0.00     0.073 C 
ENDBRANCH   1  18
TORSDOF 6
ENDMDL
MODEL 10
REMARK VINA RESULT:      -7.7      3.943      8.028
REMARK  6 active torsions:
REMARK  status: ('A' for Active; 'I' for Inactive)
REMARK    1  A    between atoms: C_9  and  C_10 
REMARK       I    between atoms: C_10  and  N_11 
REMARK    2  A    between atoms: N_11  and  C_12 
REMARK    3  A    between atoms: C_12  and  C_13 
REMARK    4  A    between atoms: C_13  and  O_14 
REMARK    5  A    between atoms: C_13  and  C_15 
REMARK    6  A    between atoms: C_18  and  O_19 
ROOT
HETATM    1  C   UNL     1      41.274 -14.272   5.046  1.00  0.00     0.258 C 
HETATM    2  N   UNL     1      42.333 -15.135   5.207  1.00  0.00    -0.350 N 
HETATM    3  O   UNL     1      40.369 -14.172   5.868  1.00  0.00    -0.267 OA
HETATM    4  H   UNL     1      43.078 -15.079   4.514  1.00  0.00     0.163 HD
ENDROOT
BRANCH   2   5
HETATM    5  C   UNL     1      42.553 -15.957   6.395  1.00  0.00     0.114 C 
HETATM    6  C   UNL     1      44.037 -15.968   6.780  1.00  0.00     0.035 C 
BRANCH   5   7
HETATM    7  C   UNL     1      41.967 -17.396   6.278  1.00  0.00     0.173 C 
BRANCH   7   8
HETATM    8  O   UNL     1      40.615 -17.353   5.802  1.00  0.00    -0.389 OA
HETATM    9  H   UNL     1      40.508 -16.493   5.363  1.00  0.00     0.210 HD
ENDBRANCH   7   8
BRANCH   7  10
HETATM   10  C   UNL     1      42.776 -18.267   5.331  1.00  0.00    -0.028 A 
HETATM   11  C   UNL     1      42.607 -18.147   3.945  1.00  0.00     0.012 A 
HETATM   12  C   UNL     1      43.337 -18.952   3.067  1.00  0.00     0.037 A 
HETATM   13  C   UNL     1      44.260 -19.879   3.552  1.00  0.00     0.068 A 
HETATM   14  C   UNL     1      44.425 -20.019   4.929  1.00  0.00     0.037 A 
HETATM   15  C   UNL     1      43.686 -19.221   5.811  1.00  0.00     0.012 A 
BRANCH  13  16
HETATM   16  O   UNL     1      44.922 -20.591   2.590  1.00  0.00    -0.356 OA
HETATM   17  C   UNL     1      44.261 -21.752   2.099  1.00  0.00     0.210 C 
ENDBRANCH  13  16
ENDBRANCH   7  10
ENDBRANCH   5   7
ENDBRANCH   2   5
BRANCH   1  18
HETATM   18  C   UNL     1      41.322 -13.458   3.843  1.00  0.00     0.105 A 
HETATM   19  C   UNL     1      41.400 -13.892   2.530  1.00  0.00     0.169 A 
HETATM   20  N   UNL     1      41.446 -15.155   1.995  1.00  0.00    -0.233 NA
HETATM   21  N   UNL     1      41.441 -12.744   1.733  1.00  0.00    -0.219 N 
HETATM   22  C   UNL     1      41.525 -15.232   0.697  1.00  0.00     0.035 A 
HETATM   23  C   UNL     1      41.585 -16.597   0.061  1.00  0.00     0.070 C 
HETATM   24  C   UNL     1      41.582 -14.059  -0.231  1.00  0.00     0.053 A 
HETATM   25  C   UNL     1      41.535 -12.842   0.337  1.00  0.00     0.036 A 
HETATM   26  C   UNL     1      41.586 -11.574  -0.457  1.00  0.00     0.070 C 
HETATM   27  N   UNL     1      41.381 -11.616   2.482  1.00  0.00    -0.170 NA
HETATM   28  C   UNL     1      41.312 -12.042   3.747  1.00  0.00     0.071 A 
HETATM   29  C   UNL     1      41.240 -11.056   4.857  1.00  0.00     0.073 C 
ENDBRANCH   1  18
TORSDOF 6
ENDMDL
