MODEL 1
REMARK VINA RESULT:      -9.3      0.000      0.000
REMARK  2 active torsions:
REMARK  status: ('A' for Active; 'I' for Inactive)
REMARK    1  A    between atoms: C_5  and  C_6 
REMARK    2  A    between atoms: N_12  and  C_13 
ROOT
HETATM    1  C   UNL     1      44.424 -11.478  10.535  1.00  0.00     0.047 A 
HETATM    2  N   UNL     1      43.868 -12.645  10.042  1.00  0.00    -0.344 N 
HETATM    3  C   UNL     1      44.305 -13.210   8.874  1.00  0.00     0.119 A 
HETATM    4  C   UNL     1      45.353 -12.698   8.207  1.00  0.00     0.123 A 
HETATM    5  C   UNL     1      45.609 -13.587   7.063  1.00  0.00     0.280 A 
HETATM    6  O   UNL     1      46.501 -13.438   6.247  1.00  0.00    -0.265 OA
HETATM    7  N   UNL     1      44.634 -14.593   7.151  1.00  0.00    -0.236 N 
HETATM    8  N   UNL     1      43.797 -14.340   8.261  1.00  0.00    -0.179 NA
HETATM    9  C   UNL     1      46.040 -11.502   8.700  1.00  0.00     0.193 A 
HETATM   10  O   UNL     1      47.014 -11.000   8.155  1.00  0.00    -0.287 OA
HETATM   11  C   UNL     1      45.480 -10.890   9.942  1.00  0.00     0.086 A 
HETATM   12  H   UNL     1      42.951 -12.913  10.385  1.00  0.00     0.167 HD
HETATM   13  H   UNL     1      43.778 -15.119   8.918  1.00  0.00     0.155 HD
ENDROOT
BRANCH   1  14
HETATM   14  C   UNL     1      43.835 -10.902  11.759  1.00  0.00    -0.009 A 
HETATM   15  C   UNL     1      44.133  -9.593  12.160  1.00  0.00     0.014 A 
HETATM   16  C   UNL     1      43.566  -9.057  13.319  1.00  0.00     0.007 A 
HETATM   17  C   UNL     1      42.694  -9.820  14.102  1.00  0.00    -0.062 A 
HETATM   18  C   UNL     1      42.062  -9.239  15.332  1.00  0.00     0.048 C 
HETATM   19  C   UNL     1      42.375 -11.120  13.693  1.00  0.00     0.007 A 
HETATM   20  C   UNL     1      42.944 -11.657  12.534  1.00  0.00     0.014 A 
ENDBRANCH   1  14
BRANCH   7  21
HETATM   21  C   UNL     1      44.391 -15.693   6.301  1.00  0.00     0.055 A 
HETATM   22  C   UNL     1      44.912 -16.963   6.589  1.00  0.00     0.034 A 
HETATM   23  C   UNL     1      44.657 -18.053   5.749  1.00  0.00     0.044 A 
HETATM   24  C   UNL     1      43.882 -17.877   4.612  1.00  0.00     0.116 A 
HETATM   25  F   UNL     1      43.637 -18.919   3.807  1.00  0.00    -0.206 F 
HETATM   26  C   UNL     1      43.358 -16.631   4.298  1.00  0.00     0.044 A 
HETATM   27  C   UNL     1      43.614 -15.543   5.139  1.00  0.00     0.034 A 
ENDBRANCH   7  21
TORSDOF 2
ENDMDL
MODEL 2
REMARK VINA RESULT:      -9.0      8.223     10.607
REMARK  2 active torsions:
REMARK  status: ('A' for Active; 'I' for Inactive)
REMARK    1  A    between atoms: C_5  and  C_6 
REMARK    2  A    between atoms: N_12  and  C_13 
ROOT
HETATM    1  C   UNL     1      43.302 -17.322   2.767  1.00  0.00     0.047 A 
HETATM    2  N   UNL     1      42.434 -17.405   1.693  1.00  0.00    -0.344 N 
HETATM    3  C   UNL     1      41.880 -16.288   1.130  1.00  0.00     0.119 A 
HETATM    4  C   UNL     1      42.228 -15.058   1.544  1.00  0.00     0.123 A 
HETATM    5  C   UNL     1      41.525 -14.098   0.679  1.00  0.00     0.280 A 
HETATM    6  O   UNL     1      41.619 -12.886   0.757  1.00  0.00    -0.265 OA
HETATM    7  N   UNL     1      40.774 -14.884  -0.210  1.00  0.00    -0.236 N 
HETATM    8  N   UNL     1      40.967 -16.250   0.092  1.00  0.00    -0.179 NA
HETATM    9  C   UNL     1      43.194 -14.883   2.631  1.00  0.00     0.193 A 
HETATM   10  O   UNL     1      43.573 -13.793   3.039  1.00  0.00    -0.287 OA
HETATM   11  C   UNL     1      43.716 -16.136   3.252  1.00  0.00     0.086 A 
HETATM   12  H   UNL     1      41.983 -18.298   1.519  1.00  0.00     0.167 HD
HETATM   13  H   UNL     1      41.319 -16.778  -0.706  1.00  0.00     0.155 HD
ENDROOT
BRANCH   1  14
HETATM   14  C   UNL     1      43.787 -18.584   3.357  1.00  0.00    -0.009 A 
HETATM   15  C   UNL     1      43.982 -18.710   4.738  1.00  0.00     0.014 A 
HETATM   16  C   UNL     1      44.437 -19.913   5.286  1.00  0.00     0.007 A 
HETATM   17  C   UNL     1      44.712 -21.009   4.463  1.00  0.00    -0.062 A 
HETATM   18  C   UNL     1      45.176 -22.310   5.049  1.00  0.00     0.048 C 
HETATM   19  C   UNL     1      44.498 -20.895   3.085  1.00  0.00     0.007 A 
HETATM   20  C   UNL     1      44.043 -19.691   2.537  1.00  0.00     0.014 A 
ENDBRANCH   1  14
BRANCH   7  21
HETATM   21  C   UNL     1      39.891 -14.491  -1.239  1.00  0.00     0.055 A 
HETATM   22  C   UNL     1      40.139 -14.829  -2.578  1.00  0.00     0.034 A 
HETATM   23  C   UNL     1      39.253 -14.448  -3.593  1.00  0.00     0.044 A 
HETATM   24  C   UNL     1      38.116 -13.721  -3.274  1.00  0.00     0.116 A 
HETATM   25  F   UNL     1      37.268 -13.355  -4.243  1.00  0.00    -0.206 F 
HETATM   26  C   UNL     1      37.848 -13.365  -1.959  1.00  0.00     0.044 A 
HETATM   27  C   UNL     1      38.734 -13.748  -0.946  1.00  0.00     0.034 A 
ENDBRANCH   7  21
TORSDOF 2
ENDMDL
MODEL 3
REMARK VINA RESULT:      -8.8      8.838     11.141
REMARK  2 active torsions:
REMARK  status: ('A' for Active; 'I' for Inactive)
REMARK    1  A    between atoms: C_5  and  C_6 
REMARK    2  A    between atoms: N_12  and  C_13 
ROOT
HETATM    1  C   UNL     1      41.156 -14.239  -0.639  1.00  0.00     0.047 A 
HETATM    2  N   UNL     1      42.119 -15.218  -0.469  1.00  0.00    -0.344 N 
HETATM    3  C   UNL     1      42.115 -16.047   0.620  1.00  0.00     0.119 A 
HETATM    4  C   UNL     1      41.120 -16.000   1.522  1.00  0.00     0.123 A 
HETATM    5  C   UNL     1      41.376 -17.071   2.499  1.00  0.00     0.280 A 
HETATM    6  O   UNL     1      40.664 -17.332   3.452  1.00  0.00    -0.265 OA
HETATM    7  N   UNL     1      42.565 -17.683   2.073  1.00  0.00    -0.236 N 
HETATM    8  N   UNL     1      43.047 -17.023   0.921  1.00  0.00    -0.179 NA
HETATM    9  C   UNL     1      40.026 -15.038   1.377  1.00  0.00     0.193 A 
HETATM   10  O   UNL     1      39.079 -14.959   2.148  1.00  0.00    -0.287 OA
HETATM   11  C   UNL     1      40.117 -14.114   0.207  1.00  0.00     0.086 A 
HETATM   12  H   UNL     1      42.985 -15.124  -0.990  1.00  0.00     0.167 HD
HETATM   13  H   UNL     1      43.161 -17.657   0.130  1.00  0.00     0.155 HD
ENDROOT
BRANCH   1  14
HETATM   14  C   UNL     1      41.288 -13.343  -1.803  1.00  0.00    -0.009 A 
HETATM   15  C   UNL     1      40.217 -13.131  -2.680  1.00  0.00     0.014 A 
HETATM   16  C   UNL     1      40.353 -12.275  -3.777  1.00  0.00     0.007 A 
HETATM   17  C   UNL     1      41.564 -11.620  -4.021  1.00  0.00    -0.062 A 
HETATM   18  C   UNL     1      41.705 -10.681  -5.181  1.00  0.00     0.048 C 
HETATM   19  C   UNL     1      42.630 -11.811  -3.135  1.00  0.00     0.007 A 
HETATM   20  C   UNL     1      42.494 -12.668  -2.038  1.00  0.00     0.014 A 
ENDBRANCH   1  14
BRANCH   7  21
HETATM   21  C   UNL     1      43.289 -18.749   2.649  1.00  0.00     0.055 A 
HETATM   22  C   UNL     1      43.835 -18.644   3.938  1.00  0.00     0.034 A 
HETATM   23  C   UNL     1      44.542 -19.708   4.509  1.00  0.00     0.044 A 
HETATM   24  C   UNL     1      44.709 -20.884   3.793  1.00  0.00     0.116 A 
HETATM   25  F   UNL     1      45.385 -21.903   4.338  1.00  0.00    -0.206 F 
HETATM   26  C   UNL     1      44.186 -21.015   2.514  1.00  0.00     0.044 A 
HETATM   27  C   UNL     1      43.480 -19.950   1.944  1.00  0.00     0.034 A 
ENDBRANCH   7  21
TORSDOF 2
ENDMDL
MODEL 4
REMARK VINA RESULT:      -8.7      7.750     10.422
REMARK  2 active torsions:
REMARK  status: ('A' for Active; 'I' for Inactive)
REMARK    1  A    between atoms: C_5  and  C_6 
REMARK    2  A    between atoms: N_12  and  C_13 
ROOT
HETATM    1  C   UNL     1      43.318 -17.283   3.113  1.00  0.00     0.047 A 
HETATM    2  N   UNL     1      43.034 -17.093   1.773  1.00  0.00    -0.344 N 
HETATM    3  C   UNL     1      42.543 -15.904   1.306  1.00  0.00     0.119 A 
HETATM    4  C   UNL     1      42.403 -14.845   2.120  1.00  0.00     0.123 A 
HETATM    5  C   UNL     1      41.944 -13.721   1.288  1.00  0.00     0.280 A 
HETATM    6  O   UNL     1      41.727 -12.593   1.693  1.00  0.00    -0.265 OA
HETATM    7  N   UNL     1      41.837 -14.243  -0.011  1.00  0.00    -0.236 N 
HETATM    8  N   UNL     1      42.177 -15.614   0.004  1.00  0.00    -0.179 NA
HETATM    9  C   UNL     1      42.747 -14.944   3.540  1.00  0.00     0.193 A 
HETATM   10  O   UNL     1      42.666 -14.012   4.330  1.00  0.00    -0.287 OA
HETATM   11  C   UNL     1      43.215 -16.283   4.008  1.00  0.00     0.086 A 
HETATM   12  H   UNL     1      42.908 -17.918   1.195  1.00  0.00     0.167 HD
HETATM   13  H   UNL     1      42.942 -15.832  -0.634  1.00  0.00     0.155 HD
ENDROOT
BRANCH   1  14
HETATM   14  C   UNL     1      43.769 -18.623   3.535  1.00  0.00    -0.009 A 
HETATM   15  C   UNL     1      44.011 -19.635   2.597  1.00  0.00     0.014 A 
HETATM   16  C   UNL     1      44.442 -20.899   3.009  1.00  0.00     0.007 A 
HETATM   17  C   UNL     1      44.632 -21.178   4.366  1.00  0.00    -0.062 A 
HETATM   18  C   UNL     1      45.120 -22.525   4.810  1.00  0.00     0.048 C 
HETATM   19  C   UNL     1      44.413 -20.164   5.304  1.00  0.00     0.007 A 
HETATM   20  C   UNL     1      43.981 -18.899   4.893  1.00  0.00     0.014 A 
ENDBRANCH   1  14
BRANCH   7  21
HETATM   21  C   UNL     1      41.415 -13.618  -1.204  1.00  0.00     0.055 A 
HETATM   22  C   UNL     1      40.059 -13.575  -1.562  1.00  0.00     0.034 A 
HETATM   23  C   UNL     1      39.645 -12.942  -2.740  1.00  0.00     0.044 A 
HETATM   24  C   UNL     1      40.587 -12.353  -3.570  1.00  0.00     0.116 A 
HETATM   25  F   UNL     1      40.193 -11.748  -4.698  1.00  0.00    -0.206 F 
HETATM   26  C   UNL     1      41.937 -12.386  -3.246  1.00  0.00     0.044 A 
HETATM   27  C   UNL     1      42.348 -13.018  -2.068  1.00  0.00     0.034 A 
ENDBRANCH   7  21
TORSDOF 2
ENDMDL
MODEL 5
REMARK VINA RESULT:      -8.6      9.141     11.497
REMARK  2 active torsions:
REMARK  status: ('A' for Active; 'I' for Inactive)
REMARK    1  A    between atoms: C_5  and  C_6 
REMARK    2  A    between atoms: N_12  and  C_13 
ROOT
HETATM    1  C   UNL     1      41.802 -16.780   1.762  1.00  0.00     0.047 A 
HETATM    2  N   UNL     1      42.345 -16.092   0.692  1.00  0.00    -0.344 N 
HETATM    3  C   UNL     1      41.615 -15.180  -0.020  1.00  0.00     0.119 A 
HETATM    4  C   UNL     1      40.365 -14.852   0.350  1.00  0.00     0.123 A 
HETATM    5  C   UNL     1      39.910 -13.794  -0.564  1.00  0.00     0.280 A 
HETATM    6  O   UNL     1      38.824 -13.243  -0.512  1.00  0.00    -0.265 OA
HETATM    7  N   UNL     1      40.980 -13.583  -1.447  1.00  0.00    -0.236 N 
HETATM    8  N   UNL     1      42.031 -14.472  -1.132  1.00  0.00    -0.179 NA
HETATM    9  C   UNL     1      39.742 -15.486   1.514  1.00  0.00     0.193 A 
HETATM   10  O   UNL     1      38.619 -15.216   1.919  1.00  0.00    -0.287 OA
HETATM   11  C   UNL     1      40.560 -16.521   2.213  1.00  0.00     0.086 A 
HETATM   12  H   UNL     1      43.177 -16.477   0.256  1.00  0.00     0.167 HD
HETATM   13  H   UNL     1      42.905 -13.984  -0.932  1.00  0.00     0.155 HD
ENDROOT
BRANCH   1  14
HETATM   14  C   UNL     1      42.641 -17.800   2.419  1.00  0.00    -0.009 A 
HETATM   15  C   UNL     1      43.382 -18.722   1.667  1.00  0.00     0.014 A 
HETATM   16  C   UNL     1      44.177 -19.681   2.301  1.00  0.00     0.007 A 
HETATM   17  C   UNL     1      44.241 -19.741   3.697  1.00  0.00    -0.062 A 
HETATM   18  C   UNL     1      45.113 -20.752   4.380  1.00  0.00     0.048 C 
HETATM   19  C   UNL     1      43.520 -18.809   4.450  1.00  0.00     0.007 A 
HETATM   20  C   UNL     1      42.724 -17.850   3.817  1.00  0.00     0.014 A 
ENDBRANCH   1  14
BRANCH   7  21
HETATM   21  C   UNL     1      41.086 -12.702  -2.545  1.00  0.00     0.055 A 
HETATM   22  C   UNL     1      42.337 -12.272  -3.014  1.00  0.00     0.034 A 
HETATM   23  C   UNL     1      42.437 -11.408  -4.111  1.00  0.00     0.044 A 
HETATM   24  C   UNL     1      41.284 -10.965  -4.742  1.00  0.00     0.116 A 
HETATM   25  F   UNL     1      41.378 -10.138  -5.791  1.00  0.00    -0.206 F 
HETATM   26  C   UNL     1      40.033 -11.367  -4.296  1.00  0.00     0.044 A 
HETATM   27  C   UNL     1      39.935 -12.231  -3.200  1.00  0.00     0.034 A 
ENDBRANCH   7  21
TORSDOF 2
ENDMDL
MODEL 6
REMARK VINA RESULT:      -8.4      4.853      9.610
REMARK  2 active torsions:
REMARK  status: ('A' for Active; 'I' for Inactive)
REMARK    1  A    between atoms: C_5  and  C_6 
REMARK    2  A    between atoms: N_12  and  C_13 
ROOT
HETATM    1  C   UNL     1      42.908 -15.686   3.436  1.00  0.00     0.047 A 
HETATM    2  N   UNL     1      42.485 -15.321   4.702  1.00  0.00    -0.344 N 
HETATM    3  C   UNL     1      42.144 -14.030   4.999  1.00  0.00     0.119 A 
HETATM    4  C   UNL     1      42.124 -13.082   4.047  1.00  0.00     0.123 A 
HETATM    5  C   UNL     1      41.635 -11.847   4.681  1.00  0.00     0.280 A 
HETATM    6  O   UNL     1      41.472 -10.784   4.108  1.00  0.00    -0.265 OA
HETATM    7  N   UNL     1      41.406 -12.187   6.023  1.00  0.00    -0.236 N 
HETATM    8  N   UNL     1      41.757 -13.539   6.232  1.00  0.00    -0.179 NA
HETATM    9  C   UNL     1      42.493 -13.403   2.667  1.00  0.00     0.193 A 
HETATM   10  O   UNL     1      42.473 -12.594   1.748  1.00  0.00    -0.287 OA
HETATM   11  C   UNL     1      42.920 -14.811   2.413  1.00  0.00     0.086 A 
HETATM   12  H   UNL     1      42.709 -15.942   5.473  1.00  0.00     0.167 HD
HETATM   13  H   UNL     1      40.981 -14.088   6.603  1.00  0.00     0.155 HD
ENDROOT
BRANCH   1  14
HETATM   14  C   UNL     1      43.329 -17.085   3.231  1.00  0.00    -0.009 A 
HETATM   15  C   UNL     1      43.758 -17.877   4.304  1.00  0.00     0.014 A 
HETATM   16  C   UNL     1      44.150 -19.203   4.098  1.00  0.00     0.007 A 
HETATM   17  C   UNL     1      44.126 -19.760   2.815  1.00  0.00    -0.062 A 
HETATM   18  C   UNL     1      44.520 -21.190   2.594  1.00  0.00     0.048 C 
HETATM   19  C   UNL     1      43.676 -18.979   1.744  1.00  0.00     0.007 A 
HETATM   20  C   UNL     1      43.286 -17.653   1.951  1.00  0.00     0.014 A 
ENDBRANCH   1  14
BRANCH   7  21
HETATM   21  C   UNL     1      40.958 -11.384   7.095  1.00  0.00     0.055 A 
HETATM   22  C   UNL     1      39.660 -11.519   7.611  1.00  0.00     0.034 A 
HETATM   23  C   UNL     1      39.225 -10.729   8.681  1.00  0.00     0.044 A 
HETATM   24  C   UNL     1      40.086  -9.796   9.239  1.00  0.00     0.116 A 
HETATM   25  F   UNL     1      39.671  -9.040  10.264  1.00  0.00    -0.206 F 
HETATM   26  C   UNL     1      41.373  -9.635   8.746  1.00  0.00     0.044 A 
HETATM   27  C   UNL     1      41.806 -10.425   7.676  1.00  0.00     0.034 A 
ENDBRANCH   7  21
TORSDOF 2
ENDMDL
MODEL 7
REMARK VINA RESULT:      -8.2      5.537     10.058
REMARK  2 active torsions:
REMARK  status: ('A' for Active; 'I' for Inactive)
REMARK    1  A    between atoms: C_5  and  C_6 
REMARK    2  A    between atoms: N_12  and  C_13 
ROOT
HETATM    1  C   UNL     1      41.456 -16.165   3.545  1.00  0.00     0.047 A 
HETATM    2  N   UNL     1      41.669 -15.495   4.736  1.00  0.00    -0.344 N 
HETATM    3  C   UNL     1      41.043 -14.311   5.015  1.00  0.00     0.119 A 
HETATM    4  C   UNL     1      40.126 -13.798   4.177  1.00  0.00     0.123 A 
HETATM    5  C   UNL     1      39.593 -12.584   4.815  1.00  0.00     0.280 A 
HETATM    6  O   UNL     1      38.726 -11.869   4.343  1.00  0.00    -0.265 OA
HETATM    7  N   UNL     1      40.283 -12.472   6.032  1.00  0.00    -0.236 N 
HETATM    8  N   UNL     1      41.213 -13.529   6.143  1.00  0.00    -0.179 NA
HETATM    9  C   UNL     1      39.792 -14.483   2.926  1.00  0.00     0.193 A 
HETATM   10  O   UNL     1      38.951 -14.084   2.132  1.00  0.00    -0.287 OA
HETATM   11  C   UNL     1      40.555 -15.736   2.642  1.00  0.00     0.086 A 
HETATM   12  H   UNL     1      42.504 -15.725   5.265  1.00  0.00     0.167 HD
HETATM   13  H   UNL     1      41.068 -14.088   6.984  1.00  0.00     0.155 HD
ENDROOT
BRANCH   1  14
HETATM   14  C   UNL     1      42.235 -17.394   3.301  1.00  0.00    -0.009 A 
HETATM   15  C   UNL     1      42.213 -18.029   2.052  1.00  0.00     0.014 A 
HETATM   16  C   UNL     1      42.959 -19.191   1.831  1.00  0.00     0.007 A 
HETATM   17  C   UNL     1      43.736 -19.741   2.855  1.00  0.00    -0.062 A 
HETATM   18  C   UNL     1      44.559 -20.971   2.614  1.00  0.00     0.048 C 
HETATM   19  C   UNL     1      43.779 -19.097   4.096  1.00  0.00     0.007 A 
HETATM   20  C   UNL     1      43.032 -17.936   4.318  1.00  0.00     0.014 A 
ENDBRANCH   1  14
BRANCH   7  21
HETATM   21  C   UNL     1      40.194 -11.482   7.034  1.00  0.00     0.055 A 
HETATM   22  C   UNL     1      40.949 -10.302   6.959  1.00  0.00     0.034 A 
HETATM   23  C   UNL     1      40.847  -9.318   7.949  1.00  0.00     0.044 A 
HETATM   24  C   UNL     1      39.991  -9.511   9.023  1.00  0.00     0.116 A 
HETATM   25  F   UNL     1      39.892  -8.570   9.971  1.00  0.00    -0.206 F 
HETATM   26  C   UNL     1      39.236 -10.671   9.128  1.00  0.00     0.044 A 
HETATM   27  C   UNL     1      39.339 -11.653   8.137  1.00  0.00     0.034 A 
ENDBRANCH   7  21
TORSDOF 2
ENDMDL
MODEL 8
REMARK VINA RESULT:      -8.1      8.389     10.641
REMARK  2 active torsions:
REMARK  status: ('A' for Active; 'I' for Inactive)
REMARK    1  A    between atoms: C_5  and  C_6 
REMARK    2  A    between atoms: N_12  and  C_13 
ROOT
HETATM    1  C   UNL     1      39.951 -14.713   0.645  1.00  0.00     0.047 A 
HETATM    2  N   UNL     1      40.644 -15.874   0.354  1.00  0.00    -0.344 N 
HETATM    3  C   UNL     1      41.244 -16.617   1.334  1.00  0.00     0.119 A 
HETATM    4  C   UNL     1      41.108 -16.291   2.631  1.00  0.00     0.123 A 
HETATM    5  C   UNL     1      41.795 -17.334   3.410  1.00  0.00     0.280 A 
HETATM    6  O   UNL     1      41.859 -17.370   4.626  1.00  0.00    -0.265 OA
HETATM    7  N   UNL     1      42.312 -18.225   2.457  1.00  0.00    -0.236 N 
HETATM    8  N   UNL     1      42.000 -17.761   1.160  1.00  0.00    -0.179 NA
HETATM    9  C   UNL     1      40.333 -15.113   3.027  1.00  0.00     0.193 A 
HETATM   10  O   UNL     1      40.150 -14.775   4.189  1.00  0.00    -0.287 OA
HETATM   11  C   UNL     1      39.756 -14.304   1.912  1.00  0.00     0.086 A 
HETATM   12  H   UNL     1      40.955 -16.012  -0.603  1.00  0.00     0.167 HD
HETATM   13  H   UNL     1      41.478 -18.449   0.617  1.00  0.00     0.155 HD
ENDROOT
BRANCH   1  14
HETATM   14  C   UNL     1      39.405 -13.938  -0.486  1.00  0.00    -0.009 A 
HETATM   15  C   UNL     1      40.026 -13.953  -1.741  1.00  0.00     0.014 A 
HETATM   16  C   UNL     1      39.497 -13.219  -2.806  1.00  0.00     0.007 A 
HETATM   17  C   UNL     1      38.341 -12.451  -2.634  1.00  0.00    -0.062 A 
HETATM   18  C   UNL     1      37.754 -11.682  -3.781  1.00  0.00     0.048 C 
HETATM   19  C   UNL     1      37.705 -12.451  -1.388  1.00  0.00     0.007 A 
HETATM   20  C   UNL     1      38.235 -13.185  -0.322  1.00  0.00     0.014 A 
ENDBRANCH   1  14
BRANCH   7  21
HETATM   21  C   UNL     1      43.083 -19.394   2.639  1.00  0.00     0.055 A 
HETATM   22  C   UNL     1      43.957 -19.526   3.729  1.00  0.00     0.034 A 
HETATM   23  C   UNL     1      44.709 -20.693   3.910  1.00  0.00     0.044 A 
HETATM   24  C   UNL     1      44.595 -21.732   3.000  1.00  0.00     0.116 A 
HETATM   25  F   UNL     1      45.314 -22.848   3.172  1.00  0.00    -0.206 F 
HETATM   26  C   UNL     1      43.744 -21.627   1.908  1.00  0.00     0.044 A 
HETATM   27  C   UNL     1      42.992 -20.461   1.728  1.00  0.00     0.034 A 
ENDBRANCH   7  21
TORSDOF 2
ENDMDL
MODEL 9
REMARK VINA RESULT:      -8.1      6.142      9.786
REMARK  2 active torsions:
REMARK  status: ('A' for Active; 'I' for Inactive)
REMARK    1  A    between atoms: C_5  and  C_6 
REMARK    2  A    between atoms: N_12  and  C_13 
ROOT
HETATM    1  C   UNL     1      43.249 -17.016   4.278  1.00  0.00     0.047 A 
HETATM    2  N   UNL     1      42.427 -16.185   3.537  1.00  0.00    -0.344 N 
HETATM    3  C   UNL     1      42.008 -14.975   4.019  1.00  0.00     0.119 A 
HETATM    4  C   UNL     1      42.452 -14.507   5.198  1.00  0.00     0.123 A 
HETATM    5  C   UNL     1      41.882 -13.161   5.368  1.00  0.00     0.280 A 
HETATM    6  O   UNL     1      42.087 -12.430   6.321  1.00  0.00    -0.265 OA
HETATM    7  N   UNL     1      41.103 -12.942   4.221  1.00  0.00    -0.236 N 
HETATM    8  N   UNL     1      41.152 -14.086   3.395  1.00  0.00    -0.179 NA
HETATM    9  C   UNL     1      43.378 -15.297   6.012  1.00  0.00     0.193 A 
HETATM   10  O   UNL     1      43.839 -14.920   7.082  1.00  0.00    -0.287 OA
HETATM   11  C   UNL     1      43.750 -16.637   5.469  1.00  0.00     0.086 A 
HETATM   12  H   UNL     1      41.902 -16.599   2.773  1.00  0.00     0.167 HD
HETATM   13  H   UNL     1      41.489 -13.873   2.456  1.00  0.00     0.155 HD
ENDROOT
BRANCH   1  14
HETATM   14  C   UNL     1      43.584 -18.334   3.708  1.00  0.00    -0.009 A 
HETATM   15  C   UNL     1      44.377 -19.248   4.415  1.00  0.00     0.014 A 
HETATM   16  C   UNL     1      44.684 -20.497   3.866  1.00  0.00     0.007 A 
HETATM   17  C   UNL     1      44.211 -20.852   2.599  1.00  0.00    -0.062 A 
HETATM   18  C   UNL     1      44.517 -22.201   2.018  1.00  0.00     0.048 C 
HETATM   19  C   UNL     1      43.401 -19.951   1.900  1.00  0.00     0.007 A 
HETATM   20  C   UNL     1      43.094 -18.702   2.448  1.00  0.00     0.014 A 
ENDBRANCH   1  14
BRANCH   7  21
HETATM   21  C   UNL     1      40.310 -11.830   3.867  1.00  0.00     0.055 A 
HETATM   22  C   UNL     1      39.080 -11.584   4.496  1.00  0.00     0.034 A 
HETATM   23  C   UNL     1      38.303 -10.472   4.149  1.00  0.00     0.044 A 
HETATM   24  C   UNL     1      38.751  -9.602   3.167  1.00  0.00     0.116 A 
HETATM   25  F   UNL     1      38.009  -8.538   2.834  1.00  0.00    -0.206 F 
HETATM   26  C   UNL     1      39.961  -9.822   2.522  1.00  0.00     0.044 A 
HETATM   27  C   UNL     1      40.735 -10.934   2.870  1.00  0.00     0.034 A 
ENDBRANCH   7  21
TORSDOF 2
ENDMDL
MODEL 10
REMARK VINA RESULT:      -8.1      5.248      6.633
REMARK  2 active torsions:
REMARK  status: ('A' for Active; 'I' for Inactive)
REMARK    1  A    between atoms: C_5  and  C_6 
REMARK    2  A    between atoms: N_12  and  C_13 
ROOT
HETATM    1  C   UNL     1      41.824 -14.074   5.270  1.00  0.00     0.047 A 
HETATM    2  N   UNL     1      41.752 -15.297   4.630  1.00  0.00    -0.344 N 
HETATM    3  C   UNL     1      42.674 -16.283   4.860  1.00  0.00     0.119 A 
HETATM    4  C   UNL     1      43.635 -16.130   5.786  1.00  0.00     0.123 A 
HETATM    5  C   UNL     1      44.386 -17.394   5.839  1.00  0.00     0.280 A 
HETATM    6  O   UNL     1      45.323 -17.621   6.584  1.00  0.00    -0.265 OA
HETATM    7  N   UNL     1      43.779 -18.224   4.883  1.00  0.00    -0.236 N 
HETATM    8  N   UNL     1      42.733 -17.520   4.246  1.00  0.00    -0.179 NA
HETATM    9  C   UNL     1      43.737 -14.889   6.558  1.00  0.00     0.193 A 
HETATM   10  O   UNL     1      44.571 -14.694   7.431  1.00  0.00    -0.287 OA
HETATM   11  C   UNL     1      42.747 -13.823   6.218  1.00  0.00     0.086 A 
HETATM   12  H   UNL     1      41.199 -15.354   3.780  1.00  0.00     0.167 HD
HETATM   13  H   UNL     1      41.836 -17.999   4.330  1.00  0.00     0.155 HD
ENDROOT
BRANCH   1  14
HETATM   14  C   UNL     1      40.833 -13.046   4.899  1.00  0.00    -0.009 A 
HETATM   15  C   UNL     1      40.272 -13.011   3.616  1.00  0.00     0.014 A 
HETATM   16  C   UNL     1      39.330 -12.035   3.278  1.00  0.00     0.007 A 
HETATM   17  C   UNL     1      38.936 -11.073   4.213  1.00  0.00    -0.062 A 
HETATM   18  C   UNL     1      37.906 -10.041   3.862  1.00  0.00     0.048 C 
HETATM   19  C   UNL     1      39.477 -11.118   5.503  1.00  0.00     0.007 A 
HETATM   20  C   UNL     1      40.420 -12.094   5.841  1.00  0.00     0.014 A 
ENDBRANCH   1  14
BRANCH   7  21
HETATM   21  C   UNL     1      44.107 -19.540   4.491  1.00  0.00     0.055 A 
HETATM   22  C   UNL     1      44.451 -20.516   5.438  1.00  0.00     0.034 A 
HETATM   23  C   UNL     1      44.763 -21.822   5.045  1.00  0.00     0.044 A 
HETATM   24  C   UNL     1      44.736 -22.159   3.700  1.00  0.00     0.116 A 
HETATM   25  F   UNL     1      45.033 -23.409   3.321  1.00  0.00    -0.206 F 
HETATM   26  C   UNL     1      44.405 -21.213   2.739  1.00  0.00     0.044 A 
HETATM   27  C   UNL     1      44.093 -19.908   3.134  1.00  0.00     0.034 A 
ENDBRANCH   7  21
TORSDOF 2
ENDMDL
