MODEL 1
REMARK VINA RESULT:      -7.4      0.000      0.000
REMARK  6 active torsions:
REMARK  status: ('A' for Active; 'I' for Inactive)
REMARK    1  A    between atoms: C_2  and  O_3 
REMARK    2  A    between atoms: O_3  and  C_4 
REMARK    3  A    between atoms: C_4  and  C_5 
REMARK    4  A    between atoms: C_10  and  C_11 
REMARK    5  A    between atoms: C_11  and  N_12 
REMARK    6  A    between atoms: C_11  and  C_16 
ROOT
HETATM    1  C   UNL     1      43.763 -17.857   5.796  1.00  0.00     0.118 A 
HETATM    2  N   UNL     1      44.739 -18.769   5.492  1.00  0.00    -0.350 N 
HETATM    3  H   UNL     1      45.533 -18.985   6.083  1.00  0.00     0.166 HD
HETATM    4  C   UNL     1      44.448 -19.410   4.316  1.00  0.00     0.043 A 
HETATM    5  C   UNL     1      43.285 -18.833   3.796  1.00  0.00     0.002 A 
HETATM    6  C   UNL     1      42.870 -17.799   4.715  1.00  0.00     0.022 A 
HETATM    7  C   UNL     1      45.140 -20.452   3.688  1.00  0.00     0.030 A 
HETATM    8  C   UNL     1      44.635 -20.938   2.483  1.00  0.00     0.002 A 
HETATM    9  C   UNL     1      43.483 -20.395   1.929  1.00  0.00     0.001 A 
HETATM   10  C   UNL     1      42.806 -19.349   2.570  1.00  0.00     0.014 A 
ENDROOT
BRANCH   6  11
HETATM   11  C   UNL     1      41.714 -16.823   4.676  1.00  0.00     0.252 C 
BRANCH  11  12
HETATM   12  N   UNL     1      40.461 -17.480   5.103  1.00  0.00    -0.067 N 
HETATM   13  H   UNL     1      40.644 -18.413   5.482  1.00  0.00     0.275 HD
HETATM   14  H   UNL     1      39.959 -16.907   5.785  1.00  0.00     0.275 HD
HETATM   15  H   UNL     1      39.867 -17.592   4.264  1.00  0.00     0.275 HD
ENDBRANCH  11  12
BRANCH  11  16
HETATM   16  C   UNL     1      41.637 -16.104   3.351  1.00  0.00    -0.024 A 
HETATM   17  C   UNL     1      42.546 -15.057   3.095  1.00  0.00     0.009 A 
HETATM   18  C   UNL     1      42.488 -14.328   1.906  1.00  0.00     0.001 A 
HETATM   19  C   UNL     1      41.522 -14.630   0.953  1.00  0.00     0.000 A 
HETATM   20  C   UNL     1      40.614 -15.661   1.184  1.00  0.00     0.001 A 
HETATM   21  C   UNL     1      40.667 -16.394   2.374  1.00  0.00     0.009 A 
ENDBRANCH  11  16
ENDBRANCH   6  11
BRANCH   1  22
HETATM   22  C   UNL     1      43.694 -17.120   7.036  1.00  0.00     0.310 C 
HETATM   23  O   UNL     1      42.923 -17.424   7.939  1.00  0.00    -0.258 OA
BRANCH  22  24
HETATM   24  O   UNL     1      44.583 -16.100   7.029  1.00  0.00    -0.317 OA
BRANCH  24  25
HETATM   25  C   UNL     1      44.047 -14.791   6.780  1.00  0.00     0.175 C 
HETATM   26  C   UNL     1      44.963 -13.743   7.386  1.00  0.00     0.034 C 
ENDBRANCH  24  25
ENDBRANCH  22  24
ENDBRANCH   1  22
TORSDOF 6
ENDMDL
MODEL 2
REMARK VINA RESULT:      -7.1      2.795      4.980
REMARK  6 active torsions:
REMARK  status: ('A' for Active; 'I' for Inactive)
REMARK    1  A    between atoms: C_2  and  O_3 
REMARK    2  A    between atoms: O_3  and  C_4 
REMARK    3  A    between atoms: C_4  and  C_5 
REMARK    4  A    between atoms: C_10  and  C_11 
REMARK    5  A    between atoms: C_11  and  N_12 
REMARK    6  A    between atoms: C_11  and  C_16 
ROOT
HETATM    1  C   UNL     1      41.849 -17.254   1.814  1.00  0.00     0.118 A 
HETATM    2  N   UNL     1      42.006 -18.528   1.334  1.00  0.00    -0.350 N 
HETATM    3  H   UNL     1      41.541 -18.899   0.513  1.00  0.00     0.166 HD
HETATM    4  C   UNL     1      42.946 -19.205   2.066  1.00  0.00     0.043 A 
HETATM    5  C   UNL     1      43.350 -18.369   3.112  1.00  0.00     0.002 A 
HETATM    6  C   UNL     1      42.611 -17.135   2.986  1.00  0.00     0.022 A 
HETATM    7  C   UNL     1      43.452 -20.495   1.870  1.00  0.00     0.030 A 
HETATM    8  C   UNL     1      44.414 -20.962   2.765  1.00  0.00     0.002 A 
HETATM    9  C   UNL     1      44.845 -20.167   3.817  1.00  0.00     0.001 A 
HETATM   10  C   UNL     1      44.324 -18.879   4.001  1.00  0.00     0.014 A 
ENDROOT
BRANCH   6  11
HETATM   11  C   UNL     1      42.598 -15.879   3.831  1.00  0.00     0.252 C 
BRANCH  11  12
HETATM   12  N   UNL     1      43.510 -14.862   3.269  1.00  0.00    -0.067 N 
HETATM   13  H   UNL     1      44.256 -14.630   3.930  1.00  0.00     0.275 HD
HETATM   14  H   UNL     1      43.903 -15.171   2.377  1.00  0.00     0.275 HD
HETATM   15  H   UNL     1      42.956 -14.003   3.106  1.00  0.00     0.275 HD
ENDBRANCH  11  12
BRANCH  11  16
HETATM   16  C   UNL     1      42.811 -16.189   5.292  1.00  0.00    -0.024 A 
HETATM   17  C   UNL     1      43.920 -15.617   5.951  1.00  0.00     0.009 A 
HETATM   18  C   UNL     1      44.190 -15.907   7.289  1.00  0.00     0.001 A 
HETATM   19  C   UNL     1      43.362 -16.774   7.993  1.00  0.00     0.000 A 
HETATM   20  C   UNL     1      42.261 -17.350   7.363  1.00  0.00     0.001 A 
HETATM   21  C   UNL     1      41.985 -17.063   6.023  1.00  0.00     0.009 A 
ENDBRANCH  11  16
ENDBRANCH   6  11
BRANCH   1  22
HETATM   22  C   UNL     1      41.044 -16.238   1.179  1.00  0.00     0.310 C 
HETATM   23  O   UNL     1      41.469 -15.536   0.269  1.00  0.00    -0.258 OA
BRANCH  22  24
HETATM   24  O   UNL     1      39.807 -16.205   1.727  1.00  0.00    -0.317 OA
BRANCH  24  25
HETATM   25  C   UNL     1      39.341 -14.919   2.168  1.00  0.00     0.175 C 
HETATM   26  C   UNL     1      38.199 -14.460   1.279  1.00  0.00     0.034 C 
ENDBRANCH  24  25
ENDBRANCH  22  24
ENDBRANCH   1  22
TORSDOF 6
ENDMDL
MODEL 3
REMARK VINA RESULT:      -7.0      2.458      5.605
REMARK  6 active torsions:
REMARK  status: ('A' for Active; 'I' for Inactive)
REMARK    1  A    between atoms: C_2  and  O_3 
REMARK    2  A    between atoms: O_3  and  C_4 
REMARK    3  A    between atoms: C_4  and  C_5 
REMARK    4  A    between atoms: C_10  and  C_11 
REMARK    5  A    between atoms: C_11  and  N_12 
REMARK    6  A    between atoms: C_11  and  C_16 
ROOT
HETATM    1  C   UNL     1      42.753 -15.217   3.052  1.00  0.00     0.118 A 
HETATM    2  N   UNL     1      43.544 -14.245   3.606  1.00  0.00    -0.350 N 
HETATM    3  H   UNL     1      43.857 -13.411   3.124  1.00  0.00     0.166 HD
HETATM    4  C   UNL     1      43.781 -14.514   4.928  1.00  0.00     0.043 A 
HETATM    5  C   UNL     1      43.195 -15.749   5.221  1.00  0.00     0.002 A 
HETATM    6  C   UNL     1      42.579 -16.231   4.007  1.00  0.00     0.022 A 
HETATM    7  C   UNL     1      44.477 -13.747   5.871  1.00  0.00     0.030 A 
HETATM    8  C   UNL     1      44.581 -14.246   7.169  1.00  0.00     0.002 A 
HETATM    9  C   UNL     1      44.014 -15.467   7.504  1.00  0.00     0.001 A 
HETATM   10  C   UNL     1      43.326 -16.224   6.546  1.00  0.00     0.014 A 
ENDROOT
BRANCH   6  11
HETATM   11  C   UNL     1      41.828 -17.508   3.697  1.00  0.00     0.252 C 
BRANCH  11  12
HETATM   12  N   UNL     1      40.838 -17.802   4.755  1.00  0.00    -0.067 N 
HETATM   13  H   UNL     1      40.409 -18.721   4.613  1.00  0.00     0.275 HD
HETATM   14  H   UNL     1      41.263 -17.742   5.683  1.00  0.00     0.275 HD
HETATM   15  H   UNL     1      40.090 -17.091   4.687  1.00  0.00     0.275 HD
ENDBRANCH  11  12
BRANCH  11  16
HETATM   16  C   UNL     1      42.769 -18.642   3.372  1.00  0.00    -0.024 A 
HETATM   17  C   UNL     1      43.669 -19.082   4.366  1.00  0.00     0.009 A 
HETATM   18  C   UNL     1      44.592 -20.095   4.103  1.00  0.00     0.001 A 
HETATM   19  C   UNL     1      44.635 -20.686   2.845  1.00  0.00     0.000 A 
HETATM   20  C   UNL     1      43.756 -20.269   1.849  1.00  0.00     0.001 A 
HETATM   21  C   UNL     1      42.829 -19.254   2.106  1.00  0.00     0.009 A 
ENDBRANCH  11  16
ENDBRANCH   6  11
BRANCH   1  22
HETATM   22  C   UNL     1      42.202 -15.158   1.719  1.00  0.00     0.310 C 
HETATM   23  O   UNL     1      42.584 -15.895   0.817  1.00  0.00    -0.258 OA
BRANCH  22  24
HETATM   24  O   UNL     1      41.242 -14.207   1.647  1.00  0.00    -0.317 OA
BRANCH  24  25
HETATM   25  C   UNL     1      40.021 -14.586   0.990  1.00  0.00     0.175 C 
HETATM   26  C   UNL     1      39.100 -15.270   1.984  1.00  0.00     0.034 C 
ENDBRANCH  24  25
ENDBRANCH  22  24
ENDBRANCH   1  22
TORSDOF 6
ENDMDL
MODEL 4
REMARK VINA RESULT:      -7.0      2.646      5.696
REMARK  6 active torsions:
REMARK  status: ('A' for Active; 'I' for Inactive)
REMARK    1  A    between atoms: C_2  and  O_3 
REMARK    2  A    between atoms: O_3  and  C_4 
REMARK    3  A    between atoms: C_4  and  C_5 
REMARK    4  A    between atoms: C_10  and  C_11 
REMARK    5  A    between atoms: C_11  and  N_12 
REMARK    6  A    between atoms: C_11  and  C_16 
ROOT
HETATM    1  C   UNL     1      42.051 -16.939   3.236  1.00  0.00     0.118 A 
HETATM    2  N   UNL     1      41.496 -16.424   4.378  1.00  0.00    -0.350 N 
HETATM    3  H   UNL     1      40.619 -15.919   4.418  1.00  0.00     0.166 HD
HETATM    4  C   UNL     1      42.248 -16.763   5.472  1.00  0.00     0.043 A 
HETATM    5  C   UNL     1      43.377 -17.448   5.014  1.00  0.00     0.002 A 
HETATM    6  C   UNL     1      43.284 -17.518   3.575  1.00  0.00     0.022 A 
HETATM    7  C   UNL     1      42.000 -16.501   6.825  1.00  0.00     0.030 A 
HETATM    8  C   UNL     1      42.930 -16.956   7.759  1.00  0.00     0.002 A 
HETATM    9  C   UNL     1      44.065 -17.642   7.350  1.00  0.00     0.001 A 
HETATM   10  C   UNL     1      44.300 -17.890   5.991  1.00  0.00     0.014 A 
ENDROOT
BRANCH   6  11
HETATM   11  C   UNL     1      44.211 -18.105   2.533  1.00  0.00     0.252 C 
BRANCH  11  12
HETATM   12  N   UNL     1      43.943 -17.517   1.204  1.00  0.00    -0.067 N 
HETATM   13  H   UNL     1      44.450 -16.636   1.081  1.00  0.00     0.275 HD
HETATM   14  H   UNL     1      44.177 -18.174   0.457  1.00  0.00     0.275 HD
HETATM   15  H   UNL     1      42.931 -17.307   1.155  1.00  0.00     0.275 HD
ENDBRANCH  11  12
BRANCH  11  16
HETATM   16  C   UNL     1      44.211 -19.614   2.574  1.00  0.00    -0.024 A 
HETATM   17  C   UNL     1      44.927 -20.263   3.602  1.00  0.00     0.009 A 
HETATM   18  C   UNL     1      44.998 -21.656   3.659  1.00  0.00     0.001 A 
HETATM   19  C   UNL     1      44.359 -22.425   2.693  1.00  0.00     0.000 A 
HETATM   20  C   UNL     1      43.646 -21.804   1.669  1.00  0.00     0.001 A 
HETATM   21  C   UNL     1      43.571 -20.410   1.606  1.00  0.00     0.009 A 
ENDBRANCH  11  16
ENDBRANCH   6  11
BRANCH   1  22
HETATM   22  C   UNL     1      41.431 -16.886   1.934  1.00  0.00     0.310 C 
HETATM   23  O   UNL     1      40.952 -17.877   1.393  1.00  0.00    -0.258 OA
BRANCH  22  24
HETATM   24  O   UNL     1      41.461 -15.624   1.446  1.00  0.00    -0.317 OA
BRANCH  24  25
HETATM   25  C   UNL     1      40.242 -15.139   0.862  1.00  0.00     0.175 C 
HETATM   26  C   UNL     1      39.196 -14.956   1.946  1.00  0.00     0.034 C 
ENDBRANCH  24  25
ENDBRANCH  22  24
ENDBRANCH   1  22
TORSDOF 6
ENDMDL
MODEL 5
REMARK VINA RESULT:      -6.8      2.409      4.559
REMARK  6 active torsions:
REMARK  status: ('A' for Active; 'I' for Inactive)
REMARK    1  A    between atoms: C_2  and  O_3 
REMARK    2  A    between atoms: O_3  and  C_4 
REMARK    3  A    between atoms: C_4  and  C_5 
REMARK    4  A    between atoms: C_10  and  C_11 
REMARK    5  A    between atoms: C_11  and  N_12 
REMARK    6  A    between atoms: C_11  and  C_16 
ROOT
HETATM    1  C   UNL     1      41.521 -17.224   2.544  1.00  0.00     0.118 A 
HETATM    2  N   UNL     1      42.034 -18.181   1.709  1.00  0.00    -0.350 N 
HETATM    3  H   UNL     1      41.828 -18.258   0.720  1.00  0.00     0.166 HD
HETATM    4  C   UNL     1      42.933 -18.969   2.379  1.00  0.00     0.043 A 
HETATM    5  C   UNL     1      42.938 -18.563   3.717  1.00  0.00     0.002 A 
HETATM    6  C   UNL     1      41.994 -17.477   3.840  1.00  0.00     0.022 A 
HETATM    7  C   UNL     1      43.729 -20.010   1.885  1.00  0.00     0.030 A 
HETATM    8  C   UNL     1      44.573 -20.667   2.780  1.00  0.00     0.002 A 
HETATM    9  C   UNL     1      44.612 -20.296   4.117  1.00  0.00     0.001 A 
HETATM   10  C   UNL     1      43.804 -19.256   4.595  1.00  0.00     0.014 A 
ENDROOT
BRANCH   6  11
HETATM   11  C   UNL     1      41.550 -16.660   5.034  1.00  0.00     0.252 C 
BRANCH  11  12
HETATM   12  N   UNL     1      40.293 -15.941   4.737  1.00  0.00    -0.067 N 
HETATM   13  H   UNL     1      40.305 -14.998   5.135  1.00  0.00     0.275 HD
HETATM   14  H   UNL     1      40.119 -15.906   3.730  1.00  0.00     0.275 HD
HETATM   15  H   UNL     1      39.523 -16.463   5.188  1.00  0.00     0.275 HD
ENDBRANCH  11  12
BRANCH  11  16
HETATM   16  C   UNL     1      42.668 -15.796   5.564  1.00  0.00    -0.024 A 
HETATM   17  C   UNL     1      43.286 -16.158   6.780  1.00  0.00     0.009 A 
HETATM   18  C   UNL     1      44.293 -15.369   7.338  1.00  0.00     0.001 A 
HETATM   19  C   UNL     1      44.700 -14.205   6.696  1.00  0.00     0.000 A 
HETATM   20  C   UNL     1      44.104 -13.828   5.494  1.00  0.00     0.001 A 
HETATM   21  C   UNL     1      43.095 -14.615   4.930  1.00  0.00     0.009 A 
ENDBRANCH  11  16
ENDBRANCH   6  11
BRANCH   1  22
HETATM   22  C   UNL     1      40.659 -16.147   2.115  1.00  0.00     0.310 C 
HETATM   23  O   UNL     1      39.446 -16.284   1.994  1.00  0.00    -0.258 OA
BRANCH  22  24
HETATM   24  O   UNL     1      41.380 -15.025   1.891  1.00  0.00    -0.317 OA
BRANCH  24  25
HETATM   25  C   UNL     1      40.979 -14.225   0.766  1.00  0.00     0.175 C 
HETATM   26  C   UNL     1      41.397 -14.912  -0.521  1.00  0.00     0.034 C 
ENDBRANCH  24  25
ENDBRANCH  22  24
ENDBRANCH   1  22
TORSDOF 6
ENDMDL
MODEL 6
REMARK VINA RESULT:      -6.8      2.991      5.803
REMARK  6 active torsions:
REMARK  status: ('A' for Active; 'I' for Inactive)
REMARK    1  A    between atoms: C_2  and  O_3 
REMARK    2  A    between atoms: O_3  and  C_4 
REMARK    3  A    between atoms: C_4  and  C_5 
REMARK    4  A    between atoms: C_10  and  C_11 
REMARK    5  A    between atoms: C_11  and  N_12 
REMARK    6  A    between atoms: C_11  and  C_16 
ROOT
HETATM    1  C   UNL     1      41.563 -14.222   1.286  1.00  0.00     0.118 A 
HETATM    2  N   UNL     1      41.812 -13.225   0.380  1.00  0.00    -0.350 N 
HETATM    3  H   UNL     1      42.124 -12.291   0.618  1.00  0.00     0.166 HD
HETATM    4  C   UNL     1      41.663 -13.693  -0.900  1.00  0.00     0.043 A 
HETATM    5  C   UNL     1      41.219 -15.016  -0.819  1.00  0.00     0.002 A 
HETATM    6  C   UNL     1      41.102 -15.345   0.583  1.00  0.00     0.022 A 
HETATM    7  C   UNL     1      41.889 -13.027  -2.111  1.00  0.00     0.030 A 
HETATM    8  C   UNL     1      41.662 -13.730  -3.294  1.00  0.00     0.002 A 
HETATM    9  C   UNL     1      41.221 -15.045  -3.261  1.00  0.00     0.001 A 
HETATM   10  C   UNL     1      40.995 -15.694  -2.039  1.00  0.00     0.014 A 
ENDROOT
BRANCH   6  11
HETATM   11  C   UNL     1      40.645 -16.605   1.286  1.00  0.00     0.252 C 
BRANCH  11  12
HETATM   12  N   UNL     1      39.458 -16.334   2.125  1.00  0.00    -0.067 N 
HETATM   13  H   UNL     1      39.500 -16.858   3.003  1.00  0.00     0.275 HD
HETATM   14  H   UNL     1      39.357 -15.333   2.307  1.00  0.00     0.275 HD
HETATM   15  H   UNL     1      38.628 -16.661   1.602  1.00  0.00     0.275 HD
ENDBRANCH  11  12
BRANCH  11  16
HETATM   16  C   UNL     1      41.786 -17.289   1.999  1.00  0.00    -0.024 A 
HETATM   17  C   UNL     1      42.935 -17.638   1.258  1.00  0.00     0.009 A 
HETATM   18  C   UNL     1      43.999 -18.314   1.858  1.00  0.00     0.001 A 
HETATM   19  C   UNL     1      43.936 -18.654   3.205  1.00  0.00     0.000 A 
HETATM   20  C   UNL     1      42.811 -18.317   3.956  1.00  0.00     0.001 A 
HETATM   21  C   UNL     1      41.742 -17.641   3.361  1.00  0.00     0.009 A 
ENDBRANCH  11  16
ENDBRANCH   6  11
BRANCH   1  22
HETATM   22  C   UNL     1      41.772 -14.098   2.710  1.00  0.00     0.310 C 
HETATM   23  O   UNL     1      40.852 -13.897   3.494  1.00  0.00    -0.258 OA
BRANCH  22  24
HETATM   24  O   UNL     1      43.083 -14.244   3.009  1.00  0.00    -0.317 OA
BRANCH  24  25
HETATM   25  C   UNL     1      43.500 -13.758   4.296  1.00  0.00     0.175 C 
HETATM   26  C   UNL     1      43.562 -14.912   5.279  1.00  0.00     0.034 C 
ENDBRANCH  24  25
ENDBRANCH  22  24
ENDBRANCH   1  22
TORSDOF 6
ENDMDL
MODEL 7
REMARK VINA RESULT:      -6.7      2.368      4.212
REMARK  6 active torsions:
REMARK  status: ('A' for Active; 'I' for Inactive)
REMARK    1  A    between atoms: C_2  and  O_3 
REMARK    2  A    between atoms: O_3  and  C_4 
REMARK    3  A    between atoms: C_4  and  C_5 
REMARK    4  A    between atoms: C_10  and  C_11 
REMARK    5  A    between atoms: C_11  and  N_12 
REMARK    6  A    between atoms: C_11  and  C_16 
ROOT
HETATM    1  C   UNL     1      43.687 -17.891   2.599  1.00  0.00     0.118 A 
HETATM    2  N   UNL     1      43.545 -19.004   1.813  1.00  0.00    -0.350 N 
HETATM    3  H   UNL     1      43.254 -18.995   0.843  1.00  0.00     0.166 HD
HETATM    4  C   UNL     1      43.936 -20.127   2.496  1.00  0.00     0.043 A 
HETATM    5  C   UNL     1      44.261 -19.738   3.799  1.00  0.00     0.002 A 
HETATM    6  C   UNL     1      44.052 -18.312   3.887  1.00  0.00     0.022 A 
HETATM    7  C   UNL     1      44.015 -21.449   2.042  1.00  0.00     0.030 A 
HETATM    8  C   UNL     1      44.446 -22.423   2.942  1.00  0.00     0.002 A 
HETATM    9  C   UNL     1      44.780 -22.083   4.245  1.00  0.00     0.001 A 
HETATM   10  C   UNL     1      44.690 -20.754   4.684  1.00  0.00     0.014 A 
ENDROOT
BRANCH   6  11
HETATM   11  C   UNL     1      44.206 -17.341   5.038  1.00  0.00     0.252 C 
BRANCH  11  12
HETATM   12  N   UNL     1      44.949 -17.965   6.153  1.00  0.00    -0.067 N 
HETATM   13  H   UNL     1      45.610 -17.305   6.571  1.00  0.00     0.275 HD
HETATM   14  H   UNL     1      44.310 -18.333   6.861  1.00  0.00     0.275 HD
HETATM   15  H   UNL     1      45.496 -18.751   5.760  1.00  0.00     0.275 HD
ENDBRANCH  11  12
BRANCH  11  16
HETATM   16  C   UNL     1      42.885 -16.721   5.422  1.00  0.00    -0.024 A 
HETATM   17  C   UNL     1      41.793 -17.570   5.702  1.00  0.00     0.009 A 
HETATM   18  C   UNL     1      40.538 -17.047   6.016  1.00  0.00     0.001 A 
HETATM   19  C   UNL     1      40.348 -15.670   6.056  1.00  0.00     0.000 A 
HETATM   20  C   UNL     1      41.412 -14.813   5.784  1.00  0.00     0.001 A 
HETATM   21  C   UNL     1      42.672 -15.330   5.468  1.00  0.00     0.009 A 
ENDBRANCH  11  16
ENDBRANCH   6  11
BRANCH   1  22
HETATM   22  C   UNL     1      43.500 -16.537   2.134  1.00  0.00     0.310 C 
HETATM   23  O   UNL     1      44.302 -15.642   2.377  1.00  0.00    -0.258 OA
BRANCH  22  24
HETATM   24  O   UNL     1      42.355 -16.437   1.420  1.00  0.00    -0.317 OA
BRANCH  24  25
HETATM   25  C   UNL     1      41.231 -15.854   2.100  1.00  0.00     0.175 C 
HETATM   26  C   UNL     1      40.131 -16.891   2.244  1.00  0.00     0.034 C 
ENDBRANCH  24  25
ENDBRANCH  22  24
ENDBRANCH   1  22
TORSDOF 6
ENDMDL
MODEL 8
REMARK VINA RESULT:      -6.5      2.177      3.396
REMARK  6 active torsions:
REMARK  status: ('A' for Active; 'I' for Inactive)
REMARK    1  A    between atoms: C_2  and  O_3 
REMARK    2  A    between atoms: O_3  and  C_4 
REMARK    3  A    between atoms: C_4  and  C_5 
REMARK    4  A    between atoms: C_10  and  C_11 
REMARK    5  A    between atoms: C_11  and  N_12 
REMARK    6  A    between atoms: C_11  and  C_16 
ROOT
HETATM    1  C   UNL     1      43.427 -17.554   5.867  1.00  0.00     0.118 A 
HETATM    2  N   UNL     1      44.172 -18.063   4.836  1.00  0.00    -0.350 N 
HETATM    3  H   UNL     1      45.054 -18.550   4.944  1.00  0.00     0.166 HD
HETATM    4  C   UNL     1      43.515 -17.900   3.644  1.00  0.00     0.043 A 
HETATM    5  C   UNL     1      42.343 -17.183   3.900  1.00  0.00     0.002 A 
HETATM    6  C   UNL     1      42.307 -16.911   5.318  1.00  0.00     0.022 A 
HETATM    7  C   UNL     1      43.889 -18.337   2.367  1.00  0.00     0.030 A 
HETATM    8  C   UNL     1      43.040 -18.042   1.302  1.00  0.00     0.002 A 
HETATM    9  C   UNL     1      41.865 -17.332   1.510  1.00  0.00     0.001 A 
HETATM   10  C   UNL     1      41.509 -16.898   2.794  1.00  0.00     0.014 A 
ENDROOT
BRANCH   6  11
HETATM   11  C   UNL     1      41.313 -16.155   6.173  1.00  0.00     0.252 C 
BRANCH  11  12
HETATM   12  N   UNL     1      40.057 -16.921   6.315  1.00  0.00    -0.067 N 
HETATM   13  H   UNL     1      39.978 -17.330   7.250  1.00  0.00     0.275 HD
HETATM   14  H   UNL     1      39.244 -16.337   6.107  1.00  0.00     0.275 HD
HETATM   15  H   UNL     1      40.089 -17.699   5.633  1.00  0.00     0.275 HD
ENDBRANCH  11  12
BRANCH  11  16
HETATM   16  C   UNL     1      41.141 -14.732   5.701  1.00  0.00    -0.024 A 
HETATM   17  C   UNL     1      39.861 -14.304   5.291  1.00  0.00     0.009 A 
HETATM   18  C   UNL     1      39.657 -13.013   4.802  1.00  0.00     0.001 A 
HETATM   19  C   UNL     1      40.724 -12.127   4.712  1.00  0.00     0.000 A 
HETATM   20  C   UNL     1      41.997 -12.528   5.113  1.00  0.00     0.001 A 
HETATM   21  C   UNL     1      42.208 -13.820   5.603  1.00  0.00     0.009 A 
ENDBRANCH  11  16
ENDBRANCH   6  11
BRANCH   1  22
HETATM   22  C   UNL     1      43.767 -17.694   7.263  1.00  0.00     0.310 C 
HETATM   23  O   UNL     1      43.462 -16.853   8.102  1.00  0.00    -0.258 OA
BRANCH  22  24
HETATM   24  O   UNL     1      44.435 -18.851   7.473  1.00  0.00    -0.317 OA
BRANCH  24  25
HETATM   25  C   UNL     1      43.633 -20.002   7.782  1.00  0.00     0.175 C 
HETATM   26  C   UNL     1      43.886 -21.090   6.755  1.00  0.00     0.034 C 
ENDBRANCH  24  25
ENDBRANCH  22  24
ENDBRANCH   1  22
TORSDOF 6
ENDMDL
MODEL 9
REMARK VINA RESULT:      -6.5      2.260      5.213
REMARK  6 active torsions:
REMARK  status: ('A' for Active; 'I' for Inactive)
REMARK    1  A    between atoms: C_2  and  O_3 
REMARK    2  A    between atoms: O_3  and  C_4 
REMARK    3  A    between atoms: C_4  and  C_5 
REMARK    4  A    between atoms: C_10  and  C_11 
REMARK    5  A    between atoms: C_11  and  N_12 
REMARK    6  A    between atoms: C_11  and  C_16 
ROOT
HETATM    1  C   UNL     1      42.701 -18.218   2.306  1.00  0.00     0.118 A 
HETATM    2  N   UNL     1      42.665 -17.598   1.085  1.00  0.00    -0.350 N 
HETATM    3  H   UNL     1      43.176 -17.904   0.265  1.00  0.00     0.166 HD
HETATM    4  C   UNL     1      41.773 -16.558   1.101  1.00  0.00     0.043 A 
HETATM    5  C   UNL     1      41.277 -16.445   2.403  1.00  0.00     0.002 A 
HETATM    6  C   UNL     1      41.909 -17.474   3.194  1.00  0.00     0.022 A 
HETATM    7  C   UNL     1      41.385 -15.716   0.051  1.00  0.00     0.030 A 
HETATM    8  C   UNL     1      40.450 -14.719   0.326  1.00  0.00     0.002 A 
HETATM    9  C   UNL     1      39.930 -14.571   1.605  1.00  0.00     0.001 A 
HETATM   10  C   UNL     1      40.334 -15.419   2.645  1.00  0.00     0.014 A 
ENDROOT
BRANCH   6  11
HETATM   11  C   UNL     1      41.797 -17.827   4.662  1.00  0.00     0.252 C 
BRANCH  11  12
HETATM   12  N   UNL     1      40.380 -17.908   5.073  1.00  0.00    -0.067 N 
HETATM   13  H   UNL     1      40.233 -17.456   5.980  1.00  0.00     0.275 HD
HETATM   14  H   UNL     1      39.767 -17.500   4.364  1.00  0.00     0.275 HD
HETATM   15  H   UNL     1      40.143 -18.909   5.179  1.00  0.00     0.275 HD
ENDBRANCH  11  12
BRANCH  11  16
HETATM   16  C   UNL     1      42.659 -16.931   5.517  1.00  0.00    -0.024 A 
HETATM   17  C   UNL     1      42.855 -17.272   6.872  1.00  0.00     0.009 A 
HETATM   18  C   UNL     1      43.604 -16.453   7.718  1.00  0.00     0.001 A 
HETATM   19  C   UNL     1      44.169 -15.280   7.230  1.00  0.00     0.000 A 
HETATM   20  C   UNL     1      43.989 -14.925   5.895  1.00  0.00     0.001 A 
HETATM   21  C   UNL     1      43.239 -15.740   5.042  1.00  0.00     0.009 A 
ENDBRANCH  11  16
ENDBRANCH   6  11
BRANCH   1  22
HETATM   22  C   UNL     1      43.428 -19.435   2.580  1.00  0.00     0.310 C 
HETATM   23  O   UNL     1      43.158 -20.499   2.035  1.00  0.00    -0.258 OA
BRANCH  22  24
HETATM   24  O   UNL     1      44.406 -19.207   3.486  1.00  0.00    -0.317 OA
BRANCH  24  25
HETATM   25  C   UNL     1      44.933 -20.362   4.158  1.00  0.00     0.175 C 
HETATM   26  C   UNL     1      44.430 -20.392   5.590  1.00  0.00     0.034 C 
ENDBRANCH  24  25
ENDBRANCH  22  24
ENDBRANCH   1  22
TORSDOF 6
ENDMDL
MODEL 10
REMARK VINA RESULT:      -6.5      1.771      4.865
REMARK  6 active torsions:
REMARK  status: ('A' for Active; 'I' for Inactive)
REMARK    1  A    between atoms: C_2  and  O_3 
REMARK    2  A    between atoms: O_3  and  C_4 
REMARK    3  A    between atoms: C_4  and  C_5 
REMARK    4  A    between atoms: C_10  and  C_11 
REMARK    5  A    between atoms: C_11  and  N_12 
REMARK    6  A    between atoms: C_11  and  C_16 
ROOT
HETATM    1  C   UNL     1      41.986 -14.634   3.610  1.00  0.00     0.118 A 
HETATM    2  N   UNL     1      42.084 -13.544   2.785  1.00  0.00    -0.350 N 
HETATM    3  H   UNL     1      42.364 -12.617   3.082  1.00  0.00     0.166 HD
HETATM    4  C   UNL     1      41.835 -13.902   1.486  1.00  0.00     0.043 A 
HETATM    5  C   UNL     1      41.479 -15.254   1.480  1.00  0.00     0.002 A 
HETATM    6  C   UNL     1      41.522 -15.716   2.847  1.00  0.00     0.022 A 
HETATM    7  C   UNL     1      41.899 -13.116   0.330  1.00  0.00     0.030 A 
HETATM    8  C   UNL     1      41.596 -13.721  -0.889  1.00  0.00     0.002 A 
HETATM    9  C   UNL     1      41.238 -15.061  -0.943  1.00  0.00     0.001 A 
HETATM   10  C   UNL     1      41.174 -15.832   0.226  1.00  0.00     0.014 A 
ENDROOT
BRANCH   6  11
HETATM   11  C   UNL     1      41.213 -17.063   3.465  1.00  0.00     0.252 C 
BRANCH  11  12
HETATM   12  N   UNL     1      40.704 -16.901   4.844  1.00  0.00    -0.067 N 
HETATM   13  H   UNL     1      40.677 -15.914   5.113  1.00  0.00     0.275 HD
HETATM   14  H   UNL     1      39.782 -17.328   4.948  1.00  0.00     0.275 HD
HETATM   15  H   UNL     1      41.365 -17.382   5.477  1.00  0.00     0.275 HD
ENDBRANCH  11  12
BRANCH  11  16
HETATM   16  C   UNL     1      42.370 -18.020   3.322  1.00  0.00    -0.024 A 
HETATM   17  C   UNL     1      42.595 -18.628   2.068  1.00  0.00     0.009 A 
HETATM   18  C   UNL     1      43.623 -19.556   1.893  1.00  0.00     0.001 A 
HETATM   19  C   UNL     1      44.442 -19.896   2.964  1.00  0.00     0.000 A 
HETATM   20  C   UNL     1      44.239 -19.308   4.210  1.00  0.00     0.001 A 
HETATM   21  C   UNL     1      43.211 -18.377   4.392  1.00  0.00     0.009 A 
ENDBRANCH  11  16
ENDBRANCH   6  11
BRANCH   1  22
HETATM   22  C   UNL     1      42.330 -14.626   5.013  1.00  0.00     0.310 C 
HETATM   23  O   UNL     1      41.562 -14.214   5.875  1.00  0.00    -0.258 OA
BRANCH  22  24
HETATM   24  O   UNL     1      43.570 -15.132   5.198  1.00  0.00    -0.317 OA
BRANCH  24  25
HETATM   25  C   UNL     1      43.991 -15.303   6.561  1.00  0.00     0.175 C 
HETATM   26  C   UNL     1      44.931 -14.177   6.949  1.00  0.00     0.034 C 
ENDBRANCH  24  25
ENDBRANCH  22  24
ENDBRANCH   1  22
TORSDOF 6
ENDMDL
