MODEL 1
REMARK VINA RESULT:      -9.7      0.000      0.000
REMARK  5 active torsions:
REMARK  status: ('A' for Active; 'I' for Inactive)
REMARK    1  A    between atoms: C_5  and  C_6 
REMARK    2  A    between atoms: C_11  and  C_12 
REMARK       I    between atoms: C_12  and  N_13 
REMARK    3  A    between atoms: N_13  and  C_14 
REMARK    4  A    between atoms: C_16  and  O_17 
REMARK    5  A    between atoms: C_23  and  C_24 
ROOT
HETATM    1  C   UNL     1      42.822 -17.114   3.345  1.00  0.00     0.118 C 
HETATM    2  N   UNL     1      42.807 -16.850   4.784  1.00  0.00    -0.366 N 
HETATM    3  C   UNL     1      43.249 -15.694   5.317  1.00  0.00     0.123 A 
HETATM    4  N   UNL     1      43.584 -14.633   4.526  1.00  0.00    -0.240 N 
HETATM    5  N   UNL     1      44.157 -13.612   5.188  1.00  0.00    -0.165 NA
HETATM    6  C   UNL     1      44.058 -13.993   6.485  1.00  0.00     0.148 A 
HETATM    7  C   UNL     1      43.477 -15.287   6.603  1.00  0.00     0.089 A 
HETATM    8  C   UNL     1      43.454 -14.650   3.082  1.00  0.00     0.221 C 
HETATM    9  C   UNL     1      43.681 -16.083   2.580  1.00  0.00     0.066 C 
HETATM   10  H   UNL     1      42.546 -17.642   5.371  1.00  0.00     0.161 HD
ENDROOT
BRANCH   6  11
HETATM   11  C   UNL     1      44.548 -13.145   7.587  1.00  0.00     0.276 C 
HETATM   12  N   UNL     1      43.511 -12.505   8.238  1.00  0.00    -0.322 N 
HETATM   13  H   UNL     1      42.598 -12.710   7.839  1.00  0.00     0.169 HD
HETATM   14  O   UNL     1      45.744 -13.039   7.833  1.00  0.00    -0.266 OA
BRANCH  12  15
HETATM   15  C   UNL     1      43.576 -11.615   9.323  1.00  0.00     0.037 A 
HETATM   16  C   UNL     1      42.648 -10.596   9.546  1.00  0.00     0.066 A 
HETATM   17  C   UNL     1      42.797  -9.752  10.646  1.00  0.00     0.067 A 
HETATM   18  C   UNL     1      43.853  -9.912  11.535  1.00  0.00     0.036 A 
HETATM   19  C   UNL     1      44.780 -10.928  11.321  1.00  0.00     0.005 A 
HETATM   20  C   UNL     1      44.645 -11.773  10.216  1.00  0.00     0.029 A 
BRANCH  17  21
HETATM   21  O   UNL     1      41.916  -8.738  10.884  1.00  0.00    -0.361 OA
HETATM   22  H   UNL     1      41.170  -9.095  11.395  1.00  0.00     0.217 HD
ENDBRANCH  17  21
ENDBRANCH  12  15
ENDBRANCH   6  11
BRANCH   8  23
HETATM   23  C   UNL     1      42.109 -14.091   2.678  1.00  0.00     0.409 C 
HETATM   24  F   UNL     1      41.187 -14.212   3.658  1.00  0.00    -0.169 F 
HETATM   25  F   UNL     1      42.226 -12.762   2.420  1.00  0.00    -0.169 F 
HETATM   26  F   UNL     1      41.603 -14.656   1.562  1.00  0.00    -0.169 F 
ENDBRANCH   8  23
BRANCH   1  27
HETATM   27  C   UNL     1      43.340 -18.523   3.111  1.00  0.00    -0.035 A 
HETATM   28  C   UNL     1      44.244 -19.110   4.007  1.00  0.00     0.010 A 
HETATM   29  C   UNL     1      44.714 -20.410   3.791  1.00  0.00     0.007 A 
HETATM   30  C   UNL     1      44.299 -21.144   2.675  1.00  0.00    -0.062 A 
HETATM   31  C   UNL     1      44.775 -22.550   2.457  1.00  0.00     0.048 C 
HETATM   32  C   UNL     1      43.388 -20.567   1.785  1.00  0.00     0.007 A 
HETATM   33  C   UNL     1      42.921 -19.270   1.996  1.00  0.00     0.010 A 
ENDBRANCH   1  27
TORSDOF 5
ENDMDL
MODEL 2
REMARK VINA RESULT:      -9.6      5.340      8.600
REMARK  5 active torsions:
REMARK  status: ('A' for Active; 'I' for Inactive)
REMARK    1  A    between atoms: C_5  and  C_6 
REMARK    2  A    between atoms: C_11  and  C_12 
REMARK       I    between atoms: C_12  and  N_13 
REMARK    3  A    between atoms: N_13  and  C_14 
REMARK    4  A    between atoms: C_16  and  O_17 
REMARK    5  A    between atoms: C_23  and  C_24 
ROOT
HETATM    1  C   UNL     1      42.955 -17.140   3.545  1.00  0.00     0.118 C 
HETATM    2  N   UNL     1      42.596 -16.584   2.241  1.00  0.00    -0.366 N 
HETATM    3  C   UNL     1      41.462 -15.885   2.035  1.00  0.00     0.123 A 
HETATM    4  N   UNL     1      40.663 -15.511   3.076  1.00  0.00    -0.240 N 
HETATM    5  N   UNL     1      39.493 -14.962   2.702  1.00  0.00    -0.165 NA
HETATM    6  C   UNL     1      39.617 -14.862   1.356  1.00  0.00     0.148 A 
HETATM    7  C   UNL     1      40.848 -15.415   0.906  1.00  0.00     0.089 A 
HETATM    8  C   UNL     1      40.982 -15.795   4.461  1.00  0.00     0.221 C 
HETATM    9  C   UNL     1      41.765 -17.113   4.529  1.00  0.00     0.066 C 
HETATM   10  H   UNL     1      43.202 -16.857   1.467  1.00  0.00     0.161 HD
ENDROOT
BRANCH   6  11
HETATM   11  C   UNL     1      38.555 -14.279   0.515  1.00  0.00     0.276 C 
HETATM   12  N   UNL     1      38.912 -14.260  -0.819  1.00  0.00    -0.322 N 
HETATM   13  H   UNL     1      39.845 -14.630  -0.991  1.00  0.00     0.169 HD
HETATM   14  O   UNL     1      37.513 -13.854   1.001  1.00  0.00    -0.266 OA
BRANCH  12  15
HETATM   15  C   UNL     1      38.178 -13.779  -1.914  1.00  0.00     0.037 A 
HETATM   16  C   UNL     1      37.741 -14.584  -2.969  1.00  0.00     0.066 A 
HETATM   17  C   UNL     1      37.024 -14.017  -4.021  1.00  0.00     0.067 A 
HETATM   18  C   UNL     1      36.725 -12.660  -4.039  1.00  0.00     0.036 A 
HETATM   19  C   UNL     1      37.155 -11.852  -2.989  1.00  0.00     0.005 A 
HETATM   20  C   UNL     1      37.883 -12.408  -1.934  1.00  0.00     0.029 A 
BRANCH  17  21
HETATM   21  O   UNL     1      36.595 -14.774  -5.073  1.00  0.00    -0.361 OA
HETATM   22  H   UNL     1      35.993 -15.456  -4.733  1.00  0.00     0.217 HD
ENDBRANCH  17  21
ENDBRANCH  12  15
ENDBRANCH   6  11
BRANCH   8  23
HETATM   23  C   UNL     1      41.735 -14.632   5.066  1.00  0.00     0.409 C 
HETATM   24  F   UNL     1      42.372 -13.891   4.133  1.00  0.00    -0.169 F 
HETATM   25  F   UNL     1      40.862 -13.799   5.690  1.00  0.00    -0.169 F 
HETATM   26  F   UNL     1      42.644 -15.000   5.992  1.00  0.00    -0.169 F 
ENDBRANCH   8  23
BRANCH   1  27
HETATM   27  C   UNL     1      43.459 -18.560   3.351  1.00  0.00    -0.035 A 
HETATM   28  C   UNL     1      44.211 -19.194   4.349  1.00  0.00     0.010 A 
HETATM   29  C   UNL     1      44.669 -20.504   4.170  1.00  0.00     0.007 A 
HETATM   30  C   UNL     1      44.394 -21.201   2.988  1.00  0.00    -0.062 A 
HETATM   31  C   UNL     1      44.855 -22.616   2.804  1.00  0.00     0.048 C 
HETATM   32  C   UNL     1      43.636 -20.576   1.993  1.00  0.00     0.007 A 
HETATM   33  C   UNL     1      43.181 -19.270   2.170  1.00  0.00     0.010 A 
ENDBRANCH   1  27
TORSDOF 5
ENDMDL
MODEL 3
REMARK VINA RESULT:      -9.1      3.047      3.459
REMARK  5 active torsions:
REMARK  status: ('A' for Active; 'I' for Inactive)
REMARK    1  A    between atoms: C_5  and  C_6 
REMARK    2  A    between atoms: C_11  and  C_12 
REMARK       I    between atoms: C_12  and  N_13 
REMARK    3  A    between atoms: N_13  and  C_14 
REMARK    4  A    between atoms: C_16  and  O_17 
REMARK    5  A    between atoms: C_23  and  C_24 
ROOT
HETATM    1  C   UNL     1      41.283 -16.761   2.919  1.00  0.00     0.118 C 
HETATM    2  N   UNL     1      40.596 -16.322   4.133  1.00  0.00    -0.366 N 
HETATM    3  C   UNL     1      40.330 -15.026   4.390  1.00  0.00     0.123 A 
HETATM    4  N   UNL     1      40.538 -14.060   3.448  1.00  0.00    -0.240 N 
HETATM    5  N   UNL     1      40.379 -12.804   3.902  1.00  0.00    -0.165 NA
HETATM    6  C   UNL     1      39.916 -12.990   5.163  1.00  0.00     0.148 A 
HETATM    7  C   UNL     1      39.857 -14.372   5.495  1.00  0.00     0.089 A 
HETATM    8  C   UNL     1      41.014 -14.350   2.110  1.00  0.00     0.221 C 
HETATM    9  C   UNL     1      41.931 -15.580   2.164  1.00  0.00     0.066 C 
HETATM   10  H   UNL     1      40.432 -17.047   4.831  1.00  0.00     0.161 HD
ENDROOT
BRANCH   6  11
HETATM   11  C   UNL     1      39.575 -11.857   6.043  1.00  0.00     0.276 C 
HETATM   12  N   UNL     1      40.287 -11.898   7.226  1.00  0.00    -0.322 N 
HETATM   13  H   UNL     1      40.906 -12.703   7.296  1.00  0.00     0.169 HD
HETATM   14  O   UNL     1      38.732 -11.026   5.723  1.00  0.00    -0.266 OA
BRANCH  12  15
HETATM   15  C   UNL     1      40.232 -11.007   8.311  1.00  0.00     0.037 A 
HETATM   16  C   UNL     1      39.095 -10.814   9.098  1.00  0.00     0.066 A 
HETATM   17  C   UNL     1      39.130  -9.901  10.151  1.00  0.00     0.067 A 
HETATM   18  C   UNL     1      40.283  -9.181  10.440  1.00  0.00     0.036 A 
HETATM   19  C   UNL     1      41.421  -9.371   9.661  1.00  0.00     0.005 A 
HETATM   20  C   UNL     1      41.394 -10.277   8.597  1.00  0.00     0.029 A 
BRANCH  17  21
HETATM   21  O   UNL     1      38.032  -9.678  10.930  1.00  0.00    -0.361 OA
HETATM   22  H   UNL     1      37.339  -9.280  10.377  1.00  0.00     0.217 HD
ENDBRANCH  17  21
ENDBRANCH  12  15
ENDBRANCH   6  11
BRANCH   8  23
HETATM   23  C   UNL     1      39.842 -14.533   1.173  1.00  0.00     0.409 C 
HETATM   24  F   UNL     1      39.401 -13.360   0.666  1.00  0.00    -0.169 F 
HETATM   25  F   UNL     1      40.220 -15.293   0.112  1.00  0.00    -0.169 F 
HETATM   26  F   UNL     1      38.790 -15.160   1.739  1.00  0.00    -0.169 F 
ENDBRANCH   8  23
BRANCH   1  27
HETATM   27  C   UNL     1      42.328 -17.798   3.295  1.00  0.00    -0.035 A 
HETATM   28  C   UNL     1      42.685 -17.999   4.635  1.00  0.00     0.010 A 
HETATM   29  C   UNL     1      43.644 -18.958   4.979  1.00  0.00     0.007 A 
HETATM   30  C   UNL     1      44.270 -19.727   3.992  1.00  0.00    -0.062 A 
HETATM   31  C   UNL     1      45.275 -20.779   4.357  1.00  0.00     0.048 C 
HETATM   32  C   UNL     1      43.910 -19.537   2.654  1.00  0.00     0.007 A 
HETATM   33  C   UNL     1      42.956 -18.579   2.310  1.00  0.00     0.010 A 
ENDBRANCH   1  27
TORSDOF 5
ENDMDL
MODEL 4
REMARK VINA RESULT:      -9.1      2.738      3.062
REMARK  5 active torsions:
REMARK  status: ('A' for Active; 'I' for Inactive)
REMARK    1  A    between atoms: C_5  and  C_6 
REMARK    2  A    between atoms: C_11  and  C_12 
REMARK       I    between atoms: C_12  and  N_13 
REMARK    3  A    between atoms: N_13  and  C_14 
REMARK    4  A    between atoms: C_16  and  O_17 
REMARK    5  A    between atoms: C_23  and  C_24 
ROOT
HETATM    1  C   UNL     1      42.453 -17.765   2.569  1.00  0.00     0.118 C 
HETATM    2  N   UNL     1      41.686 -17.090   3.616  1.00  0.00    -0.366 N 
HETATM    3  C   UNL     1      41.615 -15.748   3.714  1.00  0.00     0.123 A 
HETATM    4  N   UNL     1      42.120 -14.938   2.738  1.00  0.00    -0.240 N 
HETATM    5  N   UNL     1      42.118 -13.631   3.051  1.00  0.00    -0.165 NA
HETATM    6  C   UNL     1      41.455 -13.599   4.233  1.00  0.00     0.148 A 
HETATM    7  C   UNL     1      41.109 -14.908   4.669  1.00  0.00     0.089 A 
HETATM    8  C   UNL     1      42.726 -15.447   1.523  1.00  0.00     0.221 C 
HETATM    9  C   UNL     1      43.398 -16.793   1.829  1.00  0.00     0.066 C 
HETATM   10  H   UNL     1      41.301 -17.698   4.337  1.00  0.00     0.161 HD
ENDROOT
BRANCH   6  11
HETATM   11  C   UNL     1      41.192 -12.336   4.947  1.00  0.00     0.276 C 
HETATM   12  N   UNL     1      40.999 -12.544   6.298  1.00  0.00    -0.322 N 
HETATM   13  H   UNL     1      41.052 -13.525   6.566  1.00  0.00     0.169 HD
HETATM   14  O   UNL     1      41.136 -11.263   4.355  1.00  0.00    -0.266 OA
BRANCH  12  15
HETATM   15  C   UNL     1      40.718 -11.598   7.298  1.00  0.00     0.037 A 
HETATM   16  C   UNL     1      39.472 -11.469   7.915  1.00  0.00     0.066 A 
HETATM   17  C   UNL     1      39.282 -10.494   8.893  1.00  0.00     0.067 A 
HETATM   18  C   UNL     1      40.316  -9.648   9.275  1.00  0.00     0.036 A 
HETATM   19  C   UNL     1      41.562  -9.773   8.666  1.00  0.00     0.005 A 
HETATM   20  C   UNL     1      41.760 -10.741   7.677  1.00  0.00     0.029 A 
BRANCH  17  21
HETATM   21  O   UNL     1      38.073 -10.333   9.505  1.00  0.00    -0.361 OA
HETATM   22  H   UNL     1      37.377 -10.608   8.885  1.00  0.00     0.217 HD
ENDBRANCH  17  21
ENDBRANCH  12  15
ENDBRANCH   6  11
BRANCH   8  23
HETATM   23  C   UNL     1      41.686 -15.545   0.430  1.00  0.00     0.409 C 
HETATM   24  F   UNL     1      40.426 -15.534   0.917  1.00  0.00    -0.169 F 
HETATM   25  F   UNL     1      41.789 -14.471  -0.395  1.00  0.00    -0.169 F 
HETATM   26  F   UNL     1      41.820 -16.640  -0.347  1.00  0.00    -0.169 F 
ENDBRANCH   8  23
BRANCH   1  27
HETATM   27  C   UNL     1      43.238 -18.905   3.195  1.00  0.00    -0.035 A 
HETATM   28  C   UNL     1      43.511 -18.915   4.569  1.00  0.00     0.010 A 
HETATM   29  C   UNL     1      44.229 -19.970   5.144  1.00  0.00     0.007 A 
HETATM   30  C   UNL     1      44.695 -21.028   4.357  1.00  0.00    -0.062 A 
HETATM   31  C   UNL     1      45.437 -22.177   4.973  1.00  0.00     0.048 C 
HETATM   32  C   UNL     1      44.416 -21.029   2.987  1.00  0.00     0.007 A 
HETATM   33  C   UNL     1      43.703 -19.976   2.412  1.00  0.00     0.010 A 
ENDBRANCH   1  27
TORSDOF 5
ENDMDL
MODEL 5
REMARK VINA RESULT:      -9.0      5.474      8.779
REMARK  5 active torsions:
REMARK  status: ('A' for Active; 'I' for Inactive)
REMARK    1  A    between atoms: C_5  and  C_6 
REMARK    2  A    between atoms: C_11  and  C_12 
REMARK       I    between atoms: C_12  and  N_13 
REMARK    3  A    between atoms: N_13  and  C_14 
REMARK    4  A    between atoms: C_16  and  O_17 
REMARK    5  A    between atoms: C_23  and  C_24 
ROOT
HETATM    1  C   UNL     1      42.770 -17.069   3.262  1.00  0.00     0.118 C 
HETATM    2  N   UNL     1      42.974 -16.387   1.984  1.00  0.00    -0.366 N 
HETATM    3  C   UNL     1      42.028 -15.617   1.411  1.00  0.00     0.123 A 
HETATM    4  N   UNL     1      40.881 -15.293   2.076  1.00  0.00    -0.240 N 
HETATM    5  N   UNL     1      39.968 -14.656   1.321  1.00  0.00    -0.165 NA
HETATM    6  C   UNL     1      40.626 -14.448   0.153  1.00  0.00     0.148 A 
HETATM    7  C   UNL     1      41.927 -15.023   0.182  1.00  0.00     0.089 A 
HETATM    8  C   UNL     1      40.611 -15.709   3.437  1.00  0.00     0.221 C 
HETATM    9  C   UNL     1      41.284 -17.066   3.685  1.00  0.00     0.066 C 
HETATM   10  H   UNL     1      43.837 -16.623   1.495  1.00  0.00     0.161 HD
ENDROOT
BRANCH   6  11
HETATM   11  C   UNL     1      40.000 -13.744  -0.981  1.00  0.00     0.276 C 
HETATM   12  N   UNL     1      38.807 -14.333  -1.353  1.00  0.00    -0.322 N 
HETATM   13  H   UNL     1      38.575 -15.155  -0.798  1.00  0.00     0.169 HD
HETATM   14  O   UNL     1      40.534 -12.774  -1.508  1.00  0.00    -0.266 OA
BRANCH  12  15
HETATM   15  C   UNL     1      37.932 -13.960  -2.385  1.00  0.00     0.037 A 
HETATM   16  C   UNL     1      37.372 -12.687  -2.504  1.00  0.00     0.066 A 
HETATM   17  C   UNL     1      36.504 -12.409  -3.560  1.00  0.00     0.067 A 
HETATM   18  C   UNL     1      36.190 -13.377  -4.506  1.00  0.00     0.036 A 
HETATM   19  C   UNL     1      36.747 -14.648  -4.395  1.00  0.00     0.005 A 
HETATM   20  C   UNL     1      37.611 -14.940  -3.335  1.00  0.00     0.029 A 
BRANCH  17  21
HETATM   21  O   UNL     1      35.929 -11.178  -3.697  1.00  0.00    -0.361 OA
HETATM   22  H   UNL     1      35.440 -10.977  -2.881  1.00  0.00     0.217 HD
ENDBRANCH  17  21
ENDBRANCH  12  15
ENDBRANCH   6  11
BRANCH   8  23
HETATM   23  C   UNL     1      41.070 -14.641   4.404  1.00  0.00     0.409 C 
HETATM   24  F   UNL     1      41.608 -15.163   5.528  1.00  0.00    -0.169 F 
HETATM   25  F   UNL     1      42.041 -13.888   3.825  1.00  0.00    -0.169 F 
HETATM   26  F   UNL     1      40.092 -13.788   4.772  1.00  0.00    -0.169 F 
ENDBRANCH   8  23
BRANCH   1  27
HETATM   27  C   UNL     1      43.293 -18.490   3.148  1.00  0.00    -0.035 A 
HETATM   28  C   UNL     1      43.015 -19.265   2.013  1.00  0.00     0.010 A 
HETATM   29  C   UNL     1      43.504 -20.572   1.908  1.00  0.00     0.007 A 
HETATM   30  C   UNL     1      44.269 -21.133   2.936  1.00  0.00    -0.062 A 
HETATM   31  C   UNL     1      44.822 -22.522   2.815  1.00  0.00     0.048 C 
HETATM   32  C   UNL     1      44.558 -20.360   4.065  1.00  0.00     0.007 A 
HETATM   33  C   UNL     1      44.069 -19.058   4.173  1.00  0.00     0.010 A 
ENDBRANCH   1  27
TORSDOF 5
ENDMDL
MODEL 6
REMARK VINA RESULT:      -8.9      4.496      6.902
REMARK  5 active torsions:
REMARK  status: ('A' for Active; 'I' for Inactive)
REMARK    1  A    between atoms: C_5  and  C_6 
REMARK    2  A    between atoms: C_11  and  C_12 
REMARK       I    between atoms: C_12  and  N_13 
REMARK    3  A    between atoms: N_13  and  C_14 
REMARK    4  A    between atoms: C_16  and  O_17 
REMARK    5  A    between atoms: C_23  and  C_24 
ROOT
HETATM    1  C   UNL     1      42.756 -17.204   4.299  1.00  0.00     0.118 C 
HETATM    2  N   UNL     1      43.394 -16.083   3.608  1.00  0.00    -0.366 N 
HETATM    3  C   UNL     1      42.711 -14.994   3.203  1.00  0.00     0.123 A 
HETATM    4  N   UNL     1      41.409 -14.801   3.565  1.00  0.00    -0.240 N 
HETATM    5  N   UNL     1      40.818 -13.757   2.956  1.00  0.00    -0.165 NA
HETATM    6  C   UNL     1      41.839 -13.181   2.274  1.00  0.00     0.148 A 
HETATM    7  C   UNL     1      43.045 -13.922   2.422  1.00  0.00     0.089 A 
HETATM    8  C   UNL     1      40.684 -15.710   4.429  1.00  0.00     0.221 C 
HETATM    9  C   UNL     1      41.216 -17.134   4.209  1.00  0.00     0.066 C 
HETATM   10  H   UNL     1      44.370 -16.227   3.349  1.00  0.00     0.161 HD
ENDROOT
BRANCH   6  11
HETATM   11  C   UNL     1      41.648 -11.963   1.466  1.00  0.00     0.276 C 
HETATM   12  N   UNL     1      42.438 -11.973   0.333  1.00  0.00    -0.322 N 
HETATM   13  H   UNL     1      43.025 -12.802   0.259  1.00  0.00     0.169 HD
HETATM   14  O   UNL     1      40.887 -11.070   1.820  1.00  0.00    -0.266 OA
BRANCH  12  15
HETATM   15  C   UNL     1      42.542 -10.996  -0.670  1.00  0.00     0.037 A 
HETATM   16  C   UNL     1      43.225  -9.788  -0.508  1.00  0.00     0.066 A 
HETATM   17  C   UNL     1      43.269  -8.871  -1.557  1.00  0.00     0.067 A 
HETATM   18  C   UNL     1      42.649  -9.139  -2.772  1.00  0.00     0.036 A 
HETATM   19  C   UNL     1      41.969 -10.342  -2.942  1.00  0.00     0.005 A 
HETATM   20  C   UNL     1      41.911 -11.264  -1.893  1.00  0.00     0.029 A 
BRANCH  17  21
HETATM   21  O   UNL     1      43.916  -7.677  -1.426  1.00  0.00    -0.361 OA
HETATM   22  H   UNL     1      43.258  -6.994  -1.213  1.00  0.00     0.217 HD
ENDBRANCH  17  21
ENDBRANCH  12  15
ENDBRANCH   6  11
BRANCH   8  23
HETATM   23  C   UNL     1      40.796 -15.257   5.867  1.00  0.00     0.409 C 
HETATM   24  F   UNL     1      39.871 -14.326   6.185  1.00  0.00    -0.169 F 
HETATM   25  F   UNL     1      40.581 -16.312   6.695  1.00  0.00    -0.169 F 
HETATM   26  F   UNL     1      42.009 -14.761   6.184  1.00  0.00    -0.169 F 
ENDBRANCH   8  23
BRANCH   1  27
HETATM   27  C   UNL     1      43.270 -18.503   3.703  1.00  0.00    -0.035 A 
HETATM   28  C   UNL     1      44.164 -19.313   4.418  1.00  0.00     0.010 A 
HETATM   29  C   UNL     1      44.631 -20.512   3.869  1.00  0.00     0.007 A 
HETATM   30  C   UNL     1      44.223 -20.921   2.595  1.00  0.00    -0.062 A 
HETATM   31  C   UNL     1      44.696 -22.221   2.015  1.00  0.00     0.048 C 
HETATM   32  C   UNL     1      43.323 -20.122   1.882  1.00  0.00     0.007 A 
HETATM   33  C   UNL     1      42.859 -18.925   2.427  1.00  0.00     0.010 A 
ENDBRANCH   1  27
TORSDOF 5
ENDMDL
MODEL 7
REMARK VINA RESULT:      -8.8      3.149      9.210
REMARK  5 active torsions:
REMARK  status: ('A' for Active; 'I' for Inactive)
REMARK    1  A    between atoms: C_5  and  C_6 
REMARK    2  A    between atoms: C_11  and  C_12 
REMARK       I    between atoms: C_12  and  N_13 
REMARK    3  A    between atoms: N_13  and  C_14 
REMARK    4  A    between atoms: C_16  and  O_17 
REMARK    5  A    between atoms: C_23  and  C_24 
ROOT
HETATM    1  C   UNL     1      41.512 -10.948   7.461  1.00  0.00     0.118 C 
HETATM    2  N   UNL     1      42.408 -11.910   6.820  1.00  0.00    -0.366 N 
HETATM    3  C   UNL     1      41.957 -12.980   6.136  1.00  0.00     0.123 A 
HETATM    4  N   UNL     1      40.630 -13.136   5.860  1.00  0.00    -0.240 N 
HETATM    5  N   UNL     1      40.317 -14.325   5.315  1.00  0.00    -0.165 NA
HETATM    6  C   UNL     1      41.528 -14.899   5.112  1.00  0.00     0.148 A 
HETATM    7  C   UNL     1      42.580 -14.074   5.600  1.00  0.00     0.089 A 
HETATM    8  C   UNL     1      39.623 -12.164   6.237  1.00  0.00     0.221 C 
HETATM    9  C   UNL     1      40.061 -11.474   7.537  1.00  0.00     0.066 C 
HETATM   10  H   UNL     1      43.400 -11.784   7.019  1.00  0.00     0.161 HD
ENDROOT
BRANCH   6  11
HETATM   11  C   UNL     1      41.668 -16.231   4.496  1.00  0.00     0.276 C 
HETATM   12  N   UNL     1      42.985 -16.648   4.473  1.00  0.00    -0.322 N 
HETATM   13  H   UNL     1      43.630 -15.964   4.865  1.00  0.00     0.169 HD
HETATM   14  O   UNL     1      40.700 -16.837   4.051  1.00  0.00    -0.266 OA
BRANCH  12  15
HETATM   15  C   UNL     1      43.515 -17.844   3.965  1.00  0.00     0.037 A 
HETATM   16  C   UNL     1      43.992 -18.883   4.766  1.00  0.00     0.066 A 
HETATM   17  C   UNL     1      44.511 -20.033   4.172  1.00  0.00     0.067 A 
HETATM   18  C   UNL     1      44.555 -20.171   2.790  1.00  0.00     0.036 A 
HETATM   19  C   UNL     1      44.078 -19.140   1.985  1.00  0.00     0.005 A 
HETATM   20  C   UNL     1      43.565 -17.979   2.570  1.00  0.00     0.029 A 
BRANCH  17  21
HETATM   21  O   UNL     1      44.998 -21.061   4.927  1.00  0.00    -0.361 OA
HETATM   22  H   UNL     1      44.505 -21.085   5.764  1.00  0.00     0.217 HD
ENDBRANCH  17  21
ENDBRANCH  12  15
ENDBRANCH   6  11
BRANCH   8  23
HETATM   23  C   UNL     1      39.396 -11.190   5.104  1.00  0.00     0.409 C 
HETATM   24  F   UNL     1      40.464 -11.100   4.281  1.00  0.00    -0.169 F 
HETATM   25  F   UNL     1      38.356 -11.614   4.339  1.00  0.00    -0.169 F 
HETATM   26  F   UNL     1      39.087  -9.943   5.516  1.00  0.00    -0.169 F 
ENDBRANCH   8  23
BRANCH   1  27
HETATM   27  C   UNL     1      42.042 -10.634   8.850  1.00  0.00    -0.035 A 
HETATM   28  C   UNL     1      41.240  -9.971   9.788  1.00  0.00     0.010 A 
HETATM   29  C   UNL     1      41.729  -9.689  11.068  1.00  0.00     0.007 A 
HETATM   30  C   UNL     1      43.030 -10.054  11.432  1.00  0.00    -0.062 A 
HETATM   31  C   UNL     1      43.549  -9.782  12.813  1.00  0.00     0.048 C 
HETATM   32  C   UNL     1      43.831 -10.725  10.503  1.00  0.00     0.007 A 
HETATM   33  C   UNL     1      43.345 -11.004   9.225  1.00  0.00     0.010 A 
ENDBRANCH   1  27
TORSDOF 5
ENDMDL
MODEL 8
REMARK VINA RESULT:      -8.7      5.352      8.330
REMARK  5 active torsions:
REMARK  status: ('A' for Active; 'I' for Inactive)
REMARK    1  A    between atoms: C_5  and  C_6 
REMARK    2  A    between atoms: C_11  and  C_12 
REMARK       I    between atoms: C_12  and  N_13 
REMARK    3  A    between atoms: N_13  and  C_14 
REMARK    4  A    between atoms: C_16  and  O_17 
REMARK    5  A    between atoms: C_23  and  C_24 
ROOT
HETATM    1  C   UNL     1      42.974 -17.248   4.241  1.00  0.00     0.118 C 
HETATM    2  N   UNL     1      43.325 -16.806   2.891  1.00  0.00    -0.366 N 
HETATM    3  C   UNL     1      42.433 -16.234   2.058  1.00  0.00     0.123 A 
HETATM    4  N   UNL     1      41.188 -15.880   2.489  1.00  0.00    -0.240 N 
HETATM    5  N   UNL     1      40.362 -15.470   1.510  1.00  0.00    -0.165 NA
HETATM    6  C   UNL     1      41.169 -15.437   0.421  1.00  0.00     0.148 A 
HETATM    7  C   UNL     1      42.480 -15.894   0.734  1.00  0.00     0.089 A 
HETATM    8  C   UNL     1      40.747 -16.050   3.859  1.00  0.00     0.221 C 
HETATM    9  C   UNL     1      41.445 -17.279   4.457  1.00  0.00     0.066 C 
HETATM   10  H   UNL     1      44.260 -17.063   2.576  1.00  0.00     0.161 HD
ENDROOT
BRANCH   6  11
HETATM   11  C   UNL     1      40.678 -15.011  -0.902  1.00  0.00     0.276 C 
HETATM   12  N   UNL     1      39.952 -13.839  -0.824  1.00  0.00    -0.322 N 
HETATM   13  H   UNL     1      39.865 -13.482   0.125  1.00  0.00     0.169 HD
HETATM   14  O   UNL     1      40.894 -15.673  -1.911  1.00  0.00    -0.266 OA
BRANCH  12  15
HETATM   15  C   UNL     1      39.320 -13.130  -1.859  1.00  0.00     0.037 A 
HETATM   16  C   UNL     1      40.008 -12.506  -2.903  1.00  0.00     0.066 A 
HETATM   17  C   UNL     1      39.297 -11.816  -3.884  1.00  0.00     0.067 A 
HETATM   18  C   UNL     1      37.910 -11.743  -3.849  1.00  0.00     0.036 A 
HETATM   19  C   UNL     1      37.218 -12.366  -2.814  1.00  0.00     0.005 A 
HETATM   20  C   UNL     1      37.921 -13.052  -1.820  1.00  0.00     0.029 A 
BRANCH  17  21
HETATM   21  O   UNL     1      39.939 -11.183  -4.908  1.00  0.00    -0.361 OA
HETATM   22  H   UNL     1      40.404 -11.852  -5.438  1.00  0.00     0.217 HD
ENDBRANCH  17  21
ENDBRANCH  12  15
ENDBRANCH   6  11
BRANCH   8  23
HETATM   23  C   UNL     1      41.008 -14.786   4.647  1.00  0.00     0.409 C 
HETATM   24  F   UNL     1      39.942 -13.955   4.653  1.00  0.00    -0.169 F 
HETATM   25  F   UNL     1      41.259 -15.100   5.944  1.00  0.00    -0.169 F 
HETATM   26  F   UNL     1      42.074 -14.086   4.208  1.00  0.00    -0.169 F 
ENDBRANCH   8  23
BRANCH   1  27
HETATM   27  C   UNL     1      43.579 -18.620   4.481  1.00  0.00    -0.035 A 
HETATM   28  C   UNL     1      44.084 -19.375   3.413  1.00  0.00     0.010 A 
HETATM   29  C   UNL     1      44.646 -20.636   3.638  1.00  0.00     0.007 A 
HETATM   30  C   UNL     1      44.706 -21.171   4.929  1.00  0.00    -0.062 A 
HETATM   31  C   UNL     1      45.337 -22.509   5.180  1.00  0.00     0.048 C 
HETATM   32  C   UNL     1      44.214 -20.418   5.999  1.00  0.00     0.007 A 
HETATM   33  C   UNL     1      43.650 -19.161   5.776  1.00  0.00     0.010 A 
ENDBRANCH   1  27
TORSDOF 5
ENDMDL
MODEL 9
REMARK VINA RESULT:      -8.6      5.172      7.819
REMARK  5 active torsions:
REMARK  status: ('A' for Active; 'I' for Inactive)
REMARK    1  A    between atoms: C_5  and  C_6 
REMARK    2  A    between atoms: C_11  and  C_12 
REMARK       I    between atoms: C_12  and  N_13 
REMARK    3  A    between atoms: N_13  and  C_14 
REMARK    4  A    between atoms: C_16  and  O_17 
REMARK    5  A    between atoms: C_23  and  C_24 
ROOT
HETATM    1  C   UNL     1      43.398 -16.766   3.086  1.00  0.00     0.118 C 
HETATM    2  N   UNL     1      42.635 -16.498   1.867  1.00  0.00    -0.366 N 
HETATM    3  C   UNL     1      41.527 -15.731   1.856  1.00  0.00     0.123 A 
HETATM    4  N   UNL     1      41.146 -15.021   2.958  1.00  0.00    -0.240 N 
HETATM    5  N   UNL     1      39.941 -14.435   2.846  1.00  0.00    -0.165 NA
HETATM    6  C   UNL     1      39.600 -14.677   1.556  1.00  0.00     0.148 A 
HETATM    7  C   UNL     1      40.581 -15.473   0.901  1.00  0.00     0.089 A 
HETATM    8  C   UNL     1      41.909 -15.003   4.190  1.00  0.00     0.221 C 
HETATM    9  C   UNL     1      42.619 -16.354   4.354  1.00  0.00     0.066 C 
HETATM   10  H   UNL     1      42.929 -17.022   1.043  1.00  0.00     0.161 HD
ENDROOT
BRANCH   6  11
HETATM   11  C   UNL     1      38.337 -14.184   0.976  1.00  0.00     0.276 C 
HETATM   12  N   UNL     1      38.520 -13.002   0.285  1.00  0.00    -0.322 N 
HETATM   13  H   UNL     1      39.481 -12.667   0.308  1.00  0.00     0.169 HD
HETATM   14  O   UNL     1      37.278 -14.779   1.144  1.00  0.00    -0.266 OA
BRANCH  12  15
HETATM   15  C   UNL     1      37.563 -12.228  -0.391  1.00  0.00     0.037 A 
HETATM   16  C   UNL     1      37.535 -12.068  -1.778  1.00  0.00     0.066 A 
HETATM   17  C   UNL     1      36.552 -11.271  -2.364  1.00  0.00     0.067 A 
HETATM   18  C   UNL     1      35.588 -10.636  -1.590  1.00  0.00     0.036 A 
HETATM   19  C   UNL     1      35.608 -10.793  -0.207  1.00  0.00     0.005 A 
HETATM   20  C   UNL     1      36.595 -11.581   0.391  1.00  0.00     0.029 A 
BRANCH  17  21
HETATM   21  O   UNL     1      36.505 -11.084  -3.715  1.00  0.00    -0.361 OA
HETATM   22  H   UNL     1      36.748 -10.162  -3.904  1.00  0.00     0.217 HD
ENDBRANCH  17  21
ENDBRANCH  12  15
ENDBRANCH   6  11
BRANCH   8  23
HETATM   23  C   UNL     1      42.867 -13.834   4.187  1.00  0.00     0.409 C 
HETATM   24  F   UNL     1      42.333 -12.731   4.756  1.00  0.00    -0.169 F 
HETATM   25  F   UNL     1      43.971 -14.147   4.915  1.00  0.00    -0.169 F 
HETATM   26  F   UNL     1      43.303 -13.495   2.956  1.00  0.00    -0.169 F 
ENDBRANCH   8  23
BRANCH   1  27
HETATM   27  C   UNL     1      43.752 -18.242   3.128  1.00  0.00    -0.035 A 
HETATM   28  C   UNL     1      44.345 -18.803   4.267  1.00  0.00     0.010 A 
HETATM   29  C   UNL     1      44.665 -20.165   4.305  1.00  0.00     0.007 A 
HETATM   30  C   UNL     1      44.406 -20.989   3.205  1.00  0.00    -0.062 A 
HETATM   31  C   UNL     1      44.717 -22.456   3.252  1.00  0.00     0.048 C 
HETATM   32  C   UNL     1      43.804 -20.437   2.070  1.00  0.00     0.007 A 
HETATM   33  C   UNL     1      43.488 -19.079   2.030  1.00  0.00     0.010 A 
ENDBRANCH   1  27
TORSDOF 5
ENDMDL
MODEL 10
REMARK VINA RESULT:      -8.5      4.177      5.790
REMARK  5 active torsions:
REMARK  status: ('A' for Active; 'I' for Inactive)
REMARK    1  A    between atoms: C_5  and  C_6 
REMARK    2  A    between atoms: C_11  and  C_12 
REMARK       I    between atoms: C_12  and  N_13 
REMARK    3  A    between atoms: N_13  and  C_14 
REMARK    4  A    between atoms: C_16  and  O_17 
REMARK    5  A    between atoms: C_23  and  C_24 
ROOT
HETATM    1  C   UNL     1      43.821 -17.862   4.943  1.00  0.00     0.118 C 
HETATM    2  N   UNL     1      43.405 -16.637   4.261  1.00  0.00    -0.366 N 
HETATM    3  C   UNL     1      42.473 -15.804   4.764  1.00  0.00     0.123 A 
HETATM    4  N   UNL     1      41.983 -15.971   6.027  1.00  0.00    -0.240 N 
HETATM    5  N   UNL     1      40.949 -15.164   6.328  1.00  0.00    -0.165 NA
HETATM    6  C   UNL     1      40.868 -14.352   5.245  1.00  0.00     0.148 A 
HETATM    7  C   UNL     1      41.821 -14.715   4.252  1.00  0.00     0.089 A 
HETATM    8  C   UNL     1      42.444 -17.011   6.924  1.00  0.00     0.221 C 
HETATM    9  C   UNL     1      42.860 -18.234   6.094  1.00  0.00     0.066 C 
HETATM   10  H   UNL     1      43.781 -16.510   3.322  1.00  0.00     0.161 HD
ENDROOT
BRANCH   6  11
HETATM   11  C   UNL     1      39.868 -13.273   5.152  1.00  0.00     0.276 C 
HETATM   12  N   UNL     1      39.936 -12.617   3.938  1.00  0.00    -0.322 N 
HETATM   13  H   UNL     1      40.669 -12.974   3.328  1.00  0.00     0.169 HD
HETATM   14  O   UNL     1      39.111 -13.016   6.082  1.00  0.00    -0.266 OA
BRANCH  12  15
HETATM   15  C   UNL     1      39.161 -11.539   3.482  1.00  0.00     0.037 A 
HETATM   16  C   UNL     1      38.190 -11.649   2.484  1.00  0.00     0.066 A 
HETATM   17  C   UNL     1      37.474 -10.520   2.087  1.00  0.00     0.067 A 
HETATM   18  C   UNL     1      37.703  -9.281   2.674  1.00  0.00     0.036 A 
HETATM   19  C   UNL     1      38.667  -9.165   3.672  1.00  0.00     0.005 A 
HETATM   20  C   UNL     1      39.397 -10.288   4.070  1.00  0.00     0.029 A 
BRANCH  17  21
HETATM   21  O   UNL     1      36.529 -10.591   1.105  1.00  0.00    -0.361 OA
HETATM   22  H   UNL     1      36.659 -11.420   0.615  1.00  0.00     0.217 HD
ENDBRANCH  17  21
ENDBRANCH  12  15
ENDBRANCH   6  11
BRANCH   8  23
HETATM   23  C   UNL     1      43.563 -16.484   7.794  1.00  0.00     0.409 C 
HETATM   24  F   UNL     1      44.765 -16.995   7.450  1.00  0.00    -0.169 F 
HETATM   25  F   UNL     1      43.660 -15.137   7.645  1.00  0.00    -0.169 F 
HETATM   26  F   UNL     1      43.378 -16.713   9.110  1.00  0.00    -0.169 F 
ENDBRANCH   8  23
BRANCH   1  27
HETATM   27  C   UNL     1      43.901 -18.987   3.926  1.00  0.00    -0.035 A 
HETATM   28  C   UNL     1      44.628 -20.152   4.205  1.00  0.00     0.010 A 
HETATM   29  C   UNL     1      44.695 -21.189   3.268  1.00  0.00     0.007 A 
HETATM   30  C   UNL     1      44.047 -21.079   2.033  1.00  0.00    -0.062 A 
HETATM   31  C   UNL     1      44.089 -22.201   1.039  1.00  0.00     0.048 C 
HETATM   32  C   UNL     1      43.312 -19.923   1.754  1.00  0.00     0.007 A 
HETATM   33  C   UNL     1      43.247 -18.887   2.686  1.00  0.00     0.010 A 
ENDBRANCH   1  27
TORSDOF 5
ENDMDL
