MODEL 1
REMARK VINA RESULT:      -8.8      0.000      0.000
REMARK  3 active torsions:
REMARK  status: ('A' for Active; 'I' for Inactive)
REMARK    1  A    between atoms: N_4  and  C_5 
REMARK    2  A    between atoms: C_5  and  C_6 
REMARK       I    between atoms: C_6  and  N_7 
REMARK    3  A    between atoms: N_7  and  C_8 
ROOT
HETATM    1  C   UNL     1      41.963 -16.908   1.193  1.00  0.00     0.257 C 
ENDROOT
BRANCH   1   2
HETATM    2  N   UNL     1      41.587 -16.113   2.363  1.00  0.00    -0.225 N 
HETATM    3  N   UNL     1      41.612 -16.784   3.565  1.00  0.00    -0.173 NA
HETATM    4  C   UNL     1      41.116 -16.223   4.624  1.00  0.00     0.062 A 
HETATM    5  C   UNL     1      41.149 -17.012   5.913  1.00  0.00     0.073 C 
HETATM    6  C   UNL     1      40.512 -14.877   4.621  1.00  0.00     0.006 A 
HETATM    7  C   UNL     1      40.472 -14.205   3.404  1.00  0.00     0.046 A 
HETATM    8  C   UNL     1      39.984 -14.274   5.769  1.00  0.00     0.014 A 
HETATM    9  C   UNL     1      41.000 -14.863   2.195  1.00  0.00     0.275 A 
HETATM   10  C   UNL     1      39.915 -12.922   3.327  1.00  0.00     0.018 A 
HETATM   11  O   UNL     1      40.913 -14.298   1.105  1.00  0.00    -0.266 OA
HETATM   12  C   UNL     1      39.391 -12.320   4.471  1.00  0.00     0.001 A 
HETATM   13  C   UNL     1      39.423 -12.997   5.689  1.00  0.00     0.001 A 
ENDBRANCH   1   2
BRANCH   1  14
HETATM   14  C   UNL     1      43.213 -17.782   1.339  1.00  0.00     0.238 C 
HETATM   15  N   UNL     1      42.992 -19.074   1.758  1.00  0.00    -0.351 N 
HETATM   16  H   UNL     1      42.032 -19.380   1.916  1.00  0.00     0.163 HD
HETATM   17  O   UNL     1      44.346 -17.311   1.243  1.00  0.00    -0.272 OA
BRANCH  15  18
HETATM   18  C   UNL     1      44.072 -19.920   2.200  1.00  0.00     0.118 C 
HETATM   19  C   UNL     1      44.095 -20.139   3.688  1.00  0.00    -0.029 A 
HETATM   20  C   UNL     1      44.435 -21.466   3.984  1.00  0.00    -0.050 A 
HETATM   21  C   UNL     1      43.901 -19.214   4.704  1.00  0.00     0.010 A 
HETATM   22  C   UNL     1      44.584 -21.894   5.292  1.00  0.00     0.007 A 
HETATM   23  C   UNL     1      44.657 -22.250   2.728  1.00  0.00     0.041 C 
HETATM   24  C   UNL     1      44.373 -20.971   6.319  1.00  0.00     0.001 A 
HETATM   25  C   UNL     1      44.033 -19.641   6.027  1.00  0.00     0.001 A 
HETATM   26  C   UNL     1      43.948 -21.368   1.691  1.00  0.00     0.034 C 
ENDBRANCH  15  18
ENDBRANCH   1  14
TORSDOF 3
ENDMDL
MODEL 2
REMARK VINA RESULT:      -8.7      2.487      4.560
REMARK  3 active torsions:
REMARK  status: ('A' for Active; 'I' for Inactive)
REMARK    1  A    between atoms: N_4  and  C_5 
REMARK    2  A    between atoms: C_5  and  C_6 
REMARK       I    between atoms: C_6  and  N_7 
REMARK    3  A    between atoms: N_7  and  C_8 
ROOT
HETATM    1  C   UNL     1      42.370 -13.752   3.565  1.00  0.00     0.257 C 
ENDROOT
BRANCH   1   2
HETATM    2  N   UNL     1      41.884 -14.177   2.251  1.00  0.00    -0.225 N 
HETATM    3  N   UNL     1      41.509 -15.498   2.160  1.00  0.00    -0.173 NA
HETATM    4  C   UNL     1      41.246 -16.012   0.998  1.00  0.00     0.062 A 
HETATM    5  C   UNL     1      40.860 -17.473   0.952  1.00  0.00     0.073 C 
HETATM    6  C   UNL     1      41.328 -15.250  -0.262  1.00  0.00     0.006 A 
HETATM    7  C   UNL     1      41.722 -13.920  -0.172  1.00  0.00     0.046 A 
HETATM    8  C   UNL     1      41.038 -15.809  -1.513  1.00  0.00     0.014 A 
HETATM    9  C   UNL     1      42.058 -13.351   1.145  1.00  0.00     0.275 A 
HETATM   10  C   UNL     1      41.819 -13.135  -1.329  1.00  0.00     0.018 A 
HETATM   11  O   UNL     1      42.465 -12.192   1.224  1.00  0.00    -0.266 OA
HETATM   12  C   UNL     1      41.528 -13.691  -2.575  1.00  0.00     0.001 A 
HETATM   13  C   UNL     1      41.141 -15.028  -2.666  1.00  0.00     0.001 A 
ENDBRANCH   1   2
BRANCH   1  14
HETATM   14  C   UNL     1      42.467 -14.841   4.638  1.00  0.00     0.238 C 
HETATM   15  N   UNL     1      43.359 -15.856   4.380  1.00  0.00    -0.351 N 
HETATM   16  H   UNL     1      43.915 -15.813   3.526  1.00  0.00     0.163 HD
HETATM   17  O   UNL     1      41.682 -14.886   5.586  1.00  0.00    -0.272 OA
BRANCH  15  18
HETATM   18  C   UNL     1      43.362 -17.074   5.151  1.00  0.00     0.118 C 
HETATM   19  C   UNL     1      43.819 -18.277   4.372  1.00  0.00    -0.029 A 
HETATM   20  C   UNL     1      44.624 -19.101   5.169  1.00  0.00    -0.050 A 
HETATM   21  C   UNL     1      43.485 -18.651   3.077  1.00  0.00     0.010 A 
HETATM   22  C   UNL     1      45.113 -20.306   4.691  1.00  0.00     0.007 A 
HETATM   23  C   UNL     1      44.786 -18.521   6.539  1.00  0.00     0.041 C 
HETATM   24  C   UNL     1      44.794 -20.678   3.384  1.00  0.00     0.001 A 
HETATM   25  C   UNL     1      43.987 -19.857   2.582  1.00  0.00     0.001 A 
HETATM   26  C   UNL     1      44.390 -17.058   6.297  1.00  0.00     0.034 C 
ENDBRANCH  15  18
ENDBRANCH   1  14
TORSDOF 3
ENDMDL
MODEL 3
REMARK VINA RESULT:      -8.7      2.337      7.700
REMARK  3 active torsions:
REMARK  status: ('A' for Active; 'I' for Inactive)
REMARK    1  A    between atoms: N_4  and  C_5 
REMARK    2  A    between atoms: C_5  and  C_6 
REMARK       I    between atoms: C_6  and  N_7 
REMARK    3  A    between atoms: N_7  and  C_8 
ROOT
HETATM    1  C   UNL     1      43.437 -17.135   6.930  1.00  0.00     0.257 C 
ENDROOT
BRANCH   1   2
HETATM    2  N   UNL     1      43.865 -18.115   5.929  1.00  0.00    -0.225 N 
HETATM    3  N   UNL     1      43.817 -17.683   4.623  1.00  0.00    -0.173 NA
HETATM    4  C   UNL     1      43.994 -18.533   3.660  1.00  0.00     0.062 A 
HETATM    5  C   UNL     1      43.909 -18.011   2.244  1.00  0.00     0.073 C 
HETATM    6  C   UNL     1      44.250 -19.968   3.882  1.00  0.00     0.006 A 
HETATM    7  C   UNL     1      44.283 -20.408   5.201  1.00  0.00     0.046 A 
HETATM    8  C   UNL     1      44.446 -20.880   2.837  1.00  0.00     0.014 A 
HETATM    9  C   UNL     1      44.041 -19.446   6.292  1.00  0.00     0.275 A 
HETATM   10  C   UNL     1      44.523 -21.758   5.487  1.00  0.00     0.018 A 
HETATM   11  O   UNL     1      44.010 -19.840   7.457  1.00  0.00    -0.266 OA
HETATM   12  C   UNL     1      44.721 -22.667   4.446  1.00  0.00     0.001 A 
HETATM   13  C   UNL     1      44.678 -22.228   3.124  1.00  0.00     0.001 A 
ENDBRANCH   1   2
BRANCH   1  14
HETATM   14  C   UNL     1      43.097 -15.736   6.408  1.00  0.00     0.238 C 
HETATM   15  N   UNL     1      41.897 -15.621   5.744  1.00  0.00    -0.351 N 
HETATM   16  H   UNL     1      41.302 -16.446   5.664  1.00  0.00     0.163 HD
HETATM   17  O   UNL     1      43.915 -14.817   6.440  1.00  0.00    -0.272 OA
BRANCH  15  18
HETATM   18  C   UNL     1      41.571 -14.451   4.969  1.00  0.00     0.118 C 
HETATM   19  C   UNL     1      40.808 -14.758   3.709  1.00  0.00    -0.029 A 
HETATM   20  C   UNL     1      39.814 -13.795   3.490  1.00  0.00    -0.050 A 
HETATM   21  C   UNL     1      41.028 -15.771   2.787  1.00  0.00     0.010 A 
HETATM   22  C   UNL     1      39.020 -13.828   2.356  1.00  0.00     0.007 A 
HETATM   23  C   UNL     1      39.815 -12.772   4.584  1.00  0.00     0.041 C 
HETATM   24  C   UNL     1      39.226 -14.856   1.433  1.00  0.00     0.001 A 
HETATM   25  C   UNL     1      40.221 -15.821   1.647  1.00  0.00     0.001 A 
HETATM   26  C   UNL     1      40.586 -13.510   5.687  1.00  0.00     0.034 C 
ENDBRANCH  15  18
ENDBRANCH   1  14
TORSDOF 3
ENDMDL
MODEL 4
REMARK VINA RESULT:      -8.5      2.850      7.515
REMARK  3 active torsions:
REMARK  status: ('A' for Active; 'I' for Inactive)
REMARK    1  A    between atoms: N_4  and  C_5 
REMARK    2  A    between atoms: C_5  and  C_6 
REMARK       I    between atoms: C_6  and  N_7 
REMARK    3  A    between atoms: N_7  and  C_8 
ROOT
HETATM    1  C   UNL     1      41.679 -15.334   3.709  1.00  0.00     0.257 C 
ENDROOT
BRANCH   1   2
HETATM    2  N   UNL     1      42.308 -16.651   3.822  1.00  0.00    -0.225 N 
HETATM    3  N   UNL     1      43.169 -16.805   4.884  1.00  0.00    -0.173 NA
HETATM    4  C   UNL     1      43.914 -17.864   4.959  1.00  0.00     0.062 A 
HETATM    5  C   UNL     1      44.858 -17.972   6.134  1.00  0.00     0.073 C 
HETATM    6  C   UNL     1      43.894 -18.941   3.951  1.00  0.00     0.006 A 
HETATM    7  C   UNL     1      43.036 -18.779   2.869  1.00  0.00     0.046 A 
HETATM    8  C   UNL     1      44.696 -20.085   4.041  1.00  0.00     0.014 A 
HETATM    9  C   UNL     1      42.221 -17.555   2.767  1.00  0.00     0.275 A 
HETATM   10  C   UNL     1      42.964 -19.763   1.875  1.00  0.00     0.018 A 
HETATM   11  O   UNL     1      41.504 -17.379   1.782  1.00  0.00    -0.266 OA
HETATM   12  C   UNL     1      43.761 -20.905   1.965  1.00  0.00     0.001 A 
HETATM   13  C   UNL     1      44.628 -21.062   3.045  1.00  0.00     0.001 A 
ENDBRANCH   1   2
BRANCH   1  14
HETATM   14  C   UNL     1      42.266 -14.387   2.659  1.00  0.00     0.238 C 
HETATM   15  N   UNL     1      41.519 -14.228   1.514  1.00  0.00    -0.351 N 
HETATM   16  H   UNL     1      40.624 -14.712   1.443  1.00  0.00     0.163 HD
HETATM   17  O   UNL     1      43.404 -13.930   2.764  1.00  0.00    -0.272 OA
BRANCH  15  18
HETATM   18  C   UNL     1      42.064 -13.597   0.338  1.00  0.00     0.118 C 
HETATM   19  C   UNL     1      41.473 -14.109  -0.947  1.00  0.00    -0.029 A 
HETATM   20  C   UNL     1      41.276 -13.057  -1.851  1.00  0.00    -0.050 A 
HETATM   21  C   UNL     1      41.199 -15.419  -1.315  1.00  0.00     0.010 A 
HETATM   22  C   UNL     1      40.802 -13.289  -3.131  1.00  0.00     0.007 A 
HETATM   23  C   UNL     1      41.704 -11.753  -1.250  1.00  0.00     0.041 C 
HETATM   24  C   UNL     1      40.509 -14.603  -3.500  1.00  0.00     0.001 A 
HETATM   25  C   UNL     1      40.705 -15.661  -2.599  1.00  0.00     0.001 A 
HETATM   26  C   UNL     1      41.717 -12.099   0.245  1.00  0.00     0.034 C 
ENDBRANCH  15  18
ENDBRANCH   1  14
TORSDOF 3
ENDMDL
MODEL 5
REMARK VINA RESULT:      -8.5      4.728      8.476
REMARK  3 active torsions:
REMARK  status: ('A' for Active; 'I' for Inactive)
REMARK    1  A    between atoms: N_4  and  C_5 
REMARK    2  A    between atoms: C_5  and  C_6 
REMARK       I    between atoms: C_6  and  N_7 
REMARK    3  A    between atoms: N_7  and  C_8 
ROOT
HETATM    1  C   UNL     1      43.078 -14.267   5.688  1.00  0.00     0.257 C 
ENDROOT
BRANCH   1   2
HETATM    2  N   UNL     1      43.290 -15.683   5.384  1.00  0.00    -0.225 N 
HETATM    3  N   UNL     1      43.767 -16.445   6.427  1.00  0.00    -0.173 NA
HETATM    4  C   UNL     1      44.163 -17.660   6.205  1.00  0.00     0.062 A 
HETATM    5  C   UNL     1      44.699 -18.445   7.381  1.00  0.00     0.073 C 
HETATM    6  C   UNL     1      44.134 -18.292   4.873  1.00  0.00     0.006 A 
HETATM    7  C   UNL     1      43.667 -17.517   3.816  1.00  0.00     0.046 A 
HETATM    8  C   UNL     1      44.557 -19.606   4.641  1.00  0.00     0.014 A 
HETATM    9  C   UNL     1      43.255 -16.124   4.066  1.00  0.00     0.275 A 
HETATM   10  C   UNL     1      43.609 -18.053   2.523  1.00  0.00     0.018 A 
HETATM   11  O   UNL     1      42.898 -15.415   3.125  1.00  0.00    -0.266 OA
HETATM   12  C   UNL     1      44.028 -19.363   2.292  1.00  0.00     0.001 A 
HETATM   13  C   UNL     1      44.505 -20.136   3.349  1.00  0.00     0.001 A 
ENDBRANCH   1   2
BRANCH   1  14
HETATM   14  C   UNL     1      44.120 -13.603   6.594  1.00  0.00     0.238 C 
HETATM   15  N   UNL     1      43.619 -12.922   7.681  1.00  0.00    -0.351 N 
HETATM   16  H   UNL     1      42.611 -12.924   7.836  1.00  0.00     0.163 HD
HETATM   17  O   UNL     1      45.308 -13.546   6.280  1.00  0.00    -0.272 OA
BRANCH  15  18
HETATM   18  C   UNL     1      44.441 -12.029   8.457  1.00  0.00     0.118 C 
HETATM   19  C   UNL     1      43.654 -11.129   9.371  1.00  0.00    -0.029 A 
HETATM   20  C   UNL     1      44.308 -10.987  10.602  1.00  0.00    -0.050 A 
HETATM   21  C   UNL     1      42.486 -10.430   9.104  1.00  0.00     0.010 A 
HETATM   22  C   UNL     1      43.808 -10.153  11.588  1.00  0.00     0.007 A 
HETATM   23  C   UNL     1      45.575 -11.784  10.627  1.00  0.00     0.041 C 
HETATM   24  C   UNL     1      42.623  -9.460  11.330  1.00  0.00     0.001 A 
HETATM   25  C   UNL     1      41.966  -9.598  10.098  1.00  0.00     0.001 A 
HETATM   26  C   UNL     1      45.338 -12.766   9.471  1.00  0.00     0.034 C 
ENDBRANCH  15  18
ENDBRANCH   1  14
TORSDOF 3
ENDMDL
MODEL 6
REMARK VINA RESULT:      -8.5      3.118      7.829
REMARK  3 active torsions:
REMARK  status: ('A' for Active; 'I' for Inactive)
REMARK    1  A    between atoms: N_4  and  C_5 
REMARK    2  A    between atoms: C_5  and  C_6 
REMARK       I    between atoms: C_6  and  N_7 
REMARK    3  A    between atoms: N_7  and  C_8 
ROOT
HETATM    1  C   UNL     1      43.376 -15.841   2.460  1.00  0.00     0.257 C 
ENDROOT
BRANCH   1   2
HETATM    2  N   UNL     1      43.526 -17.210   2.958  1.00  0.00    -0.225 N 
HETATM    3  N   UNL     1      43.845 -17.320   4.292  1.00  0.00    -0.173 NA
HETATM    4  C   UNL     1      44.183 -18.474   4.778  1.00  0.00     0.062 A 
HETATM    5  C   UNL     1      44.545 -18.536   6.244  1.00  0.00     0.073 C 
HETATM    6  C   UNL     1      44.249 -19.706   3.969  1.00  0.00     0.006 A 
HETATM    7  C   UNL     1      43.943 -19.592   2.618  1.00  0.00     0.046 A 
HETATM    8  C   UNL     1      44.609 -20.950   4.501  1.00  0.00     0.014 A 
HETATM    9  C   UNL     1      43.598 -18.271   2.061  1.00  0.00     0.275 A 
HETATM   10  C   UNL     1      43.982 -20.721   1.790  1.00  0.00     0.018 A 
HETATM   11  O   UNL     1      43.384 -18.154   0.855  1.00  0.00    -0.266 OA
HETATM   12  C   UNL     1      44.339 -21.962   2.319  1.00  0.00     0.001 A 
HETATM   13  C   UNL     1      44.655 -22.074   3.672  1.00  0.00     0.001 A 
ENDBRANCH   1   2
BRANCH   1  14
HETATM   14  C   UNL     1      42.134 -15.560   1.609  1.00  0.00     0.238 C 
HETATM   15  N   UNL     1      42.361 -15.378   0.264  1.00  0.00    -0.351 N 
HETATM   16  H   UNL     1      43.314 -15.469  -0.088  1.00  0.00     0.163 HD
HETATM   17  O   UNL     1      41.033 -15.351   2.119  1.00  0.00    -0.272 OA
BRANCH  15  18
HETATM   18  C   UNL     1      41.346 -14.842  -0.608  1.00  0.00     0.118 C 
HETATM   19  C   UNL     1      41.807 -13.652  -1.406  1.00  0.00    -0.029 A 
HETATM   20  C   UNL     1      41.300 -13.711  -2.711  1.00  0.00    -0.050 A 
HETATM   21  C   UNL     1      42.556 -12.563  -0.985  1.00  0.00     0.010 A 
HETATM   22  C   UNL     1      41.534 -12.690  -3.618  1.00  0.00     0.007 A 
HETATM   23  C   UNL     1      40.472 -14.943  -2.905  1.00  0.00     0.041 C 
HETATM   24  C   UNL     1      42.302 -11.600  -3.204  1.00  0.00     0.001 A 
HETATM   25  C   UNL     1      42.810 -11.537  -1.897  1.00  0.00     0.001 A 
HETATM   26  C   UNL     1      40.947 -15.814  -1.734  1.00  0.00     0.034 C 
ENDBRANCH  15  18
ENDBRANCH   1  14
TORSDOF 3
ENDMDL
MODEL 7
REMARK VINA RESULT:      -8.4      4.772      8.367
REMARK  3 active torsions:
REMARK  status: ('A' for Active; 'I' for Inactive)
REMARK    1  A    between atoms: N_4  and  C_5 
REMARK    2  A    between atoms: C_5  and  C_6 
REMARK       I    between atoms: C_6  and  N_7 
REMARK    3  A    between atoms: N_7  and  C_8 
ROOT
HETATM    1  C   UNL     1      43.155 -16.186   6.541  1.00  0.00     0.257 C 
ENDROOT
BRANCH   1   2
HETATM    2  N   UNL     1      43.646 -17.282   5.704  1.00  0.00    -0.225 N 
HETATM    3  N   UNL     1      43.630 -17.041   4.349  1.00  0.00    -0.173 NA
HETATM    4  C   UNL     1      43.866 -18.013   3.522  1.00  0.00     0.062 A 
HETATM    5  C   UNL     1      43.813 -17.700   2.044  1.00  0.00     0.073 C 
HETATM    6  C   UNL     1      44.158 -19.392   3.954  1.00  0.00     0.006 A 
HETATM    7  C   UNL     1      44.159 -19.639   5.323  1.00  0.00     0.046 A 
HETATM    8  C   UNL     1      44.417 -20.435   3.057  1.00  0.00     0.014 A 
HETATM    9  C   UNL     1      43.850 -18.541   6.258  1.00  0.00     0.275 A 
HETATM   10  C   UNL     1      44.430 -20.926   5.805  1.00  0.00     0.018 A 
HETATM   11  O   UNL     1      43.791 -18.767   7.466  1.00  0.00    -0.266 OA
HETATM   12  C   UNL     1      44.691 -21.965   4.912  1.00  0.00     0.001 A 
HETATM   13  C   UNL     1      44.681 -21.720   3.540  1.00  0.00     0.001 A 
ENDBRANCH   1   2
BRANCH   1  14
HETATM   14  C   UNL     1      43.808 -14.818   6.323  1.00  0.00     0.238 C 
HETATM   15  N   UNL     1      44.658 -14.396   7.320  1.00  0.00    -0.351 N 
HETATM   16  H   UNL     1      44.826 -15.015   8.113  1.00  0.00     0.163 HD
HETATM   17  O   UNL     1      43.469 -14.079   5.399  1.00  0.00    -0.272 OA
BRANCH  15  18
HETATM   18  C   UNL     1      45.125 -13.035   7.389  1.00  0.00     0.118 C 
HETATM   19  C   UNL     1      44.859 -12.375   8.715  1.00  0.00    -0.029 A 
HETATM   20  C   UNL     1      45.948 -11.578   9.094  1.00  0.00    -0.050 A 
HETATM   21  C   UNL     1      43.710 -12.419   9.491  1.00  0.00     0.010 A 
HETATM   22  C   UNL     1      45.912 -10.816  10.250  1.00  0.00     0.007 A 
HETATM   23  C   UNL     1      47.036 -11.643   8.068  1.00  0.00     0.041 C 
HETATM   24  C   UNL     1      44.764 -10.871  11.043  1.00  0.00     0.001 A 
HETATM   25  C   UNL     1      43.671 -11.666  10.667  1.00  0.00     0.001 A 
HETATM   26  C   UNL     1      46.659 -12.921   7.307  1.00  0.00     0.034 C 
ENDBRANCH  15  18
ENDBRANCH   1  14
TORSDOF 3
ENDMDL
MODEL 8
REMARK VINA RESULT:      -8.3      2.556      7.824
REMARK  3 active torsions:
REMARK  status: ('A' for Active; 'I' for Inactive)
REMARK    1  A    between atoms: N_4  and  C_5 
REMARK    2  A    between atoms: C_5  and  C_6 
REMARK       I    between atoms: C_6  and  N_7 
REMARK    3  A    between atoms: N_7  and  C_8 
ROOT
HETATM    1  C   UNL     1      43.509 -15.825   2.638  1.00  0.00     0.257 C 
ENDROOT
BRANCH   1   2
HETATM    2  N   UNL     1      43.645 -17.197   3.130  1.00  0.00    -0.225 N 
HETATM    3  N   UNL     1      43.995 -17.316   4.456  1.00  0.00    -0.173 NA
HETATM    4  C   UNL     1      44.323 -18.478   4.932  1.00  0.00     0.062 A 
HETATM    5  C   UNL     1      44.720 -18.549   6.388  1.00  0.00     0.073 C 
HETATM    6  C   UNL     1      44.343 -19.709   4.120  1.00  0.00     0.006 A 
HETATM    7  C   UNL     1      44.005 -19.587   2.777  1.00  0.00     0.046 A 
HETATM    8  C   UNL     1      44.692 -20.961   4.641  1.00  0.00     0.014 A 
HETATM    9  C   UNL     1      43.673 -18.258   2.231  1.00  0.00     0.275 A 
HETATM   10  C   UNL     1      44.001 -20.716   1.947  1.00  0.00     0.018 A 
HETATM   11  O   UNL     1      43.430 -18.135   1.031  1.00  0.00    -0.266 OA
HETATM   12  C   UNL     1      44.346 -21.964   2.466  1.00  0.00     0.001 A 
HETATM   13  C   UNL     1      44.694 -22.084   3.810  1.00  0.00     0.001 A 
ENDBRANCH   1   2
BRANCH   1  14
HETATM   14  C   UNL     1      42.106 -15.214   2.707  1.00  0.00     0.238 C 
HETATM   15  N   UNL     1      41.458 -15.068   1.501  1.00  0.00    -0.351 N 
HETATM   16  H   UNL     1      41.923 -15.395   0.654  1.00  0.00     0.163 HD
HETATM   17  O   UNL     1      41.658 -14.739   3.750  1.00  0.00    -0.272 OA
BRANCH  15  18
HETATM   18  C   UNL     1      40.266 -14.270   1.376  1.00  0.00     0.118 C 
HETATM   19  C   UNL     1      39.933 -13.906  -0.045  1.00  0.00    -0.029 A 
HETATM   20  C   UNL     1      38.550 -13.976  -0.259  1.00  0.00    -0.050 A 
HETATM   21  C   UNL     1      40.783 -13.473  -1.053  1.00  0.00     0.010 A 
HETATM   22  C   UNL     1      37.992 -13.623  -1.476  1.00  0.00     0.007 A 
HETATM   23  C   UNL     1      37.840 -14.402   0.989  1.00  0.00     0.041 C 
HETATM   24  C   UNL     1      38.846 -13.203  -2.498  1.00  0.00     0.001 A 
HETATM   25  C   UNL     1      40.232 -13.130  -2.289  1.00  0.00     0.001 A 
HETATM   26  C   UNL     1      38.990 -15.025   1.793  1.00  0.00     0.034 C 
ENDBRANCH  15  18
ENDBRANCH   1  14
TORSDOF 3
ENDMDL
MODEL 9
REMARK VINA RESULT:      -8.3      1.726      7.739
REMARK  3 active torsions:
REMARK  status: ('A' for Active; 'I' for Inactive)
REMARK    1  A    between atoms: N_4  and  C_5 
REMARK    2  A    between atoms: C_5  and  C_6 
REMARK       I    between atoms: C_6  and  N_7 
REMARK    3  A    between atoms: N_7  and  C_8 
ROOT
HETATM    1  C   UNL     1      43.478 -15.925   2.400  1.00  0.00     0.257 C 
ENDROOT
BRANCH   1   2
HETATM    2  N   UNL     1      43.621 -17.266   2.968  1.00  0.00    -0.225 N 
HETATM    3  N   UNL     1      43.969 -17.309   4.299  1.00  0.00    -0.173 NA
HETATM    4  C   UNL     1      44.302 -18.440   4.839  1.00  0.00     0.062 A 
HETATM    5  C   UNL     1      44.697 -18.427   6.298  1.00  0.00     0.073 C 
HETATM    6  C   UNL     1      44.332 -19.714   4.098  1.00  0.00     0.006 A 
HETATM    7  C   UNL     1      43.996 -19.669   2.749  1.00  0.00     0.046 A 
HETATM    8  C   UNL     1      44.688 -20.933   4.688  1.00  0.00     0.014 A 
HETATM    9  C   UNL     1      43.657 -18.375   2.129  1.00  0.00     0.275 A 
HETATM   10  C   UNL     1      44.002 -20.843   1.984  1.00  0.00     0.018 A 
HETATM   11  O   UNL     1      43.417 -18.321   0.923  1.00  0.00    -0.266 OA
HETATM   12  C   UNL     1      44.353 -22.058   2.572  1.00  0.00     0.001 A 
HETATM   13  C   UNL     1      44.699 -22.101   3.922  1.00  0.00     0.001 A 
ENDBRANCH   1   2
BRANCH   1  14
HETATM   14  C   UNL     1      43.220 -14.789   3.395  1.00  0.00     0.238 C 
HETATM   15  N   UNL     1      41.984 -14.795   4.000  1.00  0.00    -0.351 N 
HETATM   16  H   UNL     1      41.336 -15.553   3.782  1.00  0.00     0.163 HD
HETATM   17  O   UNL     1      44.002 -13.848   3.519  1.00  0.00    -0.272 OA
BRANCH  15  18
HETATM   18  C   UNL     1      41.498 -13.657   4.739  1.00  0.00     0.118 C 
HETATM   19  C   UNL     1      40.581 -12.770   3.942  1.00  0.00    -0.029 A 
HETATM   20  C   UNL     1      39.522 -12.316   4.739  1.00  0.00    -0.050 A 
HETATM   21  C   UNL     1      40.716 -12.338   2.630  1.00  0.00     0.010 A 
HETATM   22  C   UNL     1      38.580 -11.430   4.244  1.00  0.00     0.007 A 
HETATM   23  C   UNL     1      39.629 -12.865   6.128  1.00  0.00     0.041 C 
HETATM   24  C   UNL     1      38.701 -11.006   2.919  1.00  0.00     0.001 A 
HETATM   25  C   UNL     1      39.761 -11.457   2.117  1.00  0.00     0.001 A 
HETATM   26  C   UNL     1      40.581 -14.049   5.912  1.00  0.00     0.034 C 
ENDBRANCH  15  18
ENDBRANCH   1  14
TORSDOF 3
ENDMDL
MODEL 10
REMARK VINA RESULT:      -8.0      4.642      8.108
REMARK  3 active torsions:
REMARK  status: ('A' for Active; 'I' for Inactive)
REMARK    1  A    between atoms: N_4  and  C_5 
REMARK    2  A    between atoms: C_5  and  C_6 
REMARK       I    between atoms: C_6  and  N_7 
REMARK    3  A    between atoms: N_7  and  C_8 
ROOT
HETATM    1  C   UNL     1      44.238 -15.142   6.620  1.00  0.00     0.257 C 
ENDROOT
BRANCH   1   2
HETATM    2  N   UNL     1      43.214 -14.882   5.606  1.00  0.00    -0.225 N 
HETATM    3  N   UNL     1      42.466 -13.743   5.803  1.00  0.00    -0.173 NA
HETATM    4  C   UNL     1      41.417 -13.530   5.070  1.00  0.00     0.062 A 
HETATM    5  C   UNL     1      40.619 -12.276   5.342  1.00  0.00     0.073 C 
HETATM    6  C   UNL     1      40.966 -14.454   4.013  1.00  0.00     0.006 A 
HETATM    7  C   UNL     1      41.712 -15.612   3.825  1.00  0.00     0.046 A 
HETATM    8  C   UNL     1      39.836 -14.215   3.221  1.00  0.00     0.014 A 
HETATM    9  C   UNL     1      42.879 -15.871   4.687  1.00  0.00     0.275 A 
HETATM   10  C   UNL     1      41.342 -16.534   2.837  1.00  0.00     0.018 A 
HETATM   11  O   UNL     1      43.508 -16.922   4.565  1.00  0.00    -0.266 OA
HETATM   12  C   UNL     1      40.218 -16.295   2.045  1.00  0.00     0.001 A 
HETATM   13  C   UNL     1      39.465 -15.139   2.241  1.00  0.00     0.001 A 
ENDBRANCH   1   2
BRANCH   1  14
HETATM   14  C   UNL     1      44.912 -13.912   7.236  1.00  0.00     0.238 C 
HETATM   15  N   UNL     1      44.299 -13.392   8.353  1.00  0.00    -0.351 N 
HETATM   16  H   UNL     1      43.469 -13.860   8.718  1.00  0.00     0.163 HD
HETATM   17  O   UNL     1      45.843 -13.336   6.674  1.00  0.00    -0.272 OA
BRANCH  15  18
HETATM   18  C   UNL     1      44.652 -12.095   8.873  1.00  0.00     0.118 C 
HETATM   19  C   UNL     1      43.465 -11.206   9.127  1.00  0.00    -0.029 A 
HETATM   20  C   UNL     1      43.640 -10.480  10.312  1.00  0.00    -0.050 A 
HETATM   21  C   UNL     1      42.348 -11.001   8.329  1.00  0.00     0.010 A 
HETATM   22  C   UNL     1      42.707  -9.544  10.725  1.00  0.00     0.007 A 
HETATM   23  C   UNL     1      44.945 -10.826  10.960  1.00  0.00     0.041 C 
HETATM   24  C   UNL     1      41.573  -9.346   9.934  1.00  0.00     0.001 A 
HETATM   25  C   UNL     1      41.394 -10.070   8.745  1.00  0.00     0.001 A 
HETATM   26  C   UNL     1      45.276 -12.162  10.280  1.00  0.00     0.034 C 
ENDBRANCH  15  18
ENDBRANCH   1  14
TORSDOF 3
ENDMDL
