MODEL 1
REMARK VINA RESULT:      -8.5      0.000      0.000
REMARK  7 active torsions:
REMARK  status: ('A' for Active; 'I' for Inactive)
REMARK    1  A    between atoms: C_2  and  N_3 
REMARK    2  A    between atoms: C_2  and  C_10 
REMARK    3  A    between atoms: N_11  and  C_12 
REMARK    4  A    between atoms: C_19  and  S_20 
REMARK    5  A    between atoms: S_20  and  C_21 
REMARK    6  A    between atoms: C_21  and  C_22 
REMARK    7  A    between atoms: C_21  and  C_28 
REMARK       I    between atoms: C_22  and  N_23 
REMARK       I    between atoms: N_23  and  C_24 
REMARK       I    between atoms: C_24  and  N_25 
ROOT
HETATM    1  C   UNL     1      40.724 -14.783  -0.156  1.00  0.00     0.166 A 
HETATM    2  N   UNL     1      40.985 -15.348   1.091  1.00  0.00    -0.274 N 
HETATM    3  C   UNL     1      40.198 -14.608   1.963  1.00  0.00     0.197 A 
HETATM    4  N   UNL     1      39.443 -13.784   1.276  1.00  0.00    -0.122 NA
HETATM    5  N   UNL     1      39.748 -13.907  -0.042  1.00  0.00    -0.131 NA
ENDROOT
BRANCH   3   6
HETATM    6  S   UNL     1      40.165 -14.817   3.680  1.00  0.00    -0.070 SA
BRANCH   6   7
HETATM    7  C   UNL     1      41.499 -13.729   4.323  1.00  0.00     0.180 C 
BRANCH   7   8
HETATM    8  C   UNL     1      42.069 -12.822   3.216  1.00  0.00     0.244 C 
HETATM    9  N   UNL     1      41.518 -11.568   3.025  1.00  0.00    -0.278 N 
HETATM   10  C   UNL     1      40.317 -11.074   3.465  1.00  0.00     0.320 C 
HETATM   11  H   UNL     1      41.982 -11.043   2.301  1.00  0.00     0.173 HD
HETATM   12  N   UNL     1      40.061  -9.817   3.011  1.00  0.00    -0.352 N 
HETATM   13  O   UNL     1      39.535 -11.628   4.220  1.00  0.00    -0.247 OA
HETATM   14  H   UNL     1      40.367  -9.530   2.093  1.00  0.00     0.160 HD
HETATM   15  H   UNL     1      39.150  -9.462   3.283  1.00  0.00     0.160 HD
HETATM   16  O   UNL     1      42.980 -13.156   2.449  1.00  0.00    -0.271 OA
ENDBRANCH   7   8
BRANCH   7  17
HETATM   17  C   UNL     1      42.531 -14.473   5.161  1.00  0.00    -0.035 A 
HETATM   18  C   UNL     1      42.665 -15.866   5.014  1.00  0.00     0.009 A 
HETATM   19  C   UNL     1      43.596 -16.581   5.770  1.00  0.00     0.001 A 
HETATM   20  C   UNL     1      44.411 -15.920   6.684  1.00  0.00     0.000 A 
HETATM   21  C   UNL     1      44.294 -14.542   6.844  1.00  0.00     0.001 A 
HETATM   22  C   UNL     1      43.362 -13.824   6.090  1.00  0.00     0.009 A 
ENDBRANCH   7  17
ENDBRANCH   6   7
ENDBRANCH   3   6
BRANCH   2  23
HETATM   23  C   UNL     1      41.889 -16.408   1.363  1.00  0.00     0.043 A 
HETATM   24  C   UNL     1      43.270 -16.178   1.431  1.00  0.00     0.033 A 
HETATM   25  C   UNL     1      44.139 -17.239   1.702  1.00  0.00     0.044 A 
HETATM   26  C   UNL     1      43.629 -18.516   1.905  1.00  0.00     0.116 A 
HETATM   27  F   UNL     1      44.463 -19.528   2.165  1.00  0.00    -0.206 F 
HETATM   28  C   UNL     1      42.261 -18.756   1.845  1.00  0.00     0.044 A 
HETATM   29  C   UNL     1      41.385 -17.702   1.575  1.00  0.00     0.033 A 
ENDBRANCH   2  23
BRANCH   1  30
HETATM   30  C   UNL     1      41.534 -14.971  -1.400  1.00  0.00     0.255 C 
HETATM   31  C   UNL     1      40.724 -15.659  -2.502  1.00  0.00     0.049 C 
BRANCH  30  32
HETATM   32  N   UNL     1      42.136 -13.660  -1.971  1.00  0.00    -0.060 N 
HETATM   33  H   UNL     1      43.089 -13.904  -2.265  1.00  0.00     0.280 HD
HETATM   34  C   UNL     1      41.435 -13.105  -3.202  1.00  0.00     0.236 C 
HETATM   35  C   UNL     1      42.280 -11.973  -3.777  1.00  0.00     0.028 C 
HETATM   36  C   UNL     1      42.510 -10.872  -2.747  1.00  0.00     0.003 C 
HETATM   37  C   UNL     1      43.096 -11.434  -1.456  1.00  0.00     0.028 C 
HETATM   38  C   UNL     1      42.266 -12.589  -0.908  1.00  0.00     0.236 C 
ENDBRANCH  30  32
ENDBRANCH   1  30
TORSDOF 7
ENDMDL
MODEL 2
REMARK VINA RESULT:      -8.4      2.358      6.664
REMARK  7 active torsions:
REMARK  status: ('A' for Active; 'I' for Inactive)
REMARK    1  A    between atoms: C_2  and  N_3 
REMARK    2  A    between atoms: C_2  and  C_10 
REMARK    3  A    between atoms: N_11  and  C_12 
REMARK    4  A    between atoms: C_19  and  S_20 
REMARK    5  A    between atoms: S_20  and  C_21 
REMARK    6  A    between atoms: C_21  and  C_22 
REMARK    7  A    between atoms: C_21  and  C_28 
REMARK       I    between atoms: C_22  and  N_23 
REMARK       I    between atoms: N_23  and  C_24 
REMARK       I    between atoms: C_24  and  N_25 
ROOT
HETATM    1  C   UNL     1      42.015 -14.399   4.255  1.00  0.00     0.166 A 
HETATM    2  N   UNL     1      42.163 -14.854   2.947  1.00  0.00    -0.274 N 
HETATM    3  C   UNL     1      41.860 -13.743   2.172  1.00  0.00     0.197 A 
HETATM    4  N   UNL     1      41.690 -12.701   2.951  1.00  0.00    -0.122 NA
HETATM    5  N   UNL     1      41.811 -13.099   4.245  1.00  0.00    -0.131 NA
ENDROOT
BRANCH   3   6
HETATM    6  S   UNL     1      41.809 -13.731   0.443  1.00  0.00    -0.070 SA
BRANCH   6   7
HETATM    7  C   UNL     1      40.026 -13.601   0.015  1.00  0.00     0.180 C 
BRANCH   7   8
HETATM    8  C   UNL     1      39.131 -14.005   1.203  1.00  0.00     0.244 C 
HETATM    9  N   UNL     1      38.409 -13.028   1.863  1.00  0.00    -0.278 N 
HETATM   10  C   UNL     1      38.573 -11.667   1.841  1.00  0.00     0.320 C 
HETATM   11  H   UNL     1      37.832 -13.399   2.601  1.00  0.00     0.173 HD
HETATM   12  N   UNL     1      37.731 -11.016   2.688  1.00  0.00    -0.352 N 
HETATM   13  O   UNL     1      39.340 -11.038   1.130  1.00  0.00    -0.247 OA
HETATM   14  H   UNL     1      37.465 -11.432   3.569  1.00  0.00     0.160 HD
HETATM   15  H   UNL     1      37.880 -10.013   2.724  1.00  0.00     0.160 HD
HETATM   16  O   UNL     1      39.037 -15.160   1.637  1.00  0.00    -0.271 OA
ENDBRANCH   7   8
BRANCH   7  17
HETATM   17  C   UNL     1      39.679 -14.246  -1.320  1.00  0.00    -0.035 A 
HETATM   18  C   UNL     1      40.611 -15.099  -1.938  1.00  0.00     0.009 A 
HETATM   19  C   UNL     1      40.329 -15.703  -3.165  1.00  0.00     0.001 A 
HETATM   20  C   UNL     1      39.112 -15.467  -3.797  1.00  0.00     0.000 A 
HETATM   21  C   UNL     1      38.176 -14.626  -3.202  1.00  0.00     0.001 A 
HETATM   22  C   UNL     1      38.456 -14.020  -1.975  1.00  0.00     0.009 A 
ENDBRANCH   7  17
ENDBRANCH   6   7
ENDBRANCH   3   6
BRANCH   2  23
HETATM   23  C   UNL     1      42.505 -16.172   2.547  1.00  0.00     0.043 A 
HETATM   24  C   UNL     1      41.513 -17.131   2.300  1.00  0.00     0.033 A 
HETATM   25  C   UNL     1      41.877 -18.422   1.905  1.00  0.00     0.044 A 
HETATM   26  C   UNL     1      43.220 -18.747   1.757  1.00  0.00     0.116 A 
HETATM   27  F   UNL     1      43.564 -19.983   1.378  1.00  0.00    -0.206 F 
HETATM   28  C   UNL     1      44.213 -17.803   1.994  1.00  0.00     0.044 A 
HETATM   29  C   UNL     1      43.859 -16.511   2.389  1.00  0.00     0.033 A 
ENDBRANCH   2  23
BRANCH   1  30
HETATM   30  C   UNL     1      41.903 -15.250   5.482  1.00  0.00     0.255 C 
HETATM   31  C   UNL     1      40.497 -15.836   5.634  1.00  0.00     0.049 C 
BRANCH  30  32
HETATM   32  N   UNL     1      42.933 -16.407   5.549  1.00  0.00    -0.060 N 
HETATM   33  H   UNL     1      43.388 -16.419   4.629  1.00  0.00     0.280 HD
HETATM   34  C   UNL     1      44.043 -16.231   6.576  1.00  0.00     0.236 C 
HETATM   35  C   UNL     1      45.094 -17.313   6.351  1.00  0.00     0.028 C 
HETATM   36  C   UNL     1      44.484 -18.708   6.452  1.00  0.00     0.003 C 
HETATM   37  C   UNL     1      43.288 -18.860   5.518  1.00  0.00     0.028 C 
HETATM   38  C   UNL     1      42.261 -17.753   5.724  1.00  0.00     0.236 C 
ENDBRANCH  30  32
ENDBRANCH   1  30
TORSDOF 7
ENDMDL
MODEL 3
REMARK VINA RESULT:      -8.4      2.882      5.533
REMARK  7 active torsions:
REMARK  status: ('A' for Active; 'I' for Inactive)
REMARK    1  A    between atoms: C_2  and  N_3 
REMARK    2  A    between atoms: C_2  and  C_10 
REMARK    3  A    between atoms: N_11  and  C_12 
REMARK    4  A    between atoms: C_19  and  S_20 
REMARK    5  A    between atoms: S_20  and  C_21 
REMARK    6  A    between atoms: C_21  and  C_22 
REMARK    7  A    between atoms: C_21  and  C_28 
REMARK       I    between atoms: C_22  and  N_23 
REMARK       I    between atoms: N_23  and  C_24 
REMARK       I    between atoms: C_24  and  N_25 
ROOT
HETATM    1  C   UNL     1      39.079 -14.250   1.112  1.00  0.00     0.166 A 
HETATM    2  N   UNL     1      40.240 -14.750   0.524  1.00  0.00    -0.274 N 
HETATM    3  C   UNL     1      40.509 -15.904   1.247  1.00  0.00     0.197 A 
HETATM    4  N   UNL     1      39.525 -16.134   2.083  1.00  0.00    -0.122 NA
HETATM    5  N   UNL     1      38.622 -15.123   1.984  1.00  0.00    -0.131 NA
ENDROOT
BRANCH   3   6
HETATM    6  S   UNL     1      41.888 -16.919   1.006  1.00  0.00    -0.070 SA
BRANCH   6   7
HETATM    7  C   UNL     1      42.491 -17.320   2.695  1.00  0.00     0.180 C 
BRANCH   7   8
HETATM    8  C   UNL     1      43.221 -16.122   3.333  1.00  0.00     0.244 C 
HETATM    9  N   UNL     1      42.957 -15.798   4.650  1.00  0.00    -0.278 N 
HETATM   10  C   UNL     1      41.905 -16.182   5.442  1.00  0.00     0.320 C 
HETATM   11  H   UNL     1      43.508 -15.022   4.980  1.00  0.00     0.173 HD
HETATM   12  N   UNL     1      41.922 -15.596   6.670  1.00  0.00    -0.352 N 
HETATM   13  O   UNL     1      41.038 -16.992   5.158  1.00  0.00    -0.247 OA
HETATM   14  H   UNL     1      42.262 -14.652   6.784  1.00  0.00     0.160 HD
HETATM   15  H   UNL     1      41.120 -15.828   7.245  1.00  0.00     0.160 HD
HETATM   16  O   UNL     1      44.017 -15.395   2.726  1.00  0.00    -0.271 OA
ENDBRANCH   7   8
BRANCH   7  17
HETATM   17  C   UNL     1      43.223 -18.654   2.772  1.00  0.00    -0.035 A 
HETATM   18  C   UNL     1      43.024 -19.610   1.759  1.00  0.00     0.009 A 
HETATM   19  C   UNL     1      43.674 -20.845   1.800  1.00  0.00     0.001 A 
HETATM   20  C   UNL     1      44.534 -21.148   2.852  1.00  0.00     0.000 A 
HETATM   21  C   UNL     1      44.743 -20.216   3.864  1.00  0.00     0.001 A 
HETATM   22  C   UNL     1      44.094 -18.980   3.826  1.00  0.00     0.009 A 
ENDBRANCH   7  17
ENDBRANCH   6   7
ENDBRANCH   3   6
BRANCH   2  23
HETATM   23  C   UNL     1      40.968 -14.156  -0.540  1.00  0.00     0.043 A 
HETATM   24  C   UNL     1      40.836 -14.627  -1.854  1.00  0.00     0.033 A 
HETATM   25  C   UNL     1      41.563 -14.023  -2.885  1.00  0.00     0.044 A 
HETATM   26  C   UNL     1      42.410 -12.957  -2.602  1.00  0.00     0.116 A 
HETATM   27  F   UNL     1      43.102 -12.382  -3.591  1.00  0.00    -0.206 F 
HETATM   28  C   UNL     1      42.544 -12.479  -1.304  1.00  0.00     0.044 A 
HETATM   29  C   UNL     1      41.822 -13.075  -0.268  1.00  0.00     0.033 A 
ENDBRANCH   2  23
BRANCH   1  30
HETATM   30  C   UNL     1      38.527 -12.868   0.947  1.00  0.00     0.255 C 
HETATM   31  C   UNL     1      37.158 -12.886   0.263  1.00  0.00     0.049 C 
BRANCH  30  32
HETATM   32  N   UNL     1      38.411 -12.069   2.271  1.00  0.00    -0.060 N 
HETATM   33  H   UNL     1      37.656 -12.523   2.797  1.00  0.00     0.280 HD
HETATM   34  C   UNL     1      39.642 -12.107   3.164  1.00  0.00     0.236 C 
HETATM   35  C   UNL     1      39.287 -11.490   4.514  1.00  0.00     0.028 C 
HETATM   36  C   UNL     1      38.782 -10.060   4.354  1.00  0.00     0.003 C 
HETATM   37  C   UNL     1      37.627  -9.986   3.362  1.00  0.00     0.028 C 
HETATM   38  C   UNL     1      37.977 -10.638   2.030  1.00  0.00     0.236 C 
ENDBRANCH  30  32
ENDBRANCH   1  30
TORSDOF 7
ENDMDL
MODEL 4
REMARK VINA RESULT:      -8.2      2.260      3.253
REMARK  7 active torsions:
REMARK  status: ('A' for Active; 'I' for Inactive)
REMARK    1  A    between atoms: C_2  and  N_3 
REMARK    2  A    between atoms: C_2  and  C_10 
REMARK    3  A    between atoms: N_11  and  C_12 
REMARK    4  A    between atoms: C_19  and  S_20 
REMARK    5  A    between atoms: S_20  and  C_21 
REMARK    6  A    between atoms: C_21  and  C_22 
REMARK    7  A    between atoms: C_21  and  C_28 
REMARK       I    between atoms: C_22  and  N_23 
REMARK       I    between atoms: N_23  and  C_24 
REMARK       I    between atoms: C_24  and  N_25 
ROOT
HETATM    1  C   UNL     1      41.070 -14.285   2.157  1.00  0.00     0.166 A 
HETATM    2  N   UNL     1      42.177 -14.861   2.777  1.00  0.00    -0.274 N 
HETATM    3  C   UNL     1      42.708 -13.828   3.537  1.00  0.00     0.197 A 
HETATM    4  N   UNL     1      41.910 -12.788   3.477  1.00  0.00    -0.122 NA
HETATM    5  N   UNL     1      40.877 -13.077   2.641  1.00  0.00    -0.131 NA
ENDROOT
BRANCH   3   6
HETATM    6  S   UNL     1      44.152 -13.940   4.481  1.00  0.00    -0.070 SA
BRANCH   6   7
HETATM    7  C   UNL     1      43.584 -14.332   6.185  1.00  0.00     0.180 C 
BRANCH   7   8
HETATM    8  C   UNL     1      44.271 -13.430   7.229  1.00  0.00     0.244 C 
HETATM    9  N   UNL     1      43.536 -12.432   7.842  1.00  0.00    -0.278 N 
HETATM   10  C   UNL     1      42.337 -11.885   7.466  1.00  0.00     0.320 C 
HETATM   11  H   UNL     1      44.067 -11.923   8.530  1.00  0.00     0.173 HD
HETATM   12  N   UNL     1      41.949 -10.854   8.265  1.00  0.00    -0.352 N 
HETATM   13  O   UNL     1      41.619 -12.261   6.554  1.00  0.00    -0.247 OA
HETATM   14  H   UNL     1      42.633 -10.229   8.666  1.00  0.00     0.160 HD
HETATM   15  H   UNL     1      41.091 -10.404   7.964  1.00  0.00     0.160 HD
HETATM   16  O   UNL     1      45.466 -13.516   7.538  1.00  0.00    -0.271 OA
ENDBRANCH   7   8
BRANCH   7  17
HETATM   17  C   UNL     1      43.593 -15.823   6.495  1.00  0.00    -0.035 A 
HETATM   18  C   UNL     1      44.762 -16.570   6.259  1.00  0.00     0.009 A 
HETATM   19  C   UNL     1      44.805 -17.940   6.526  1.00  0.00     0.001 A 
HETATM   20  C   UNL     1      43.684 -18.588   7.033  1.00  0.00     0.000 A 
HETATM   21  C   UNL     1      42.517 -17.867   7.273  1.00  0.00     0.001 A 
HETATM   22  C   UNL     1      42.471 -16.497   7.006  1.00  0.00     0.009 A 
ENDBRANCH   7  17
ENDBRANCH   6   7
ENDBRANCH   3   6
BRANCH   2  23
HETATM   23  C   UNL     1      42.640 -16.192   2.608  1.00  0.00     0.043 A 
HETATM   24  C   UNL     1      42.194 -17.223   3.447  1.00  0.00     0.033 A 
HETATM   25  C   UNL     1      42.664 -18.526   3.257  1.00  0.00     0.044 A 
HETATM   26  C   UNL     1      43.569 -18.793   2.236  1.00  0.00     0.116 A 
HETATM   27  F   UNL     1      44.015 -20.041   2.057  1.00  0.00    -0.206 F 
HETATM   28  C   UNL     1      44.014 -17.780   1.394  1.00  0.00     0.044 A 
HETATM   29  C   UNL     1      43.550 -16.476   1.576  1.00  0.00     0.033 A 
ENDBRANCH   2  23
BRANCH   1  30
HETATM   30  C   UNL     1      40.322 -14.842   0.985  1.00  0.00     0.255 C 
HETATM   31  C   UNL     1      38.807 -14.735   1.181  1.00  0.00     0.049 C 
BRANCH  30  32
HETATM   32  N   UNL     1      40.695 -14.194  -0.373  1.00  0.00    -0.060 N 
HETATM   33  H   UNL     1      39.944 -13.521  -0.568  1.00  0.00     0.280 HD
HETATM   34  C   UNL     1      41.994 -13.402  -0.382  1.00  0.00     0.236 C 
HETATM   35  C   UNL     1      42.092 -12.636  -1.697  1.00  0.00     0.028 C 
HETATM   36  C   UNL     1      42.028 -13.579  -2.894  1.00  0.00     0.003 C 
HETATM   37  C   UNL     1      40.793 -14.470  -2.834  1.00  0.00     0.028 C 
HETATM   38  C   UNL     1      40.683 -15.203  -1.502  1.00  0.00     0.236 C 
ENDBRANCH  30  32
ENDBRANCH   1  30
TORSDOF 7
ENDMDL
MODEL 5
REMARK VINA RESULT:      -8.2      3.473      5.927
REMARK  7 active torsions:
REMARK  status: ('A' for Active; 'I' for Inactive)
REMARK    1  A    between atoms: C_2  and  N_3 
REMARK    2  A    between atoms: C_2  and  C_10 
REMARK    3  A    between atoms: N_11  and  C_12 
REMARK    4  A    between atoms: C_19  and  S_20 
REMARK    5  A    between atoms: S_20  and  C_21 
REMARK    6  A    between atoms: C_21  and  C_22 
REMARK    7  A    between atoms: C_21  and  C_28 
REMARK       I    between atoms: C_22  and  N_23 
REMARK       I    between atoms: N_23  and  C_24 
REMARK       I    between atoms: C_24  and  N_25 
ROOT
HETATM    1  C   UNL     1      41.735 -12.326   2.799  1.00  0.00     0.166 A 
HETATM    2  N   UNL     1      41.859 -12.802   4.103  1.00  0.00    -0.274 N 
HETATM    3  C   UNL     1      42.838 -13.781   4.007  1.00  0.00     0.197 A 
HETATM    4  N   UNL     1      43.340 -13.780   2.795  1.00  0.00    -0.122 NA
HETATM    5  N   UNL     1      42.675 -12.859   2.048  1.00  0.00    -0.131 NA
ENDROOT
BRANCH   3   6
HETATM    6  S   UNL     1      43.367 -14.777   5.319  1.00  0.00    -0.070 SA
BRANCH   6   7
HETATM    7  C   UNL     1      42.695 -16.449   4.954  1.00  0.00     0.180 C 
BRANCH   7   8
HETATM    8  C   UNL     1      41.178 -16.401   4.692  1.00  0.00     0.244 C 
HETATM    9  N   UNL     1      40.692 -16.842   3.475  1.00  0.00    -0.278 N 
HETATM   10  C   UNL     1      41.365 -17.051   2.299  1.00  0.00     0.320 C 
HETATM   11  H   UNL     1      39.687 -16.800   3.416  1.00  0.00     0.173 HD
HETATM   12  N   UNL     1      40.545 -17.406   1.272  1.00  0.00    -0.352 N 
HETATM   13  O   UNL     1      42.572 -16.990   2.130  1.00  0.00    -0.247 OA
HETATM   14  H   UNL     1      39.611 -17.026   1.206  1.00  0.00     0.160 HD
HETATM   15  H   UNL     1      41.022 -17.508   0.384  1.00  0.00     0.160 HD
HETATM   16  O   UNL     1      40.351 -15.956   5.497  1.00  0.00    -0.271 OA
ENDBRANCH   7   8
BRANCH   7  17
HETATM   17  C   UNL     1      43.160 -17.513   5.940  1.00  0.00    -0.035 A 
HETATM   18  C   UNL     1      43.381 -17.159   7.284  1.00  0.00     0.009 A 
HETATM   19  C   UNL     1      43.812 -18.107   8.214  1.00  0.00     0.001 A 
HETATM   20  C   UNL     1      44.030 -19.424   7.821  1.00  0.00     0.000 A 
HETATM   21  C   UNL     1      43.818 -19.794   6.495  1.00  0.00     0.001 A 
HETATM   22  C   UNL     1      43.387 -18.848   5.563  1.00  0.00     0.009 A 
ENDBRANCH   7  17
ENDBRANCH   6   7
ENDBRANCH   3   6
BRANCH   2  23
HETATM   23  C   UNL     1      41.103 -12.382   5.229  1.00  0.00     0.043 A 
HETATM   24  C   UNL     1      39.849 -12.943   5.506  1.00  0.00     0.033 A 
HETATM   25  C   UNL     1      39.127 -12.513   6.622  1.00  0.00     0.044 A 
HETATM   26  C   UNL     1      39.656 -11.532   7.453  1.00  0.00     0.116 A 
HETATM   27  F   UNL     1      38.962 -11.124   8.521  1.00  0.00    -0.206 F 
HETATM   28  C   UNL     1      40.901 -10.972   7.191  1.00  0.00     0.044 A 
HETATM   29  C   UNL     1      41.631 -11.396   6.078  1.00  0.00     0.033 A 
ENDBRANCH   2  23
BRANCH   1  30
HETATM   30  C   UNL     1      40.609 -11.498   2.262  1.00  0.00     0.255 C 
HETATM   31  C   UNL     1      41.038 -10.692   1.033  1.00  0.00     0.049 C 
BRANCH  30  32
HETATM   32  N   UNL     1      39.337 -12.310   1.905  1.00  0.00    -0.060 N 
HETATM   33  H   UNL     1      38.767 -12.310   2.758  1.00  0.00     0.280 HD
HETATM   34  C   UNL     1      38.470 -11.711   0.807  1.00  0.00     0.236 C 
HETATM   35  C   UNL     1      37.156 -12.482   0.746  1.00  0.00     0.028 C 
HETATM   36  C   UNL     1      37.395 -13.967   0.492  1.00  0.00     0.003 C 
HETATM   37  C   UNL     1      38.364 -14.555   1.511  1.00  0.00     0.028 C 
HETATM   38  C   UNL     1      39.660 -13.756   1.593  1.00  0.00     0.236 C 
ENDBRANCH  30  32
ENDBRANCH   1  30
TORSDOF 7
ENDMDL
MODEL 6
REMARK VINA RESULT:      -8.1      2.949      5.796
REMARK  7 active torsions:
REMARK  status: ('A' for Active; 'I' for Inactive)
REMARK    1  A    between atoms: C_2  and  N_3 
REMARK    2  A    between atoms: C_2  and  C_10 
REMARK    3  A    between atoms: N_11  and  C_12 
REMARK    4  A    between atoms: C_19  and  S_20 
REMARK    5  A    between atoms: S_20  and  C_21 
REMARK    6  A    between atoms: C_21  and  C_22 
REMARK    7  A    between atoms: C_21  and  C_28 
REMARK       I    between atoms: C_22  and  N_23 
REMARK       I    between atoms: N_23  and  C_24 
REMARK       I    between atoms: C_24  and  N_25 
ROOT
HETATM    1  C   UNL     1      39.667 -12.980   3.224  1.00  0.00     0.166 A 
HETATM    2  N   UNL     1      40.049 -14.007   2.363  1.00  0.00    -0.274 N 
HETATM    3  C   UNL     1      40.292 -15.079   3.211  1.00  0.00     0.197 A 
HETATM    4  N   UNL     1      39.951 -14.753   4.434  1.00  0.00    -0.122 NA
HETATM    5  N   UNL     1      39.537 -13.459   4.443  1.00  0.00    -0.131 NA
ENDROOT
BRANCH   3   6
HETATM    6  S   UNL     1      40.872 -16.627   2.701  1.00  0.00    -0.070 SA
BRANCH   6   7
HETATM    7  C   UNL     1      42.351 -16.954   3.742  1.00  0.00     0.180 C 
BRANCH   7   8
HETATM    8  C   UNL     1      43.259 -15.712   3.836  1.00  0.00     0.244 C 
HETATM    9  N   UNL     1      43.628 -15.243   5.083  1.00  0.00    -0.278 N 
HETATM   10  C   UNL     1      43.077 -15.514   6.308  1.00  0.00     0.320 C 
HETATM   11  H   UNL     1      44.247 -14.450   5.035  1.00  0.00     0.173 HD
HETATM   12  N   UNL     1      43.646 -14.801   7.318  1.00  0.00    -0.352 N 
HETATM   13  O   UNL     1      42.200 -16.329   6.548  1.00  0.00    -0.247 OA
HETATM   14  H   UNL     1      43.973 -13.859   7.160  1.00  0.00     0.160 HD
HETATM   15  H   UNL     1      43.209 -14.951   8.221  1.00  0.00     0.160 HD
HETATM   16  O   UNL     1      43.661 -15.074   2.856  1.00  0.00    -0.271 OA
ENDBRANCH   7   8
BRANCH   7  17
HETATM   17  C   UNL     1      43.055 -18.259   3.396  1.00  0.00    -0.035 A 
HETATM   18  C   UNL     1      43.940 -18.834   4.326  1.00  0.00     0.009 A 
HETATM   19  C   UNL     1      44.607 -20.027   4.041  1.00  0.00     0.001 A 
HETATM   20  C   UNL     1      44.402 -20.668   2.823  1.00  0.00     0.000 A 
HETATM   21  C   UNL     1      43.530 -20.116   1.888  1.00  0.00     0.001 A 
HETATM   22  C   UNL     1      42.863 -18.922   2.171  1.00  0.00     0.009 A 
ENDBRANCH   7  17
ENDBRANCH   6   7
ENDBRANCH   3   6
BRANCH   2  23
HETATM   23  C   UNL     1      40.184 -13.917   0.953  1.00  0.00     0.043 A 
HETATM   24  C   UNL     1      41.439 -13.723   0.360  1.00  0.00     0.033 A 
HETATM   25  C   UNL     1      41.545 -13.641  -1.031  1.00  0.00     0.044 A 
HETATM   26  C   UNL     1      40.406 -13.753  -1.820  1.00  0.00     0.116 A 
HETATM   27  F   UNL     1      40.512 -13.674  -3.151  1.00  0.00    -0.206 F 
HETATM   28  C   UNL     1      39.157 -13.950  -1.244  1.00  0.00     0.044 A 
HETATM   29  C   UNL     1      39.041 -14.035   0.145  1.00  0.00     0.033 A 
ENDBRANCH   2  23
BRANCH   1  30
HETATM   30  C   UNL     1      39.601 -11.523   2.890  1.00  0.00     0.255 C 
HETATM   31  C   UNL     1      38.211 -11.122   2.385  1.00  0.00     0.049 C 
BRANCH  30  32
HETATM   32  N   UNL     1      39.994 -10.583   4.059  1.00  0.00    -0.060 N 
HETATM   33  H   UNL     1      40.443 -11.190   4.755  1.00  0.00     0.280 HD
HETATM   34  C   UNL     1      41.008  -9.503   3.713  1.00  0.00     0.236 C 
HETATM   35  C   UNL     1      41.469  -8.832   5.003  1.00  0.00     0.028 C 
HETATM   36  C   UNL     1      40.292  -8.239   5.771  1.00  0.00     0.003 C 
HETATM   37  C   UNL     1      39.207  -9.282   6.016  1.00  0.00     0.028 C 
HETATM   38  C   UNL     1      38.779  -9.974   4.727  1.00  0.00     0.236 C 
ENDBRANCH  30  32
ENDBRANCH   1  30
TORSDOF 7
ENDMDL
MODEL 7
REMARK VINA RESULT:      -8.0      2.999      6.827
REMARK  7 active torsions:
REMARK  status: ('A' for Active; 'I' for Inactive)
REMARK    1  A    between atoms: C_2  and  N_3 
REMARK    2  A    between atoms: C_2  and  C_10 
REMARK    3  A    between atoms: N_11  and  C_12 
REMARK    4  A    between atoms: C_19  and  S_20 
REMARK    5  A    between atoms: S_20  and  C_21 
REMARK    6  A    between atoms: C_21  and  C_22 
REMARK    7  A    between atoms: C_21  and  C_28 
REMARK       I    between atoms: C_22  and  N_23 
REMARK       I    between atoms: N_23  and  C_24 
REMARK       I    between atoms: C_24  and  N_25 
ROOT
HETATM    1  C   UNL     1      41.288 -14.776   2.248  1.00  0.00     0.166 A 
HETATM    2  N   UNL     1      40.593 -14.282   1.146  1.00  0.00    -0.274 N 
HETATM    3  C   UNL     1      39.261 -14.372   1.525  1.00  0.00     0.197 A 
HETATM    4  N   UNL     1      39.188 -14.749   2.779  1.00  0.00    -0.122 NA
HETATM    5  N   UNL     1      40.446 -14.976   3.240  1.00  0.00    -0.131 NA
ENDROOT
BRANCH   3   6
HETATM    6  S   UNL     1      37.919 -13.959   0.514  1.00  0.00    -0.070 SA
BRANCH   6   7
HETATM    7  C   UNL     1      38.005 -12.133   0.321  1.00  0.00     0.180 C 
BRANCH   7   8
HETATM    8  C   UNL     1      36.735 -11.450   0.865  1.00  0.00     0.244 C 
HETATM    9  N   UNL     1      36.823 -10.686   2.015  1.00  0.00    -0.278 N 
HETATM   10  C   UNL     1      37.811 -10.662   2.964  1.00  0.00     0.320 C 
HETATM   11  H   UNL     1      35.947 -10.257   2.266  1.00  0.00     0.173 HD
HETATM   12  N   UNL     1      37.521  -9.847   4.014  1.00  0.00    -0.352 N 
HETATM   13  O   UNL     1      38.882 -11.246   2.915  1.00  0.00    -0.247 OA
HETATM   14  H   UNL     1      36.570  -9.747   4.338  1.00  0.00     0.160 HD
HETATM   15  H   UNL     1      38.218  -9.863   4.750  1.00  0.00     0.160 HD
HETATM   16  O   UNL     1      35.615 -11.564   0.353  1.00  0.00    -0.271 OA
ENDBRANCH   7   8
BRANCH   7  17
HETATM   17  C   UNL     1      38.446 -11.694  -1.069  1.00  0.00    -0.035 A 
HETATM   18  C   UNL     1      38.207 -12.540  -2.168  1.00  0.00     0.009 A 
HETATM   19  C   UNL     1      38.602 -12.173  -3.456  1.00  0.00     0.001 A 
HETATM   20  C   UNL     1      39.242 -10.956  -3.670  1.00  0.00     0.000 A 
HETATM   21  C   UNL     1      39.488 -10.105  -2.596  1.00  0.00     0.001 A 
HETATM   22  C   UNL     1      39.095 -10.470  -1.307  1.00  0.00     0.009 A 
ENDBRANCH   7  17
ENDBRANCH   6   7
ENDBRANCH   3   6
BRANCH   2  23
HETATM   23  C   UNL     1      41.160 -13.839  -0.078  1.00  0.00     0.043 A 
HETATM   24  C   UNL     1      41.051 -14.611  -1.243  1.00  0.00     0.033 A 
HETATM   25  C   UNL     1      41.617 -14.151  -2.436  1.00  0.00     0.044 A 
HETATM   26  C   UNL     1      42.283 -12.931  -2.461  1.00  0.00     0.116 A 
HETATM   27  F   UNL     1      42.822 -12.494  -3.605  1.00  0.00    -0.206 F 
HETATM   28  C   UNL     1      42.393 -12.155  -1.313  1.00  0.00     0.044 A 
HETATM   29  C   UNL     1      41.831 -12.606  -0.117  1.00  0.00     0.033 A 
ENDBRANCH   2  23
BRANCH   1  30
HETATM   30  C   UNL     1      42.721 -15.209   2.271  1.00  0.00     0.255 C 
HETATM   31  C   UNL     1      43.526 -14.436   3.320  1.00  0.00     0.049 C 
BRANCH  30  32
HETATM   32  N   UNL     1      42.923 -16.728   2.509  1.00  0.00    -0.060 N 
HETATM   33  H   UNL     1      41.988 -17.143   2.424  1.00  0.00     0.280 HD
HETATM   34  C   UNL     1      43.802 -17.434   1.488  1.00  0.00     0.236 C 
HETATM   35  C   UNL     1      43.703 -18.939   1.715  1.00  0.00     0.028 C 
HETATM   36  C   UNL     1      44.118 -19.315   3.134  1.00  0.00     0.003 C 
HETATM   37  C   UNL     1      43.332 -18.521   4.170  1.00  0.00     0.028 C 
HETATM   38  C   UNL     1      43.406 -17.020   3.914  1.00  0.00     0.236 C 
ENDBRANCH  30  32
ENDBRANCH   1  30
TORSDOF 7
ENDMDL
MODEL 8
REMARK VINA RESULT:      -8.0      2.906      4.241
REMARK  7 active torsions:
REMARK  status: ('A' for Active; 'I' for Inactive)
REMARK    1  A    between atoms: C_2  and  N_3 
REMARK    2  A    between atoms: C_2  and  C_10 
REMARK    3  A    between atoms: N_11  and  C_12 
REMARK    4  A    between atoms: C_19  and  S_20 
REMARK    5  A    between atoms: S_20  and  C_21 
REMARK    6  A    between atoms: C_21  and  C_22 
REMARK    7  A    between atoms: C_21  and  C_28 
REMARK       I    between atoms: C_22  and  N_23 
REMARK       I    between atoms: N_23  and  C_24 
REMARK       I    between atoms: C_24  and  N_25 
ROOT
HETATM    1  C   UNL     1      39.281 -14.472   1.024  1.00  0.00     0.166 A 
HETATM    2  N   UNL     1      40.654 -14.238   1.069  1.00  0.00    -0.274 N 
HETATM    3  C   UNL     1      41.108 -15.106   2.052  1.00  0.00     0.197 A 
HETATM    4  N   UNL     1      40.120 -15.874   2.445  1.00  0.00    -0.122 NA
HETATM    5  N   UNL     1      38.989 -15.501   1.790  1.00  0.00    -0.131 NA
ENDROOT
BRANCH   3   6
HETATM    6  S   UNL     1      42.746 -15.208   2.597  1.00  0.00    -0.070 SA
BRANCH   6   7
HETATM    7  C   UNL     1      42.633 -15.482   4.411  1.00  0.00     0.180 C 
BRANCH   7   8
HETATM    8  C   UNL     1      42.870 -14.176   5.194  1.00  0.00     0.244 C 
HETATM    9  N   UNL     1      41.872 -13.698   6.023  1.00  0.00    -0.278 N 
HETATM   10  C   UNL     1      40.542 -14.030   6.056  1.00  0.00     0.320 C 
HETATM   11  H   UNL     1      42.138 -12.860   6.513  1.00  0.00     0.173 HD
HETATM   12  N   UNL     1      39.831 -13.291   6.950  1.00  0.00    -0.352 N 
HETATM   13  O   UNL     1      39.996 -14.913   5.414  1.00  0.00    -0.247 OA
HETATM   14  H   UNL     1      40.068 -12.324   7.120  1.00  0.00     0.160 HD
HETATM   15  H   UNL     1      38.836 -13.486   6.944  1.00  0.00     0.160 HD
HETATM   16  O   UNL     1      43.899 -13.494   5.106  1.00  0.00    -0.271 OA
ENDBRANCH   7   8
BRANCH   7  17
HETATM   17  C   UNL     1      43.429 -16.690   4.888  1.00  0.00    -0.035 A 
HETATM   18  C   UNL     1      43.570 -17.803   4.039  1.00  0.00     0.009 A 
HETATM   19  C   UNL     1      44.287 -18.930   4.446  1.00  0.00     0.001 A 
HETATM   20  C   UNL     1      44.878 -18.966   5.705  1.00  0.00     0.000 A 
HETATM   21  C   UNL     1      44.750 -17.875   6.561  1.00  0.00     0.001 A 
HETATM   22  C   UNL     1      44.031 -16.747   6.157  1.00  0.00     0.009 A 
ENDBRANCH   7  17
ENDBRANCH   6   7
ENDBRANCH   3   6
BRANCH   2  23
HETATM   23  C   UNL     1      41.372 -13.287   0.296  1.00  0.00     0.043 A 
HETATM   24  C   UNL     1      41.633 -12.003   0.794  1.00  0.00     0.033 A 
HETATM   25  C   UNL     1      42.344 -11.087   0.014  1.00  0.00     0.044 A 
HETATM   26  C   UNL     1      42.791 -11.454  -1.251  1.00  0.00     0.116 A 
HETATM   27  F   UNL     1      43.472 -10.575  -1.993  1.00  0.00    -0.206 F 
HETATM   28  C   UNL     1      42.543 -12.726  -1.753  1.00  0.00     0.044 A 
HETATM   29  C   UNL     1      41.833 -13.649  -0.980  1.00  0.00     0.033 A 
ENDBRANCH   2  23
BRANCH   1  30
HETATM   30  C   UNL     1      38.254 -13.595   0.379  1.00  0.00     0.255 C 
HETATM   31  C   UNL     1      37.893 -12.402   1.269  1.00  0.00     0.049 C 
BRANCH  30  32
HETATM   32  N   UNL     1      38.657 -13.066  -1.021  1.00  0.00    -0.060 N 
HETATM   33  H   UNL     1      39.669 -13.228  -1.091  1.00  0.00     0.280 HD
HETATM   34  C   UNL     1      38.022 -13.791  -2.198  1.00  0.00     0.236 C 
HETATM   35  C   UNL     1      38.698 -13.324  -3.484  1.00  0.00     0.028 C 
HETATM   36  C   UNL     1      38.579 -11.813  -3.655  1.00  0.00     0.003 C 
HETATM   37  C   UNL     1      39.097 -11.073  -2.427  1.00  0.00     0.028 C 
HETATM   38  C   UNL     1      38.443 -11.572  -1.144  1.00  0.00     0.236 C 
ENDBRANCH  30  32
ENDBRANCH   1  30
TORSDOF 7
ENDMDL
MODEL 9
REMARK VINA RESULT:      -8.0      2.958      7.122
REMARK  7 active torsions:
REMARK  status: ('A' for Active; 'I' for Inactive)
REMARK    1  A    between atoms: C_2  and  N_3 
REMARK    2  A    between atoms: C_2  and  C_10 
REMARK    3  A    between atoms: N_11  and  C_12 
REMARK    4  A    between atoms: C_19  and  S_20 
REMARK    5  A    between atoms: S_20  and  C_21 
REMARK    6  A    between atoms: C_21  and  C_22 
REMARK    7  A    between atoms: C_21  and  C_28 
REMARK       I    between atoms: C_22  and  N_23 
REMARK       I    between atoms: N_23  and  C_24 
REMARK       I    between atoms: C_24  and  N_25 
ROOT
HETATM    1  C   UNL     1      41.158 -16.487   3.502  1.00  0.00     0.166 A 
HETATM    2  N   UNL     1      40.509 -15.261   3.370  1.00  0.00    -0.274 N 
HETATM    3  C   UNL     1      39.763 -15.403   2.208  1.00  0.00     0.197 A 
HETATM    4  N   UNL     1      39.856 -16.639   1.779  1.00  0.00    -0.122 NA
HETATM    5  N   UNL     1      40.701 -17.323   2.594  1.00  0.00    -0.131 NA
ENDROOT
BRANCH   3   6
HETATM    6  S   UNL     1      38.795 -14.157   1.501  1.00  0.00    -0.070 SA
BRANCH   6   7
HETATM    7  C   UNL     1      39.865 -13.383   0.223  1.00  0.00     0.180 C 
BRANCH   7   8
HETATM    8  C   UNL     1      39.606 -11.867   0.114  1.00  0.00     0.244 C 
HETATM    9  N   UNL     1      40.684 -11.005   0.037  1.00  0.00    -0.278 N 
HETATM   10  C   UNL     1      42.000 -11.236   0.345  1.00  0.00     0.320 C 
HETATM   11  H   UNL     1      40.408 -10.042  -0.064  1.00  0.00     0.173 HD
HETATM   12  N   UNL     1      42.776 -10.123   0.231  1.00  0.00    -0.352 N 
HETATM   13  O   UNL     1      42.500 -12.307   0.650  1.00  0.00    -0.247 OA
HETATM   14  H   UNL     1      42.404  -9.212   0.458  1.00  0.00     0.160 HD
HETATM   15  H   UNL     1      43.740 -10.267   0.511  1.00  0.00     0.160 HD
HETATM   16  O   UNL     1      38.480 -11.356   0.125  1.00  0.00    -0.271 OA
ENDBRANCH   7   8
BRANCH   7  17
HETATM   17  C   UNL     1      39.876 -14.145  -1.096  1.00  0.00    -0.035 A 
HETATM   18  C   UNL     1      38.769 -14.047  -1.959  1.00  0.00     0.009 A 
HETATM   19  C   UNL     1      38.743 -14.736  -3.174  1.00  0.00     0.001 A 
HETATM   20  C   UNL     1      39.819 -15.534  -3.548  1.00  0.00     0.000 A 
HETATM   21  C   UNL     1      40.924 -15.644  -2.708  1.00  0.00     0.001 A 
HETATM   22  C   UNL     1      40.953 -14.957  -1.492  1.00  0.00     0.009 A 
ENDBRANCH   7  17
ENDBRANCH   6   7
ENDBRANCH   3   6
BRANCH   2  23
HETATM   23  C   UNL     1      40.645 -14.140   4.230  1.00  0.00     0.043 A 
HETATM   24  C   UNL     1      39.790 -13.965   5.326  1.00  0.00     0.033 A 
HETATM   25  C   UNL     1      39.946 -12.853   6.159  1.00  0.00     0.044 A 
HETATM   26  C   UNL     1      40.950 -11.927   5.896  1.00  0.00     0.116 A 
HETATM   27  F   UNL     1      41.097 -10.865   6.696  1.00  0.00    -0.206 F 
HETATM   28  C   UNL     1      41.807 -12.093   4.815  1.00  0.00     0.044 A 
HETATM   29  C   UNL     1      41.659 -13.201   3.977  1.00  0.00     0.033 A 
ENDBRANCH   2  23
BRANCH   1  30
HETATM   30  C   UNL     1      42.329 -16.779   4.388  1.00  0.00     0.255 C 
HETATM   31  C   UNL     1      41.943 -16.721   5.869  1.00  0.00     0.049 C 
BRANCH  30  32
HETATM   32  N   UNL     1      43.017 -18.140   4.106  1.00  0.00    -0.060 N 
HETATM   33  H   UNL     1      42.250 -18.812   3.990  1.00  0.00     0.280 HD
HETATM   34  C   UNL     1      43.840 -18.200   2.827  1.00  0.00     0.236 C 
HETATM   35  C   UNL     1      44.240 -19.649   2.571  1.00  0.00     0.028 C 
HETATM   36  C   UNL     1      45.027 -20.223   3.744  1.00  0.00     0.003 C 
HETATM   37  C   UNL     1      44.269 -20.056   5.056  1.00  0.00     0.028 C 
HETATM   38  C   UNL     1      43.840 -18.612   5.286  1.00  0.00     0.236 C 
ENDBRANCH  30  32
ENDBRANCH   1  30
TORSDOF 7
ENDMDL
MODEL 10
REMARK VINA RESULT:      -7.9      2.993      4.916
REMARK  7 active torsions:
REMARK  status: ('A' for Active; 'I' for Inactive)
REMARK    1  A    between atoms: C_2  and  N_3 
REMARK    2  A    between atoms: C_2  and  C_10 
REMARK    3  A    between atoms: N_11  and  C_12 
REMARK    4  A    between atoms: C_19  and  S_20 
REMARK    5  A    between atoms: S_20  and  C_21 
REMARK    6  A    between atoms: C_21  and  C_22 
REMARK    7  A    between atoms: C_21  and  C_28 
REMARK       I    between atoms: C_22  and  N_23 
REMARK       I    between atoms: N_23  and  C_24 
REMARK       I    between atoms: C_24  and  N_25 
ROOT
HETATM    1  C   UNL     1      41.107 -14.850  -0.618  1.00  0.00     0.166 A 
HETATM    2  N   UNL     1      40.662 -14.860   0.702  1.00  0.00    -0.274 N 
HETATM    3  C   UNL     1      40.960 -16.141   1.144  1.00  0.00     0.197 A 
HETATM    4  N   UNL     1      41.640 -16.775   0.218  1.00  0.00    -0.122 NA
HETATM    5  N   UNL     1      41.756 -15.967  -0.869  1.00  0.00    -0.131 NA
ENDROOT
BRANCH   3   6
HETATM    6  S   UNL     1      40.566 -16.760   2.710  1.00  0.00    -0.070 SA
BRANCH   6   7
HETATM    7  C   UNL     1      42.171 -16.878   3.599  1.00  0.00     0.180 C 
BRANCH   7   8
HETATM    8  C   UNL     1      43.001 -15.591   3.434  1.00  0.00     0.244 C 
HETATM    9  N   UNL     1      42.997 -14.654   4.451  1.00  0.00    -0.278 N 
HETATM   10  C   UNL     1      42.123 -14.518   5.499  1.00  0.00     0.320 C 
HETATM   11  H   UNL     1      43.595 -13.867   4.260  1.00  0.00     0.173 HD
HETATM   12  N   UNL     1      42.374 -13.420   6.263  1.00  0.00    -0.352 N 
HETATM   13  O   UNL     1      41.223 -15.286   5.801  1.00  0.00    -0.247 OA
HETATM   14  H   UNL     1      42.723 -12.571   5.842  1.00  0.00     0.160 HD
HETATM   15  H   UNL     1      41.701 -13.277   7.007  1.00  0.00     0.160 HD
HETATM   16  O   UNL     1      43.658 -15.316   2.423  1.00  0.00    -0.271 OA
ENDBRANCH   7   8
BRANCH   7  17
HETATM   17  C   UNL     1      42.914 -18.181   3.330  1.00  0.00    -0.035 A 
HETATM   18  C   UNL     1      43.838 -18.656   4.278  1.00  0.00     0.009 A 
HETATM   19  C   UNL     1      44.541 -19.843   4.062  1.00  0.00     0.001 A 
HETATM   20  C   UNL     1      44.335 -20.576   2.898  1.00  0.00     0.000 A 
HETATM   21  C   UNL     1      43.425 -20.122   1.947  1.00  0.00     0.001 A 
HETATM   22  C   UNL     1      42.721 -18.935   2.159  1.00  0.00     0.009 A 
ENDBRANCH   7  17
ENDBRANCH   6   7
ENDBRANCH   3   6
BRANCH   2  23
HETATM   23  C   UNL     1      40.020 -13.792   1.383  1.00  0.00     0.043 A 
HETATM   24  C   UNL     1      40.729 -12.976   2.275  1.00  0.00     0.033 A 
HETATM   25  C   UNL     1      40.073 -11.930   2.931  1.00  0.00     0.044 A 
HETATM   26  C   UNL     1      38.722 -11.703   2.693  1.00  0.00     0.116 A 
HETATM   27  F   UNL     1      38.098 -10.700   3.321  1.00  0.00    -0.206 F 
HETATM   28  C   UNL     1      38.010 -12.502   1.806  1.00  0.00     0.044 A 
HETATM   29  C   UNL     1      38.657 -13.550   1.146  1.00  0.00     0.033 A 
ENDBRANCH   2  23
BRANCH   1  30
HETATM   30  C   UNL     1      40.751 -13.840  -1.665  1.00  0.00     0.255 C 
HETATM   31  C   UNL     1      41.759 -13.844  -2.818  1.00  0.00     0.049 C 
BRANCH  30  32
HETATM   32  N   UNL     1      39.325 -14.008  -2.251  1.00  0.00    -0.060 N 
HETATM   33  H   UNL     1      38.756 -14.378  -1.481  1.00  0.00     0.280 HD
HETATM   34  C   UNL     1      38.652 -12.721  -2.703  1.00  0.00     0.236 C 
HETATM   35  C   UNL     1      37.189 -13.018  -3.019  1.00  0.00     0.028 C 
HETATM   36  C   UNL     1      37.061 -14.096  -4.089  1.00  0.00     0.003 C 
HETATM   37  C   UNL     1      37.837 -15.352  -3.709  1.00  0.00     0.028 C 
HETATM   38  C   UNL     1      39.288 -15.041  -3.358  1.00  0.00     0.236 C 
ENDBRANCH  30  32
ENDBRANCH   1  30
TORSDOF 7
ENDMDL
