MODEL 1
REMARK VINA RESULT:     -10.0      0.000      0.000
REMARK  8 active torsions:
REMARK  status: ('A' for Active; 'I' for Inactive)
REMARK    1  A    between atoms: C_2  and  O_3 
REMARK    2  A    between atoms: O_3  and  C_4 
REMARK    3  A    between atoms: C_5  and  C_6 
REMARK    4  A    between atoms: C_6  and  N_7 
REMARK    5  A    between atoms: C_9  and  C_10 
REMARK    6  A    between atoms: C_10  and  C_11 
REMARK       I    between atoms: C_11  and  N_12 
REMARK    7  A    between atoms: N_12  and  C_13 
REMARK    8  A    between atoms: C_13  and  C_14 
ROOT
HETATM    1  N   UNL     1      42.519 -17.443   3.808  1.00  0.00    -0.052 N 
HETATM    2  H   UNL     1      41.873 -18.194   4.073  1.00  0.00     0.281 HD
HETATM    3  C   UNL     1      42.312 -16.273   4.828  1.00  0.00     0.288 C 
HETATM    4  C   UNL     1      40.847 -15.735   4.768  1.00  0.00     0.249 C 
HETATM    5  O   UNL     1      40.232 -15.313   5.744  1.00  0.00    -0.271 OA
HETATM    6  N   UNL     1      40.251 -15.700   3.532  1.00  0.00    -0.358 N 
HETATM    7  C   UNL     1      40.642 -16.549   2.424  1.00  0.00     0.150 C 
HETATM    8  C   UNL     1      42.129 -16.919   2.421  1.00  0.00     0.256 C 
HETATM    9  H   UNL     1      39.297 -15.346   3.552  1.00  0.00     0.162 HD
ENDROOT
BRANCH   3  10
HETATM   10  C   UNL     1      42.629 -16.696   6.269  1.00  0.00     0.145 C 
BRANCH  10  11
HETATM   11  C   UNL     1      43.898 -15.994   6.698  1.00  0.00     0.220 C 
HETATM   12  N   UNL     1      43.752 -14.649   6.911  1.00  0.00    -0.355 N 
HETATM   13  H   UNL     1      42.882 -14.183   6.692  1.00  0.00     0.162 HD
HETATM   14  O   UNL     1      44.945 -16.612   6.856  1.00  0.00    -0.274 OA
BRANCH  12  15
HETATM   15  C   UNL     1      44.902 -13.783   7.046  1.00  0.00     0.179 C 
BRANCH  15  16
HETATM   16  C   UNL     1      44.600 -12.856   8.167  1.00  0.00     0.028 A 
HETATM   17  N   UNL     1      43.447 -12.104   8.201  1.00  0.00    -0.357 N 
HETATM   18  H   UNL     1      42.714 -12.125   7.501  1.00  0.00     0.166 HD
HETATM   19  C   UNL     1      43.390 -11.362   9.360  1.00  0.00     0.043 A 
HETATM   20  C   UNL     1      44.558 -11.629  10.076  1.00  0.00    -0.005 A 
HETATM   21  C   UNL     1      42.400 -10.485   9.821  1.00  0.00     0.033 A 
HETATM   22  C   UNL     1      45.313 -12.561   9.313  1.00  0.00     0.040 A 
HETATM   23  C   UNL     1      44.758 -10.989  11.312  1.00  0.00     0.056 A 
HETATM   24  C   UNL     1      43.776 -10.114  11.778  1.00  0.00     0.117 A 
HETATM   25  C   UNL     1      42.617  -9.862  11.052  1.00  0.00     0.044 A 
HETATM   26  F   UNL     1      43.954  -9.504  12.957  1.00  0.00    -0.206 F 
ENDBRANCH  15  16
ENDBRANCH  12  15
ENDBRANCH  10  11
ENDBRANCH   3  10
BRANCH   1  27
HETATM   27  C   UNL     1      43.929 -18.009   3.813  1.00  0.00     0.277 C 
BRANCH  27  28
HETATM   28  C   UNL     1      44.083 -19.452   3.386  1.00  0.00     0.001 A 
HETATM   29  C   UNL     1      44.511 -20.401   4.336  1.00  0.00     0.076 A 
HETATM   30  C   UNL     1      44.670 -21.740   3.968  1.00  0.00     0.037 A 
HETATM   31  C   UNL     1      44.355 -22.154   2.675  1.00  0.00     0.003 A 
HETATM   32  C   UNL     1      43.868 -21.240   1.748  1.00  0.00     0.001 A 
HETATM   33  C   UNL     1      43.719 -19.899   2.102  1.00  0.00     0.012 A 
BRANCH  29  34
HETATM   34  O   UNL     1      44.752 -19.915   5.594  1.00  0.00    -0.351 OA
BRANCH  34  35
HETATM   35  C   UNL     1      43.652 -19.926   6.512  1.00  0.00     0.171 C 
HETATM   36  C   UNL     1      43.749 -21.198   7.337  1.00  0.00     0.034 C 
ENDBRANCH  34  35
ENDBRANCH  29  34
ENDBRANCH  27  28
ENDBRANCH   1  27
TORSDOF 8
ENDMDL
MODEL 2
REMARK VINA RESULT:      -9.8      1.157      2.245
REMARK  8 active torsions:
REMARK  status: ('A' for Active; 'I' for Inactive)
REMARK    1  A    between atoms: C_2  and  O_3 
REMARK    2  A    between atoms: O_3  and  C_4 
REMARK    3  A    between atoms: C_5  and  C_6 
REMARK    4  A    between atoms: C_6  and  N_7 
REMARK    5  A    between atoms: C_9  and  C_10 
REMARK    6  A    between atoms: C_10  and  C_11 
REMARK       I    between atoms: C_11  and  N_12 
REMARK    7  A    between atoms: N_12  and  C_13 
REMARK    8  A    between atoms: C_13  and  C_14 
ROOT
HETATM    1  N   UNL     1      42.130 -16.818   3.837  1.00  0.00    -0.052 N 
HETATM    2  H   UNL     1      41.505 -17.402   4.403  1.00  0.00     0.281 HD
HETATM    3  C   UNL     1      41.901 -15.333   4.278  1.00  0.00     0.288 C 
HETATM    4  C   UNL     1      40.423 -14.899   4.024  1.00  0.00     0.249 C 
HETATM    5  O   UNL     1      39.805 -14.119   4.745  1.00  0.00    -0.271 OA
HETATM    6  N   UNL     1      39.818 -15.395   2.897  1.00  0.00    -0.358 N 
HETATM    7  C   UNL     1      40.222 -16.621   2.238  1.00  0.00     0.150 C 
HETATM    8  C   UNL     1      41.717 -16.930   2.364  1.00  0.00     0.256 C 
HETATM    9  H   UNL     1      38.855 -15.083   2.783  1.00  0.00     0.162 HD
ENDROOT
BRANCH   3  10
HETATM   10  C   UNL     1      42.239 -15.109   5.758  1.00  0.00     0.145 C 
BRANCH  10  11
HETATM   11  C   UNL     1      43.562 -14.379   5.835  1.00  0.00     0.220 C 
HETATM   12  N   UNL     1      44.141 -14.394   7.076  1.00  0.00    -0.355 N 
HETATM   13  H   UNL     1      43.650 -14.781   7.871  1.00  0.00     0.162 HD
HETATM   14  O   UNL     1      44.056 -13.852   4.845  1.00  0.00    -0.274 OA
BRANCH  12  15
HETATM   15  C   UNL     1      45.247 -13.519   7.398  1.00  0.00     0.179 C 
BRANCH  15  16
HETATM   16  C   UNL     1      44.754 -12.587   8.445  1.00  0.00     0.028 A 
HETATM   17  N   UNL     1      43.511 -12.000   8.371  1.00  0.00    -0.357 N 
HETATM   18  H   UNL     1      42.833 -12.155   7.633  1.00  0.00     0.166 HD
HETATM   19  C   UNL     1      43.283 -11.215   9.480  1.00  0.00     0.043 A 
HETATM   20  C   UNL     1      44.428 -11.284  10.274  1.00  0.00    -0.005 A 
HETATM   21  C   UNL     1      42.158 -10.460   9.833  1.00  0.00     0.033 A 
HETATM   22  C   UNL     1      45.348 -12.142   9.610  1.00  0.00     0.040 A 
HETATM   23  C   UNL     1      44.463 -10.562  11.480  1.00  0.00     0.056 A 
HETATM   24  C   UNL     1      43.346  -9.808  11.839  1.00  0.00     0.117 A 
HETATM   25  C   UNL     1      42.212  -9.753  11.037  1.00  0.00     0.044 A 
HETATM   26  F   UNL     1      43.366  -9.121  12.989  1.00  0.00    -0.206 F 
ENDBRANCH  15  16
ENDBRANCH  12  15
ENDBRANCH  10  11
ENDBRANCH   3  10
BRANCH   1  27
HETATM   27  C   UNL     1      43.554 -17.303   4.054  1.00  0.00     0.277 C 
BRANCH  27  28
HETATM   28  C   UNL     1      43.730 -18.517   4.937  1.00  0.00     0.001 A 
HETATM   29  C   UNL     1      44.216 -19.711   4.364  1.00  0.00     0.076 A 
HETATM   30  C   UNL     1      44.380 -20.852   5.154  1.00  0.00     0.037 A 
HETATM   31  C   UNL     1      44.117 -20.802   6.522  1.00  0.00     0.003 A 
HETATM   32  C   UNL     1      43.702 -19.613   7.111  1.00  0.00     0.001 A 
HETATM   33  C   UNL     1      43.521 -18.473   6.328  1.00  0.00     0.012 A 
BRANCH  29  34
HETATM   34  O   UNL     1      44.494 -19.656   3.024  1.00  0.00    -0.351 OA
BRANCH  34  35
HETATM   35  C   UNL     1      43.526 -20.231   2.139  1.00  0.00     0.171 C 
HETATM   36  C   UNL     1      44.040 -21.594   1.711  1.00  0.00     0.034 C 
ENDBRANCH  34  35
ENDBRANCH  29  34
ENDBRANCH  27  28
ENDBRANCH   1  27
TORSDOF 8
ENDMDL
MODEL 3
REMARK VINA RESULT:      -9.4      1.645      2.217
REMARK  8 active torsions:
REMARK  status: ('A' for Active; 'I' for Inactive)
REMARK    1  A    between atoms: C_2  and  O_3 
REMARK    2  A    between atoms: O_3  and  C_4 
REMARK    3  A    between atoms: C_5  and  C_6 
REMARK    4  A    between atoms: C_6  and  N_7 
REMARK    5  A    between atoms: C_9  and  C_10 
REMARK    6  A    between atoms: C_10  and  C_11 
REMARK       I    between atoms: C_11  and  N_12 
REMARK    7  A    between atoms: N_12  and  C_13 
REMARK    8  A    between atoms: C_13  and  C_14 
ROOT
HETATM    1  N   UNL     1      42.067 -16.651   3.156  1.00  0.00    -0.052 N 
HETATM    2  H   UNL     1      41.616 -17.335   3.773  1.00  0.00     0.281 HD
HETATM    3  C   UNL     1      41.713 -15.228   3.704  1.00  0.00     0.288 C 
HETATM    4  C   UNL     1      40.170 -14.993   3.688  1.00  0.00     0.249 C 
HETATM    5  O   UNL     1      39.569 -14.332   4.531  1.00  0.00    -0.271 OA
HETATM    6  N   UNL     1      39.473 -15.530   2.634  1.00  0.00    -0.358 N 
HETATM    7  C   UNL     1      39.932 -16.666   1.860  1.00  0.00     0.150 C 
HETATM    8  C   UNL     1      41.457 -16.769   1.753  1.00  0.00     0.256 C 
HETATM    9  H   UNL     1      38.472 -15.351   2.677  1.00  0.00     0.162 HD
ENDROOT
BRANCH   3  10
HETATM   10  C   UNL     1      42.236 -15.010   5.130  1.00  0.00     0.145 C 
BRANCH  10  11
HETATM   11  C   UNL     1      42.517 -13.534   5.309  1.00  0.00     0.220 C 
HETATM   12  N   UNL     1      41.714 -12.916   6.230  1.00  0.00    -0.355 N 
HETATM   13  H   UNL     1      40.944 -13.413   6.659  1.00  0.00     0.162 HD
HETATM   14  O   UNL     1      43.412 -12.976   4.684  1.00  0.00    -0.274 OA
BRANCH  12  15
HETATM   15  C   UNL     1      41.649 -11.475   6.322  1.00  0.00     0.179 C 
BRANCH  15  16
HETATM   16  C   UNL     1      42.101 -11.120   7.692  1.00  0.00     0.028 A 
HETATM   17  N   UNL     1      43.226 -11.678   8.256  1.00  0.00    -0.357 N 
HETATM   18  H   UNL     1      43.839 -12.345   7.801  1.00  0.00     0.166 HD
HETATM   19  C   UNL     1      43.446 -11.154   9.510  1.00  0.00     0.043 A 
HETATM   20  C   UNL     1      42.413 -10.251   9.765  1.00  0.00    -0.005 A 
HETATM   21  C   UNL     1      44.474 -11.411  10.426  1.00  0.00     0.033 A 
HETATM   22  C   UNL     1      41.570 -10.245   8.620  1.00  0.00     0.040 A 
HETATM   23  C   UNL     1      42.394  -9.570  10.995  1.00  0.00     0.056 A 
HETATM   24  C   UNL     1      43.416  -9.819  11.912  1.00  0.00     0.117 A 
HETATM   25  C   UNL     1      44.438 -10.720  11.640  1.00  0.00     0.044 A 
HETATM   26  F   UNL     1      43.410  -9.171  13.084  1.00  0.00    -0.206 F 
ENDBRANCH  15  16
ENDBRANCH  12  15
ENDBRANCH  10  11
ENDBRANCH   3  10
BRANCH   1  27
HETATM   27  C   UNL     1      43.559 -16.942   3.140  1.00  0.00     0.277 C 
BRANCH  27  28
HETATM   28  C   UNL     1      43.971 -18.384   3.336  1.00  0.00     0.001 A 
HETATM   29  C   UNL     1      44.159 -18.866   4.648  1.00  0.00     0.076 A 
HETATM   30  C   UNL     1      44.548 -20.191   4.859  1.00  0.00     0.037 A 
HETATM   31  C   UNL     1      44.701 -21.058   3.779  1.00  0.00     0.003 A 
HETATM   32  C   UNL     1      44.453 -20.613   2.486  1.00  0.00     0.001 A 
HETATM   33  C   UNL     1      44.077 -19.288   2.263  1.00  0.00     0.012 A 
BRANCH  29  34
HETATM   34  O   UNL     1      43.941 -17.958   5.651  1.00  0.00    -0.351 OA
BRANCH  34  35
HETATM   35  C   UNL     1      44.819 -18.020   6.780  1.00  0.00     0.171 C 
HETATM   36  C   UNL     1      43.966 -18.208   8.022  1.00  0.00     0.034 C 
ENDBRANCH  34  35
ENDBRANCH  29  34
ENDBRANCH  27  28
ENDBRANCH   1  27
TORSDOF 8
ENDMDL
MODEL 4
REMARK VINA RESULT:      -9.2      5.080      8.236
REMARK  8 active torsions:
REMARK  status: ('A' for Active; 'I' for Inactive)
REMARK    1  A    between atoms: C_2  and  O_3 
REMARK    2  A    between atoms: O_3  and  C_4 
REMARK    3  A    between atoms: C_5  and  C_6 
REMARK    4  A    between atoms: C_6  and  N_7 
REMARK    5  A    between atoms: C_9  and  C_10 
REMARK    6  A    between atoms: C_10  and  C_11 
REMARK       I    between atoms: C_11  and  N_12 
REMARK    7  A    between atoms: N_12  and  C_13 
REMARK    8  A    between atoms: C_13  and  C_14 
ROOT
HETATM    1  N   UNL     1      42.345 -16.464   4.420  1.00  0.00    -0.052 N 
HETATM    2  H   UNL     1      42.980 -16.450   5.225  1.00  0.00     0.281 HD
HETATM    3  C   UNL     1      41.659 -15.059   4.347  1.00  0.00     0.288 C 
HETATM    4  C   UNL     1      40.838 -14.772   5.645  1.00  0.00     0.249 C 
HETATM    5  O   UNL     1      40.715 -13.657   6.144  1.00  0.00    -0.271 OA
HETATM    6  N   UNL     1      40.189 -15.839   6.214  1.00  0.00    -0.358 N 
HETATM    7  C   UNL     1      40.593 -17.219   6.033  1.00  0.00     0.150 C 
HETATM    8  C   UNL     1      41.244 -17.501   4.674  1.00  0.00     0.256 C 
HETATM    9  H   UNL     1      39.675 -15.596   7.059  1.00  0.00     0.162 HD
ENDROOT
BRANCH   3  10
HETATM   10  C   UNL     1      42.675 -13.927   4.140  1.00  0.00     0.145 C 
BRANCH  10  11
HETATM   11  C   UNL     1      42.096 -12.951   3.140  1.00  0.00     0.220 C 
HETATM   12  N   UNL     1      42.324 -13.284   1.832  1.00  0.00    -0.355 N 
HETATM   13  H   UNL     1      42.918 -14.068   1.594  1.00  0.00     0.162 HD
HETATM   14  O   UNL     1      41.462 -11.967   3.505  1.00  0.00    -0.274 OA
BRANCH  12  15
HETATM   15  C   UNL     1      42.096 -12.334   0.766  1.00  0.00     0.179 C 
BRANCH  15  16
HETATM   16  C   UNL     1      41.306 -13.048  -0.271  1.00  0.00     0.028 A 
HETATM   17  N   UNL     1      41.831 -14.092  -0.998  1.00  0.00    -0.357 N 
HETATM   18  H   UNL     1      42.765 -14.470  -0.887  1.00  0.00     0.166 HD
HETATM   19  C   UNL     1      40.885 -14.602  -1.859  1.00  0.00     0.043 A 
HETATM   20  C   UNL     1      39.727 -13.842  -1.695  1.00  0.00    -0.005 A 
HETATM   21  C   UNL     1      40.971 -15.670  -2.761  1.00  0.00     0.033 A 
HETATM   22  C   UNL     1      40.005 -12.864  -0.701  1.00  0.00     0.040 A 
HETATM   23  C   UNL     1      38.595 -14.153  -2.468  1.00  0.00     0.056 A 
HETATM   24  C   UNL     1      38.672 -15.217  -3.368  1.00  0.00     0.117 A 
HETATM   25  C   UNL     1      39.834 -15.965  -3.517  1.00  0.00     0.044 A 
HETATM   26  F   UNL     1      37.597 -15.525  -4.105  1.00  0.00    -0.206 F 
ENDBRANCH  15  16
ENDBRANCH  12  15
ENDBRANCH  10  11
ENDBRANCH   3  10
BRANCH   1  27
HETATM   27  C   UNL     1      43.157 -16.808   3.182  1.00  0.00     0.277 C 
BRANCH  27  28
HETATM   28  C   UNL     1      43.581 -18.251   3.028  1.00  0.00     0.001 A 
HETATM   29  C   UNL     1      44.309 -18.861   4.070  1.00  0.00     0.076 A 
HETATM   30  C   UNL     1      44.722 -20.192   3.952  1.00  0.00     0.037 A 
HETATM   31  C   UNL     1      44.371 -20.938   2.828  1.00  0.00     0.003 A 
HETATM   32  C   UNL     1      43.596 -20.367   1.825  1.00  0.00     0.001 A 
HETATM   33  C   UNL     1      43.191 -19.036   1.928  1.00  0.00     0.012 A 
BRANCH  29  34
HETATM   34  O   UNL     1      44.568 -18.069   5.157  1.00  0.00    -0.351 OA
BRANCH  34  35
HETATM   35  C   UNL     1      44.484 -18.690   6.445  1.00  0.00     0.171 C 
HETATM   36  C   UNL     1      43.976 -17.652   7.430  1.00  0.00     0.034 C 
ENDBRANCH  34  35
ENDBRANCH  29  34
ENDBRANCH  27  28
ENDBRANCH   1  27
TORSDOF 8
ENDMDL
MODEL 5
REMARK VINA RESULT:      -9.2      5.430      8.350
REMARK  8 active torsions:
REMARK  status: ('A' for Active; 'I' for Inactive)
REMARK    1  A    between atoms: C_2  and  O_3 
REMARK    2  A    between atoms: O_3  and  C_4 
REMARK    3  A    between atoms: C_5  and  C_6 
REMARK    4  A    between atoms: C_6  and  N_7 
REMARK    5  A    between atoms: C_9  and  C_10 
REMARK    6  A    between atoms: C_10  and  C_11 
REMARK       I    between atoms: C_11  and  N_12 
REMARK    7  A    between atoms: N_12  and  C_13 
REMARK    8  A    between atoms: C_13  and  C_14 
ROOT
HETATM    1  N   UNL     1      42.432 -16.055   3.485  1.00  0.00    -0.052 N 
HETATM    2  H   UNL     1      43.036 -16.167   2.663  1.00  0.00     0.281 HD
HETATM    3  C   UNL     1      41.163 -15.264   3.021  1.00  0.00     0.288 C 
HETATM    4  C   UNL     1      41.555 -13.854   2.474  1.00  0.00     0.249 C 
HETATM    5  O   UNL     1      40.969 -13.290   1.554  1.00  0.00    -0.271 OA
HETATM    6  N   UNL     1      42.587 -13.210   3.108  1.00  0.00    -0.358 N 
HETATM    7  C   UNL     1      43.626 -13.892   3.854  1.00  0.00     0.150 C 
HETATM    8  C   UNL     1      43.160 -15.190   4.521  1.00  0.00     0.256 C 
HETATM    9  H   UNL     1      42.803 -12.299   2.708  1.00  0.00     0.162 HD
ENDROOT
BRANCH   3  10
HETATM   10  C   UNL     1      40.374 -16.016   1.941  1.00  0.00     0.145 C 
BRANCH  10  11
HETATM   11  C   UNL     1      41.186 -16.000   0.665  1.00  0.00     0.220 C 
HETATM   12  N   UNL     1      40.532 -15.466  -0.412  1.00  0.00    -0.355 N 
HETATM   13  H   UNL     1      39.556 -15.207  -0.347  1.00  0.00     0.162 HD
HETATM   14  O   UNL     1      42.339 -16.417   0.640  1.00  0.00    -0.274 OA
BRANCH  12  15
HETATM   15  C   UNL     1      41.041 -15.629  -1.755  1.00  0.00     0.179 C 
BRANCH  15  16
HETATM   16  C   UNL     1      41.412 -14.272  -2.232  1.00  0.00     0.028 A 
HETATM   17  N   UNL     1      41.965 -13.331  -1.392  1.00  0.00    -0.357 N 
HETATM   18  H   UNL     1      42.180 -13.475  -0.412  1.00  0.00     0.166 HD
HETATM   19  C   UNL     1      42.252 -12.176  -2.087  1.00  0.00     0.043 A 
HETATM   20  C   UNL     1      41.845 -12.378  -3.405  1.00  0.00    -0.005 A 
HETATM   21  C   UNL     1      42.837 -10.982  -1.646  1.00  0.00     0.033 A 
HETATM   22  C   UNL     1      41.312 -13.694  -3.483  1.00  0.00     0.040 A 
HETATM   23  C   UNL     1      42.021 -11.340  -4.337  1.00  0.00     0.056 A 
HETATM   24  C   UNL     1      42.605 -10.148  -3.907  1.00  0.00     0.117 A 
HETATM   25  C   UNL     1      43.007  -9.965  -2.589  1.00  0.00     0.044 A 
HETATM   26  F   UNL     1      42.783  -9.155  -4.788  1.00  0.00    -0.206 F 
ENDBRANCH  15  16
ENDBRANCH  12  15
ENDBRANCH  10  11
ENDBRANCH   3  10
BRANCH   1  27
HETATM   27  C   UNL     1      42.120 -17.437   4.034  1.00  0.00     0.277 C 
BRANCH  27  28
HETATM   28  C   UNL     1      42.982 -18.575   3.537  1.00  0.00     0.001 A 
HETATM   29  C   UNL     1      43.985 -19.088   4.385  1.00  0.00     0.076 A 
HETATM   30  C   UNL     1      44.804 -20.135   3.950  1.00  0.00     0.037 A 
HETATM   31  C   UNL     1      44.598 -20.712   2.698  1.00  0.00     0.003 A 
HETATM   32  C   UNL     1      43.568 -20.260   1.881  1.00  0.00     0.001 A 
HETATM   33  C   UNL     1      42.755 -19.206   2.300  1.00  0.00     0.012 A 
BRANCH  29  34
HETATM   34  O   UNL     1      44.085 -18.493   5.614  1.00  0.00    -0.351 OA
BRANCH  34  35
HETATM   35  C   UNL     1      43.845 -19.325   6.756  1.00  0.00     0.171 C 
HETATM   36  C   UNL     1      44.059 -18.480   7.999  1.00  0.00     0.034 C 
ENDBRANCH  34  35
ENDBRANCH  29  34
ENDBRANCH  27  28
ENDBRANCH   1  27
TORSDOF 8
ENDMDL
MODEL 6
REMARK VINA RESULT:      -9.1      4.706      8.499
REMARK  8 active torsions:
REMARK  status: ('A' for Active; 'I' for Inactive)
REMARK    1  A    between atoms: C_2  and  O_3 
REMARK    2  A    between atoms: O_3  and  C_4 
REMARK    3  A    between atoms: C_5  and  C_6 
REMARK    4  A    between atoms: C_6  and  N_7 
REMARK    5  A    between atoms: C_9  and  C_10 
REMARK    6  A    between atoms: C_10  and  C_11 
REMARK       I    between atoms: C_11  and  N_12 
REMARK    7  A    between atoms: N_12  and  C_13 
REMARK    8  A    between atoms: C_13  and  C_14 
ROOT
HETATM    1  N   UNL     1      42.908 -16.202   5.632  1.00  0.00    -0.052 N 
HETATM    2  H   UNL     1      43.589 -16.012   4.888  1.00  0.00     0.281 HD
HETATM    3  C   UNL     1      41.842 -15.057   5.589  1.00  0.00     0.288 C 
HETATM    4  C   UNL     1      42.508 -13.667   5.844  1.00  0.00     0.249 C 
HETATM    5  O   UNL     1      42.135 -12.623   5.316  1.00  0.00    -0.271 OA
HETATM    6  N   UNL     1      43.536 -13.631   6.752  1.00  0.00    -0.358 N 
HETATM    7  C   UNL     1      44.357 -14.778   7.086  1.00  0.00     0.150 C 
HETATM    8  C   UNL     1      43.620 -16.118   6.988  1.00  0.00     0.256 C 
HETATM    9  H   UNL     1      43.936 -12.703   6.875  1.00  0.00     0.162 HD
ENDROOT
BRANCH   3  10
HETATM   10  C   UNL     1      41.093 -15.013   4.251  1.00  0.00     0.145 C 
BRANCH  10  11
HETATM   11  C   UNL     1      42.050 -14.517   3.189  1.00  0.00     0.220 C 
HETATM   12  N   UNL     1      41.542 -13.527   2.392  1.00  0.00    -0.355 N 
HETATM   13  H   UNL     1      40.573 -13.248   2.469  1.00  0.00     0.162 HD
HETATM   14  O   UNL     1      43.186 -14.970   3.096  1.00  0.00    -0.274 OA
BRANCH  12  15
HETATM   15  C   UNL     1      42.201 -13.141   1.164  1.00  0.00     0.179 C 
BRANCH  15  16
HETATM   16  C   UNL     1      41.320 -13.588   0.055  1.00  0.00     0.028 A 
HETATM   17  N   UNL     1      41.790 -14.361  -0.983  1.00  0.00    -0.357 N 
HETATM   18  H   UNL     1      42.741 -14.700  -1.076  1.00  0.00     0.166 HD
HETATM   19  C   UNL     1      40.768 -14.670  -1.853  1.00  0.00     0.043 A 
HETATM   20  C   UNL     1      39.614 -14.053  -1.368  1.00  0.00    -0.005 A 
HETATM   21  C   UNL     1      40.782 -15.444  -3.020  1.00  0.00     0.033 A 
HETATM   22  C   UNL     1      39.975 -13.370  -0.174  1.00  0.00     0.040 A 
HETATM   23  C   UNL     1      38.411 -14.206  -2.080  1.00  0.00     0.056 A 
HETATM   24  C   UNL     1      38.417 -14.977  -3.243  1.00  0.00     0.117 A 
HETATM   25  C   UNL     1      39.576 -15.586  -3.710  1.00  0.00     0.044 A 
HETATM   26  F   UNL     1      37.275 -15.134  -3.925  1.00  0.00    -0.206 F 
ENDBRANCH  15  16
ENDBRANCH  12  15
ENDBRANCH  10  11
ENDBRANCH   3  10
BRANCH   1  27
HETATM   27  C   UNL     1      42.324 -17.585   5.396  1.00  0.00     0.277 C 
BRANCH  27  28
HETATM   28  C   UNL     1      43.210 -18.584   4.687  1.00  0.00     0.001 A 
HETATM   29  C   UNL     1      43.037 -18.785   3.302  1.00  0.00     0.076 A 
HETATM   30  C   UNL     1      43.836 -19.708   2.621  1.00  0.00     0.037 A 
HETATM   31  C   UNL     1      44.843 -20.396   3.295  1.00  0.00     0.003 A 
HETATM   32  C   UNL     1      45.068 -20.157   4.646  1.00  0.00     0.001 A 
HETATM   33  C   UNL     1      44.267 -19.247   5.337  1.00  0.00     0.012 A 
BRANCH  29  34
HETATM   34  O   UNL     1      42.057 -18.032   2.711  1.00  0.00    -0.351 OA
BRANCH  34  35
HETATM   35  C   UNL     1      42.204 -17.763   1.312  1.00  0.00     0.171 C 
HETATM   36  C   UNL     1      40.880 -17.221   0.801  1.00  0.00     0.034 C 
ENDBRANCH  34  35
ENDBRANCH  29  34
ENDBRANCH  27  28
ENDBRANCH   1  27
TORSDOF 8
ENDMDL
MODEL 7
REMARK VINA RESULT:      -8.9      1.754      3.312
REMARK  8 active torsions:
REMARK  status: ('A' for Active; 'I' for Inactive)
REMARK    1  A    between atoms: C_2  and  O_3 
REMARK    2  A    between atoms: O_3  and  C_4 
REMARK    3  A    between atoms: C_5  and  C_6 
REMARK    4  A    between atoms: C_6  and  N_7 
REMARK    5  A    between atoms: C_9  and  C_10 
REMARK    6  A    between atoms: C_10  and  C_11 
REMARK       I    between atoms: C_11  and  N_12 
REMARK    7  A    between atoms: N_12  and  C_13 
REMARK    8  A    between atoms: C_13  and  C_14 
ROOT
HETATM    1  N   UNL     1      42.196 -16.353   3.412  1.00  0.00    -0.052 N 
HETATM    2  H   UNL     1      41.586 -17.104   3.753  1.00  0.00     0.281 HD
HETATM    3  C   UNL     1      41.379 -15.020   3.495  1.00  0.00     0.288 C 
HETATM    4  C   UNL     1      40.103 -15.093   2.598  1.00  0.00     0.249 C 
HETATM    5  O   UNL     1      39.038 -14.551   2.879  1.00  0.00    -0.271 OA
HETATM    6  N   UNL     1      40.221 -15.769   1.409  1.00  0.00    -0.358 N 
HETATM    7  C   UNL     1      41.206 -16.803   1.164  1.00  0.00     0.150 C 
HETATM    8  C   UNL     1      42.516 -16.606   1.934  1.00  0.00     0.256 C 
HETATM    9  H   UNL     1      39.359 -15.789   0.867  1.00  0.00     0.162 HD
ENDROOT
BRANCH   3  10
HETATM   10  C   UNL     1      40.960 -14.685   4.933  1.00  0.00     0.145 C 
BRANCH  10  11
HETATM   11  C   UNL     1      41.411 -13.274   5.240  1.00  0.00     0.220 C 
HETATM   12  N   UNL     1      40.656 -12.636   6.187  1.00  0.00    -0.355 N 
HETATM   13  H   UNL     1      39.816 -13.066   6.554  1.00  0.00     0.162 HD
HETATM   14  O   UNL     1      42.389 -12.785   4.686  1.00  0.00    -0.274 OA
BRANCH  12  15
HETATM   15  C   UNL     1      40.763 -11.210   6.395  1.00  0.00     0.179 C 
BRANCH  15  16
HETATM   16  C   UNL     1      41.540 -11.025   7.648  1.00  0.00     0.028 A 
HETATM   17  N   UNL     1      42.795 -11.565   7.814  1.00  0.00    -0.357 N 
HETATM   18  H   UNL     1      43.297 -12.104   7.117  1.00  0.00     0.166 HD
HETATM   19  C   UNL     1      43.311 -11.215   9.042  1.00  0.00     0.043 A 
HETATM   20  C   UNL     1      42.342 -10.449   9.692  1.00  0.00    -0.005 A 
HETATM   21  C   UNL     1      44.551 -11.518   9.618  1.00  0.00     0.033 A 
HETATM   22  C   UNL     1      41.231 -10.343   8.810  1.00  0.00     0.040 A 
HETATM   23  C   UNL     1      42.614  -9.961  10.982  1.00  0.00     0.056 A 
HETATM   24  C   UNL     1      43.848 -10.258  11.561  1.00  0.00     0.117 A 
HETATM   25  C   UNL     1      44.803 -11.020  10.899  1.00  0.00     0.044 A 
HETATM   26  F   UNL     1      44.120  -9.792  12.788  1.00  0.00    -0.206 F 
ENDBRANCH  15  16
ENDBRANCH  12  15
ENDBRANCH  10  11
ENDBRANCH   3  10
BRANCH   1  27
HETATM   27  C   UNL     1      43.457 -16.347   4.261  1.00  0.00     0.277 C 
BRANCH  27  28
HETATM   28  C   UNL     1      43.546 -17.391   5.351  1.00  0.00     0.001 A 
HETATM   29  C   UNL     1      44.005 -18.683   5.020  1.00  0.00     0.076 A 
HETATM   30  C   UNL     1      44.090 -19.671   6.004  1.00  0.00     0.037 A 
HETATM   31  C   UNL     1      43.774 -19.371   7.328  1.00  0.00     0.003 A 
HETATM   32  C   UNL     1      43.386 -18.083   7.679  1.00  0.00     0.001 A 
HETATM   33  C   UNL     1      43.284 -17.094   6.701  1.00  0.00     0.012 A 
BRANCH  29  34
HETATM   34  O   UNL     1      44.339 -18.875   3.705  1.00  0.00    -0.351 OA
BRANCH  34  35
HETATM   35  C   UNL     1      44.369 -20.229   3.238  1.00  0.00     0.171 C 
HETATM   36  C   UNL     1      43.501 -20.310   1.994  1.00  0.00     0.034 C 
ENDBRANCH  34  35
ENDBRANCH  29  34
ENDBRANCH  27  28
ENDBRANCH   1  27
TORSDOF 8
ENDMDL
MODEL 8
REMARK VINA RESULT:      -8.8      1.799      4.144
REMARK  8 active torsions:
REMARK  status: ('A' for Active; 'I' for Inactive)
REMARK    1  A    between atoms: C_2  and  O_3 
REMARK    2  A    between atoms: O_3  and  C_4 
REMARK    3  A    between atoms: C_5  and  C_6 
REMARK    4  A    between atoms: C_6  and  N_7 
REMARK    5  A    between atoms: C_9  and  C_10 
REMARK    6  A    between atoms: C_10  and  C_11 
REMARK       I    between atoms: C_11  and  N_12 
REMARK    7  A    between atoms: N_12  and  C_13 
REMARK    8  A    between atoms: C_13  and  C_14 
ROOT
HETATM    1  N   UNL     1      42.578 -16.426   5.064  1.00  0.00    -0.052 N 
HETATM    2  H   UNL     1      43.352 -16.280   4.406  1.00  0.00     0.281 HD
HETATM    3  C   UNL     1      42.367 -15.080   5.835  1.00  0.00     0.288 C 
HETATM    4  C   UNL     1      43.651 -14.688   6.633  1.00  0.00     0.249 C 
HETATM    5  O   UNL     1      44.020 -13.530   6.808  1.00  0.00    -0.271 OA
HETATM    6  N   UNL     1      44.365 -15.714   7.199  1.00  0.00    -0.358 N 
HETATM    7  C   UNL     1      44.332 -17.081   6.718  1.00  0.00     0.150 C 
HETATM    8  C   UNL     1      42.993 -17.486   6.092  1.00  0.00     0.256 C 
HETATM    9  H   UNL     1      45.194 -15.402   7.702  1.00  0.00     0.162 HD
ENDROOT
BRANCH   3  10
HETATM   10  C   UNL     1      41.991 -13.926   4.896  1.00  0.00     0.145 C 
BRANCH  10  11
HETATM   11  C   UNL     1      40.910 -13.106   5.565  1.00  0.00     0.220 C 
HETATM   12  N   UNL     1      41.316 -11.862   5.967  1.00  0.00    -0.355 N 
HETATM   13  H   UNL     1      42.287 -11.588   5.898  1.00  0.00     0.162 HD
HETATM   14  O   UNL     1      39.771 -13.541   5.697  1.00  0.00    -0.274 OA
BRANCH  12  15
HETATM   15  C   UNL     1      40.510 -11.064   6.864  1.00  0.00     0.179 C 
BRANCH  15  16
HETATM   16  C   UNL     1      41.318 -10.872   8.096  1.00  0.00     0.028 A 
HETATM   17  N   UNL     1      42.610 -11.334   8.199  1.00  0.00    -0.357 N 
HETATM   18  H   UNL     1      43.120 -11.815   7.467  1.00  0.00     0.166 HD
HETATM   19  C   UNL     1      43.147 -10.993   9.421  1.00  0.00     0.043 A 
HETATM   20  C   UNL     1      42.155 -10.314  10.130  1.00  0.00    -0.005 A 
HETATM   21  C   UNL     1      44.425 -11.233   9.943  1.00  0.00     0.033 A 
HETATM   22  C   UNL     1      41.009 -10.251   9.291  1.00  0.00     0.040 A 
HETATM   23  C   UNL     1      42.442  -9.853  11.427  1.00  0.00     0.056 A 
HETATM   24  C   UNL     1      43.714 -10.088  11.953  1.00  0.00     0.117 A 
HETATM   25  C   UNL     1      44.690 -10.764  11.231  1.00  0.00     0.044 A 
HETATM   26  F   UNL     1      43.999  -9.647  13.186  1.00  0.00    -0.206 F 
ENDBRANCH  15  16
ENDBRANCH  12  15
ENDBRANCH  10  11
ENDBRANCH   3  10
BRANCH   1  27
HETATM   27  C   UNL     1      41.360 -16.868   4.269  1.00  0.00     0.277 C 
BRANCH  27  28
HETATM   28  C   UNL     1      41.381 -16.587   2.784  1.00  0.00     0.001 A 
HETATM   29  C   UNL     1      42.315 -17.268   1.975  1.00  0.00     0.076 A 
HETATM   30  C   UNL     1      42.363 -17.022   0.600  1.00  0.00     0.037 A 
HETATM   31  C   UNL     1      41.454 -16.144   0.012  1.00  0.00     0.003 A 
HETATM   32  C   UNL     1      40.485 -15.519   0.789  1.00  0.00     0.001 A 
HETATM   33  C   UNL     1      40.438 -15.747   2.164  1.00  0.00     0.012 A 
BRANCH  29  34
HETATM   34  O   UNL     1      43.136 -18.148   2.629  1.00  0.00    -0.351 OA
BRANCH  34  35
HETATM   35  C   UNL     1      43.124 -19.505   2.172  1.00  0.00     0.171 C 
HETATM   36  C   UNL     1      44.379 -20.183   2.694  1.00  0.00     0.034 C 
ENDBRANCH  34  35
ENDBRANCH  29  34
ENDBRANCH  27  28
ENDBRANCH   1  27
TORSDOF 8
ENDMDL
MODEL 9
REMARK VINA RESULT:      -8.8      2.337      3.778
REMARK  8 active torsions:
REMARK  status: ('A' for Active; 'I' for Inactive)
REMARK    1  A    between atoms: C_2  and  O_3 
REMARK    2  A    between atoms: O_3  and  C_4 
REMARK    3  A    between atoms: C_5  and  C_6 
REMARK    4  A    between atoms: C_6  and  N_7 
REMARK    5  A    between atoms: C_9  and  C_10 
REMARK    6  A    between atoms: C_10  and  C_11 
REMARK       I    between atoms: C_11  and  N_12 
REMARK    7  A    between atoms: N_12  and  C_13 
REMARK    8  A    between atoms: C_13  and  C_14 
ROOT
HETATM    1  N   UNL     1      40.624 -16.213   4.688  1.00  0.00    -0.052 N 
HETATM    2  H   UNL     1      39.613 -16.378   4.744  1.00  0.00     0.281 HD
HETATM    3  C   UNL     1      40.828 -14.708   4.310  1.00  0.00     0.288 C 
HETATM    4  C   UNL     1      40.178 -14.389   2.926  1.00  0.00     0.249 C 
HETATM    5  O   UNL     1      39.653 -13.314   2.649  1.00  0.00    -0.271 OA
HETATM    6  N   UNL     1      40.254 -15.367   1.967  1.00  0.00    -0.358 N 
HETATM    7  C   UNL     1      40.409 -16.777   2.265  1.00  0.00     0.150 C 
HETATM    8  C   UNL     1      41.202 -17.057   3.546  1.00  0.00     0.256 C 
HETATM    9  H   UNL     1      39.811 -15.108   1.088  1.00  0.00     0.162 HD
ENDROOT
BRANCH   3  10
HETATM   10  C   UNL     1      40.242 -13.760   5.366  1.00  0.00     0.145 C 
BRANCH  10  11
HETATM   11  C   UNL     1      41.270 -12.690   5.662  1.00  0.00     0.220 C 
HETATM   12  N   UNL     1      41.135 -12.106   6.892  1.00  0.00    -0.355 N 
HETATM   13  H   UNL     1      40.344 -12.324   7.484  1.00  0.00     0.162 HD
HETATM   14  O   UNL     1      42.150 -12.413   4.855  1.00  0.00    -0.274 OA
BRANCH  12  15
HETATM   15  C   UNL     1      41.839 -10.887   7.225  1.00  0.00     0.179 C 
BRANCH  15  16
HETATM   16  C   UNL     1      41.893 -10.825   8.708  1.00  0.00     0.028 A 
HETATM   17  N   UNL     1      40.802 -11.129   9.491  1.00  0.00    -0.357 N 
HETATM   18  H   UNL     1      39.898 -11.431   9.143  1.00  0.00     0.166 HD
HETATM   19  C   UNL     1      41.125 -11.032  10.826  1.00  0.00     0.043 A 
HETATM   20  C   UNL     1      42.458 -10.627  10.897  1.00  0.00    -0.005 A 
HETATM   21  C   UNL     1      40.342 -11.272  11.962  1.00  0.00     0.033 A 
HETATM   22  C   UNL     1      42.927 -10.492   9.562  1.00  0.00     0.040 A 
HETATM   23  C   UNL     1      43.046 -10.444  12.161  1.00  0.00     0.056 A 
HETATM   24  C   UNL     1      42.273 -10.683  13.298  1.00  0.00     0.117 A 
HETATM   25  C   UNL     1      40.947 -11.089  13.208  1.00  0.00     0.044 A 
HETATM   26  F   UNL     1      42.825 -10.518  14.507  1.00  0.00    -0.206 F 
ENDBRANCH  15  16
ENDBRANCH  12  15
ENDBRANCH  10  11
ENDBRANCH   3  10
BRANCH   1  27
HETATM   27  C   UNL     1      41.239 -16.592   6.025  1.00  0.00     0.277 C 
BRANCH  27  28
HETATM   28  C   UNL     1      42.584 -17.281   5.983  1.00  0.00     0.001 A 
HETATM   29  C   UNL     1      43.723 -16.579   6.427  1.00  0.00     0.076 A 
HETATM   30  C   UNL     1      44.981 -17.187   6.392  1.00  0.00     0.037 A 
HETATM   31  C   UNL     1      45.109 -18.508   5.968  1.00  0.00     0.003 A 
HETATM   32  C   UNL     1      43.984 -19.234   5.592  1.00  0.00     0.001 A 
HETATM   33  C   UNL     1      42.726 -18.630   5.610  1.00  0.00     0.012 A 
BRANCH  29  34
HETATM   34  O   UNL     1      43.497 -15.302   6.872  1.00  0.00    -0.351 OA
BRANCH  34  35
HETATM   35  C   UNL     1      44.485 -14.319   6.541  1.00  0.00     0.171 C 
HETATM   36  C   UNL     1      44.713 -13.457   7.770  1.00  0.00     0.034 C 
ENDBRANCH  34  35
ENDBRANCH  29  34
ENDBRANCH  27  28
ENDBRANCH   1  27
TORSDOF 8
ENDMDL
MODEL 10
REMARK VINA RESULT:      -8.7      4.747      9.180
REMARK  8 active torsions:
REMARK  status: ('A' for Active; 'I' for Inactive)
REMARK    1  A    between atoms: C_2  and  O_3 
REMARK    2  A    between atoms: O_3  and  C_4 
REMARK    3  A    between atoms: C_5  and  C_6 
REMARK    4  A    between atoms: C_6  and  N_7 
REMARK    5  A    between atoms: C_9  and  C_10 
REMARK    6  A    between atoms: C_10  and  C_11 
REMARK       I    between atoms: C_11  and  N_12 
REMARK    7  A    between atoms: N_12  and  C_13 
REMARK    8  A    between atoms: C_13  and  C_14 
ROOT
HETATM    1  N   UNL     1      39.837 -12.899   3.872  1.00  0.00    -0.052 N 
HETATM    2  H   UNL     1      38.872 -13.246   3.832  1.00  0.00     0.281 HD
HETATM    3  C   UNL     1      40.752 -14.119   4.226  1.00  0.00     0.288 C 
HETATM    4  C   UNL     1      40.365 -14.720   5.615  1.00  0.00     0.249 C 
HETATM    5  O   UNL     1      40.433 -15.916   5.885  1.00  0.00    -0.271 OA
HETATM    6  N   UNL     1      39.974 -13.833   6.586  1.00  0.00    -0.358 N 
HETATM    7  C   UNL     1      39.421 -12.523   6.305  1.00  0.00     0.150 C 
HETATM    8  C   UNL     1      39.954 -11.887   5.018  1.00  0.00     0.256 C 
HETATM    9  H   UNL     1      39.729 -14.279   7.468  1.00  0.00     0.162 HD
ENDROOT
BRANCH   3  10
HETATM   10  C   UNL     1      40.681 -15.226   3.166  1.00  0.00     0.145 C 
BRANCH  10  11
HETATM   11  C   UNL     1      42.053 -15.376   2.547  1.00  0.00     0.220 C 
HETATM   12  N   UNL     1      42.252 -16.568   1.903  1.00  0.00    -0.355 N 
HETATM   13  H   UNL     1      41.556 -17.300   1.946  1.00  0.00     0.162 HD
HETATM   14  O   UNL     1      42.883 -14.476   2.614  1.00  0.00    -0.274 OA
BRANCH  12  15
HETATM   15  C   UNL     1      43.576 -16.994   1.507  1.00  0.00     0.179 C 
BRANCH  15  16
HETATM   16  C   UNL     1      43.859 -18.242   2.262  1.00  0.00     0.028 A 
HETATM   17  N   UNL     1      43.803 -19.482   1.668  1.00  0.00    -0.357 N 
HETATM   18  H   UNL     1      43.589 -19.654   0.691  1.00  0.00     0.166 HD
HETATM   19  C   UNL     1      44.145 -20.464   2.570  1.00  0.00     0.043 A 
HETATM   20  C   UNL     1      44.401 -19.832   3.788  1.00  0.00    -0.005 A 
HETATM   21  C   UNL     1      44.245 -21.851   2.398  1.00  0.00     0.033 A 
HETATM   22  C   UNL     1      44.211 -18.438   3.584  1.00  0.00     0.040 A 
HETATM   23  C   UNL     1      44.772 -20.616   4.895  1.00  0.00     0.056 A 
HETATM   24  C   UNL     1      44.875 -21.997   4.731  1.00  0.00     0.117 A 
HETATM   25  C   UNL     1      44.618 -22.610   3.510  1.00  0.00     0.044 A 
HETATM   26  F   UNL     1      45.233 -22.752   5.778  1.00  0.00    -0.206 F 
ENDBRANCH  15  16
ENDBRANCH  12  15
ENDBRANCH  10  11
ENDBRANCH   3  10
BRANCH   1  27
HETATM   27  C   UNL     1      40.165 -12.263   2.531  1.00  0.00     0.277 C 
BRANCH  27  28
HETATM   28  C   UNL     1      39.419 -12.792   1.328  1.00  0.00     0.001 A 
HETATM   29  C   UNL     1      40.132 -13.027   0.134  1.00  0.00     0.076 A 
HETATM   30  C   UNL     1      39.467 -13.508  -0.998  1.00  0.00     0.037 A 
HETATM   31  C   UNL     1      38.108 -13.809  -0.937  1.00  0.00     0.003 A 
HETATM   32  C   UNL     1      37.408 -13.645   0.253  1.00  0.00     0.001 A 
HETATM   33  C   UNL     1      38.060 -13.153   1.384  1.00  0.00     0.012 A 
BRANCH  29  34
HETATM   34  O   UNL     1      41.473 -12.749   0.179  1.00  0.00    -0.351 OA
BRANCH  34  35
HETATM   35  C   UNL     1      42.167 -12.710  -1.074  1.00  0.00     0.171 C 
HETATM   36  C   UNL     1      42.738 -11.314  -1.245  1.00  0.00     0.034 C 
ENDBRANCH  34  35
ENDBRANCH  29  34
ENDBRANCH  27  28
ENDBRANCH   1  27
TORSDOF 8
ENDMDL
