MODEL 1
REMARK VINA RESULT:      -9.3      0.000      0.000
REMARK  5 active torsions:
REMARK  status: ('A' for Active; 'I' for Inactive)
REMARK    1  A    between atoms: C_3  and  O_4 
REMARK    2  A    between atoms: C_6  and  N_7 
REMARK       I    between atoms: N_7  and  C_8 
REMARK    3  A    between atoms: C_8  and  C_9 
REMARK    4  A    between atoms: C_12  and  C_13 
REMARK    5  A    between atoms: C_18  and  C_19 
ROOT
HETATM    1  C   UNL     1      41.340 -14.591   2.130  1.00  0.00     0.096 A 
HETATM    2  C   UNL     1      41.609 -15.383   3.231  1.00  0.00     0.138 A 
HETATM    3  N   UNL     1      42.705 -14.820   3.843  1.00  0.00    -0.240 N 
HETATM    4  C   UNL     1      43.374 -15.382   5.003  1.00  0.00     0.221 C 
HETATM    5  C   UNL     1      42.452 -16.395   5.706  1.00  0.00     0.066 C 
HETATM    6  C   UNL     1      41.768 -17.333   4.704  1.00  0.00     0.118 C 
HETATM    7  N   UNL     1      41.048 -16.533   3.703  1.00  0.00    -0.365 N 
HETATM    8  N   UNL     1      43.245 -13.810   3.144  1.00  0.00    -0.181 NA
HETATM    9  C   UNL     1      42.403 -13.657   2.117  1.00  0.00     0.160 A 
HETATM   10  H   UNL     1      40.525 -17.120   3.049  1.00  0.00     0.161 HD
ENDROOT
BRANCH   1  11
HETATM   11  C   UNL     1      40.271 -14.706   1.153  1.00  0.00     0.261 C 
HETATM   12  N   UNL     1      40.666 -14.358  -0.125  1.00  0.00    -0.323 N 
HETATM   13  H   UNL     1      41.664 -14.218  -0.245  1.00  0.00     0.169 HD
HETATM   14  O   UNL     1      39.163 -15.109   1.485  1.00  0.00    -0.267 OA
BRANCH  12  15
HETATM   15  C   UNL     1      39.867 -14.254  -1.279  1.00  0.00     0.037 A 
HETATM   16  C   UNL     1      40.076 -14.998  -2.441  1.00  0.00     0.066 A 
HETATM   17  C   UNL     1      39.214 -14.849  -3.527  1.00  0.00     0.067 A 
HETATM   18  C   UNL     1      38.142 -13.964  -3.479  1.00  0.00     0.036 A 
HETATM   19  C   UNL     1      37.928 -13.219  -2.322  1.00  0.00     0.005 A 
HETATM   20  C   UNL     1      38.783 -13.367  -1.226  1.00  0.00     0.029 A 
BRANCH  17  21
HETATM   21  O   UNL     1      39.452 -15.609  -4.635  1.00  0.00    -0.361 OA
HETATM   22  H   UNL     1      40.209 -16.191  -4.461  1.00  0.00     0.217 HD
ENDBRANCH  17  21
ENDBRANCH  12  15
ENDBRANCH   1  11
BRANCH   4  23
HETATM   23  C   UNL     1      43.787 -14.311   5.990  1.00  0.00     0.409 C 
HETATM   24  F   UNL     1      42.835 -13.362   6.146  1.00  0.00    -0.169 F 
HETATM   25  F   UNL     1      43.973 -14.873   7.217  1.00  0.00    -0.169 F 
HETATM   26  F   UNL     1      44.949 -13.702   5.680  1.00  0.00    -0.169 F 
ENDBRANCH   4  23
BRANCH   6  27
HETATM   27  C   UNL     1      42.715 -18.362   4.096  1.00  0.00    -0.035 A 
HETATM   28  C   UNL     1      42.616 -18.639   2.717  1.00  0.00     0.012 A 
HETATM   29  C   UNL     1      43.454 -19.576   2.108  1.00  0.00     0.043 A 
HETATM   30  C   UNL     1      44.404 -20.242   2.869  1.00  0.00     0.116 A 
HETATM   31  F   UNL     1      45.210 -21.138   2.286  1.00  0.00    -0.206 F 
HETATM   32  C   UNL     1      44.530 -19.989   4.227  1.00  0.00     0.043 A 
HETATM   33  C   UNL     1      43.689 -19.054   4.839  1.00  0.00     0.012 A 
ENDBRANCH   6  27
TORSDOF 5
ENDMDL
MODEL 2
REMARK VINA RESULT:      -8.7      1.787      2.258
REMARK  5 active torsions:
REMARK  status: ('A' for Active; 'I' for Inactive)
REMARK    1  A    between atoms: C_3  and  O_4 
REMARK    2  A    between atoms: C_6  and  N_7 
REMARK       I    between atoms: N_7  and  C_8 
REMARK    3  A    between atoms: C_8  and  C_9 
REMARK    4  A    between atoms: C_12  and  C_13 
REMARK    5  A    between atoms: C_18  and  C_19 
ROOT
HETATM    1  C   UNL     1      41.534 -14.187   2.916  1.00  0.00     0.096 A 
HETATM    2  C   UNL     1      41.823 -15.070   3.941  1.00  0.00     0.138 A 
HETATM    3  N   UNL     1      42.973 -14.599   4.532  1.00  0.00    -0.240 N 
HETATM    4  C   UNL     1      43.674 -15.274   5.610  1.00  0.00     0.221 C 
HETATM    5  C   UNL     1      42.745 -16.298   6.287  1.00  0.00     0.066 C 
HETATM    6  C   UNL     1      41.968 -17.129   5.258  1.00  0.00     0.118 C 
HETATM    7  N   UNL     1      41.235 -16.228   4.358  1.00  0.00    -0.365 N 
HETATM    8  N   UNL     1      43.522 -13.564   3.879  1.00  0.00    -0.181 NA
HETATM    9  C   UNL     1      42.637 -13.300   2.913  1.00  0.00     0.160 A 
HETATM   10  H   UNL     1      40.654 -16.742   3.693  1.00  0.00     0.161 HD
ENDROOT
BRANCH   1  11
HETATM   11  C   UNL     1      40.412 -14.185   1.993  1.00  0.00     0.261 C 
HETATM   12  N   UNL     1      40.118 -12.926   1.504  1.00  0.00    -0.323 N 
HETATM   13  H   UNL     1      40.798 -12.207   1.725  1.00  0.00     0.169 HD
HETATM   14  O   UNL     1      39.849 -15.230   1.692  1.00  0.00    -0.267 OA
BRANCH  12  15
HETATM   15  C   UNL     1      39.040 -12.549   0.681  1.00  0.00     0.037 A 
HETATM   16  C   UNL     1      37.740 -12.343   1.144  1.00  0.00     0.066 A 
HETATM   17  C   UNL     1      36.741 -11.941   0.258  1.00  0.00     0.067 A 
HETATM   18  C   UNL     1      37.012 -11.746  -1.092  1.00  0.00     0.036 A 
HETATM   19  C   UNL     1      38.308 -11.950  -1.561  1.00  0.00     0.005 A 
HETATM   20  C   UNL     1      39.317 -12.345  -0.678  1.00  0.00     0.029 A 
BRANCH  17  21
HETATM   21  O   UNL     1      35.489 -11.739   0.762  1.00  0.00    -0.361 OA
HETATM   22  H   UNL     1      34.887 -11.522   0.033  1.00  0.00     0.217 HD
ENDBRANCH  17  21
ENDBRANCH  12  15
ENDBRANCH   1  11
BRANCH   4  23
HETATM   23  C   UNL     1      44.185 -14.297   6.648  1.00  0.00     0.409 C 
HETATM   24  F   UNL     1      43.371 -13.226   6.790  1.00  0.00    -0.169 F 
HETATM   25  F   UNL     1      44.228 -14.910   7.864  1.00  0.00    -0.169 F 
HETATM   26  F   UNL     1      45.435 -13.853   6.410  1.00  0.00    -0.169 F 
ENDBRANCH   4  23
BRANCH   6  27
HETATM   27  C   UNL     1      42.837 -18.148   4.526  1.00  0.00    -0.035 A 
HETATM   28  C   UNL     1      42.657 -18.314   3.138  1.00  0.00     0.012 A 
HETATM   29  C   UNL     1      43.419 -19.237   2.419  1.00  0.00     0.043 A 
HETATM   30  C   UNL     1      44.374 -19.999   3.078  1.00  0.00     0.116 A 
HETATM   31  F   UNL     1      45.107 -20.882   2.388  1.00  0.00    -0.206 F 
HETATM   32  C   UNL     1      44.578 -19.856   4.442  1.00  0.00     0.043 A 
HETATM   33  C   UNL     1      43.813 -18.935   5.164  1.00  0.00     0.012 A 
ENDBRANCH   6  27
TORSDOF 5
ENDMDL
MODEL 3
REMARK VINA RESULT:      -8.7      3.611      7.634
REMARK  5 active torsions:
REMARK  status: ('A' for Active; 'I' for Inactive)
REMARK    1  A    between atoms: C_3  and  O_4 
REMARK    2  A    between atoms: C_6  and  N_7 
REMARK       I    between atoms: N_7  and  C_8 
REMARK    3  A    between atoms: C_8  and  C_9 
REMARK    4  A    between atoms: C_12  and  C_13 
REMARK    5  A    between atoms: C_18  and  C_19 
ROOT
HETATM    1  C   UNL     1      41.716 -15.926   2.039  1.00  0.00     0.096 A 
HETATM    2  C   UNL     1      41.524 -14.874   1.162  1.00  0.00     0.138 A 
HETATM    3  N   UNL     1      40.402 -14.213   1.606  1.00  0.00    -0.240 N 
HETATM    4  C   UNL     1      39.795 -13.082   0.926  1.00  0.00     0.221 C 
HETATM    5  C   UNL     1      40.799 -12.457  -0.060  1.00  0.00     0.066 C 
HETATM    6  C   UNL     1      41.531 -13.526  -0.882  1.00  0.00     0.118 C 
HETATM    7  N   UNL     1      42.174 -14.483   0.029  1.00  0.00    -0.365 N 
HETATM    8  N   UNL     1      39.779 -14.840   2.616  1.00  0.00    -0.181 NA
HETATM    9  C   UNL     1      40.589 -15.866   2.893  1.00  0.00     0.160 A 
HETATM   10  H   UNL     1      42.726 -15.180  -0.477  1.00  0.00     0.161 HD
ENDROOT
BRANCH   1  11
HETATM   11  C   UNL     1      42.774 -16.922   2.063  1.00  0.00     0.261 C 
HETATM   12  N   UNL     1      42.390 -18.104   2.668  1.00  0.00    -0.323 N 
HETATM   13  H   UNL     1      41.400 -18.181   2.876  1.00  0.00     0.169 HD
HETATM   14  O   UNL     1      43.862 -16.690   1.550  1.00  0.00    -0.267 OA
BRANCH  12  15
HETATM   15  C   UNL     1      43.187 -19.228   2.953  1.00  0.00     0.037 A 
HETATM   16  C   UNL     1      43.388 -20.287   2.065  1.00  0.00     0.066 A 
HETATM   17  C   UNL     1      44.220 -21.347   2.423  1.00  0.00     0.067 A 
HETATM   18  C   UNL     1      44.856 -21.377   3.660  1.00  0.00     0.036 A 
HETATM   19  C   UNL     1      44.660 -20.324   4.550  1.00  0.00     0.005 A 
HETATM   20  C   UNL     1      43.834 -19.253   4.197  1.00  0.00     0.029 A 
BRANCH  17  21
HETATM   21  O   UNL     1      44.396 -22.350   1.516  1.00  0.00    -0.361 OA
HETATM   22  H   UNL     1      43.646 -22.965   1.577  1.00  0.00     0.217 HD
ENDBRANCH  17  21
ENDBRANCH  12  15
ENDBRANCH   1  11
BRANCH   4  23
HETATM   23  C   UNL     1      39.325 -12.025   1.901  1.00  0.00     0.409 C 
HETATM   24  F   UNL     1      40.170 -11.878   2.947  1.00  0.00    -0.169 F 
HETATM   25  F   UNL     1      39.280 -10.817   1.272  1.00  0.00    -0.169 F 
HETATM   26  F   UNL     1      38.084 -12.240   2.382  1.00  0.00    -0.169 F 
ENDBRANCH   4  23
BRANCH   6  27
HETATM   27  C   UNL     1      40.648 -14.185  -1.936  1.00  0.00    -0.035 A 
HETATM   28  C   UNL     1      40.958 -15.497  -2.352  1.00  0.00     0.012 A 
HETATM   29  C   UNL     1      40.188 -16.146  -3.318  1.00  0.00     0.043 A 
HETATM   30  C   UNL     1      39.097 -15.496  -3.876  1.00  0.00     0.116 A 
HETATM   31  F   UNL     1      38.356 -16.120  -4.801  1.00  0.00    -0.206 F 
HETATM   32  C   UNL     1      38.763 -14.207  -3.486  1.00  0.00     0.043 A 
HETATM   33  C   UNL     1      39.535 -13.554  -2.521  1.00  0.00     0.012 A 
ENDBRANCH   6  27
TORSDOF 5
ENDMDL
MODEL 4
REMARK VINA RESULT:      -8.5      4.164      8.288
REMARK  5 active torsions:
REMARK  status: ('A' for Active; 'I' for Inactive)
REMARK    1  A    between atoms: C_3  and  O_4 
REMARK    2  A    between atoms: C_6  and  N_7 
REMARK       I    between atoms: N_7  and  C_8 
REMARK    3  A    between atoms: C_8  and  C_9 
REMARK    4  A    between atoms: C_12  and  C_13 
REMARK    5  A    between atoms: C_18  and  C_19 
ROOT
HETATM    1  C   UNL     1      41.696 -14.497   0.819  1.00  0.00     0.096 A 
HETATM    2  C   UNL     1      41.742 -14.241  -0.540  1.00  0.00     0.138 A 
HETATM    3  N   UNL     1      41.706 -12.872  -0.668  1.00  0.00    -0.240 N 
HETATM    4  C   UNL     1      41.658 -12.170  -1.938  1.00  0.00     0.221 C 
HETATM    5  C   UNL     1      42.102 -13.105  -3.077  1.00  0.00     0.066 C 
HETATM    6  C   UNL     1      41.459 -14.493  -2.959  1.00  0.00     0.118 C 
HETATM    7  N   UNL     1      41.757 -15.055  -1.634  1.00  0.00    -0.365 N 
HETATM    8  N   UNL     1      41.500 -12.234   0.494  1.00  0.00    -0.181 NA
HETATM    9  C   UNL     1      41.518 -13.218   1.398  1.00  0.00     0.160 A 
HETATM   10  H   UNL     1      41.397 -16.007  -1.534  1.00  0.00     0.161 HD
ENDROOT
BRANCH   1  11
HETATM   11  C   UNL     1      41.743 -15.770   1.518  1.00  0.00     0.261 C 
HETATM   12  N   UNL     1      43.025 -16.146   1.870  1.00  0.00    -0.323 N 
HETATM   13  H   UNL     1      43.736 -15.435   1.737  1.00  0.00     0.169 HD
HETATM   14  O   UNL     1      40.712 -16.382   1.770  1.00  0.00    -0.267 OA
BRANCH  12  15
HETATM   15  C   UNL     1      43.440 -17.356   2.457  1.00  0.00     0.037 A 
HETATM   16  C   UNL     1      43.720 -17.508   3.816  1.00  0.00     0.066 A 
HETATM   17  C   UNL     1      44.097 -18.754   4.314  1.00  0.00     0.067 A 
HETATM   18  C   UNL     1      44.208 -19.860   3.477  1.00  0.00     0.036 A 
HETATM   19  C   UNL     1      43.929 -19.716   2.120  1.00  0.00     0.005 A 
HETATM   20  C   UNL     1      43.543 -18.472   1.614  1.00  0.00     0.029 A 
BRANCH  17  21
HETATM   21  O   UNL     1      44.347 -18.854   5.651  1.00  0.00    -0.361 OA
HETATM   22  H   UNL     1      45.232 -19.231   5.779  1.00  0.00     0.217 HD
ENDBRANCH  17  21
ENDBRANCH  12  15
ENDBRANCH   1  11
BRANCH   4  23
HETATM   23  C   UNL     1      42.533 -10.935  -1.933  1.00  0.00     0.409 C 
HETATM   24  F   UNL     1      43.690 -11.127  -1.260  1.00  0.00    -0.169 F 
HETATM   25  F   UNL     1      42.881 -10.621  -3.213  1.00  0.00    -0.169 F 
HETATM   26  F   UNL     1      41.926  -9.839  -1.433  1.00  0.00    -0.169 F 
ENDBRANCH   4  23
BRANCH   6  27
HETATM   27  C   UNL     1      39.974 -14.500  -3.305  1.00  0.00    -0.035 A 
HETATM   28  C   UNL     1      39.391 -15.703  -3.755  1.00  0.00     0.012 A 
HETATM   29  C   UNL     1      38.038 -15.766  -4.092  1.00  0.00     0.043 A 
HETATM   30  C   UNL     1      37.250 -14.630  -3.977  1.00  0.00     0.116 A 
HETATM   31  F   UNL     1      35.951 -14.690  -4.298  1.00  0.00    -0.206 F 
HETATM   32  C   UNL     1      37.791 -13.432  -3.534  1.00  0.00     0.043 A 
HETATM   33  C   UNL     1      39.147 -13.367  -3.200  1.00  0.00     0.012 A 
ENDBRANCH   6  27
TORSDOF 5
ENDMDL
MODEL 5
REMARK VINA RESULT:      -8.2      3.980      7.774
REMARK  5 active torsions:
REMARK  status: ('A' for Active; 'I' for Inactive)
REMARK    1  A    between atoms: C_3  and  O_4 
REMARK    2  A    between atoms: C_6  and  N_7 
REMARK       I    between atoms: N_7  and  C_8 
REMARK    3  A    between atoms: C_8  and  C_9 
REMARK    4  A    between atoms: C_12  and  C_13 
REMARK    5  A    between atoms: C_18  and  C_19 
ROOT
HETATM    1  C   UNL     1      41.520 -15.835   1.788  1.00  0.00     0.096 A 
HETATM    2  C   UNL     1      41.509 -14.466   1.588  1.00  0.00     0.138 A 
HETATM    3  N   UNL     1      40.185 -14.114   1.464  1.00  0.00    -0.240 N 
HETATM    4  C   UNL     1      39.720 -12.771   1.165  1.00  0.00     0.221 C 
HETATM    5  C   UNL     1      40.835 -11.748   1.452  1.00  0.00     0.066 C 
HETATM    6  C   UNL     1      42.191 -12.215   0.907  1.00  0.00     0.118 C 
HETATM    7  N   UNL     1      42.503 -13.543   1.454  1.00  0.00    -0.365 N 
HETATM    8  N   UNL     1      39.354 -15.167   1.430  1.00  0.00    -0.181 NA
HETATM    9  C   UNL     1      40.162 -16.208   1.649  1.00  0.00     0.160 A 
HETATM   10  H   UNL     1      43.429 -13.867   1.164  1.00  0.00     0.161 HD
ENDROOT
BRANCH   1  11
HETATM   11  C   UNL     1      42.648 -16.722   2.015  1.00  0.00     0.261 C 
HETATM   12  N   UNL     1      42.265 -18.012   2.331  1.00  0.00    -0.323 N 
HETATM   13  H   UNL     1      41.276 -18.210   2.217  1.00  0.00     0.169 HD
HETATM   14  O   UNL     1      43.797 -16.317   1.890  1.00  0.00    -0.267 OA
BRANCH  12  15
HETATM   15  C   UNL     1      43.088 -19.089   2.711  1.00  0.00     0.037 A 
HETATM   16  C   UNL     1      43.306 -20.220   1.922  1.00  0.00     0.066 A 
HETATM   17  C   UNL     1      44.162 -21.226   2.369  1.00  0.00     0.067 A 
HETATM   18  C   UNL     1      44.805 -21.130   3.598  1.00  0.00     0.036 A 
HETATM   19  C   UNL     1      44.592 -20.004   4.390  1.00  0.00     0.005 A 
HETATM   20  C   UNL     1      43.742 -18.987   3.947  1.00  0.00     0.029 A 
BRANCH  17  21
HETATM   21  O   UNL     1      44.353 -22.304   1.555  1.00  0.00    -0.361 OA
HETATM   22  H   UNL     1      43.577 -22.885   1.614  1.00  0.00     0.217 HD
ENDBRANCH  17  21
ENDBRANCH  12  15
ENDBRANCH   1  11
BRANCH   4  23
HETATM   23  C   UNL     1      38.488 -12.408   1.966  1.00  0.00     0.409 C 
HETATM   24  F   UNL     1      38.603 -12.755   3.269  1.00  0.00    -0.169 F 
HETATM   25  F   UNL     1      38.314 -11.057   1.943  1.00  0.00    -0.169 F 
HETATM   26  F   UNL     1      37.348 -12.939   1.483  1.00  0.00    -0.169 F 
ENDBRANCH   4  23
BRANCH   6  27
HETATM   27  C   UNL     1      42.286 -12.144  -0.613  1.00  0.00    -0.035 A 
HETATM   28  C   UNL     1      42.571 -10.901  -1.215  1.00  0.00     0.012 A 
HETATM   29  C   UNL     1      42.663 -10.777  -2.602  1.00  0.00     0.043 A 
HETATM   30  C   UNL     1      42.477 -11.894  -3.404  1.00  0.00     0.116 A 
HETATM   31  F   UNL     1      42.568 -11.776  -4.735  1.00  0.00    -0.206 F 
HETATM   32  C   UNL     1      42.199 -13.132  -2.844  1.00  0.00     0.043 A 
HETATM   33  C   UNL     1      42.103 -13.257  -1.455  1.00  0.00     0.012 A 
ENDBRANCH   6  27
TORSDOF 5
ENDMDL
MODEL 6
REMARK VINA RESULT:      -8.1      3.610      7.126
REMARK  5 active torsions:
REMARK  status: ('A' for Active; 'I' for Inactive)
REMARK    1  A    between atoms: C_3  and  O_4 
REMARK    2  A    between atoms: C_6  and  N_7 
REMARK       I    between atoms: N_7  and  C_8 
REMARK    3  A    between atoms: C_8  and  C_9 
REMARK    4  A    between atoms: C_12  and  C_13 
REMARK    5  A    between atoms: C_18  and  C_19 
ROOT
HETATM    1  C   UNL     1      42.442 -16.657   4.944  1.00  0.00     0.096 A 
HETATM    2  C   UNL     1      42.451 -15.425   4.316  1.00  0.00     0.138 A 
HETATM    3  N   UNL     1      41.371 -14.737   4.819  1.00  0.00    -0.240 N 
HETATM    4  C   UNL     1      40.960 -13.418   4.371  1.00  0.00     0.221 C 
HETATM    5  C   UNL     1      42.116 -12.729   3.623  1.00  0.00     0.066 C 
HETATM    6  C   UNL     1      42.801 -13.680   2.634  1.00  0.00     0.118 C 
HETATM    7  N   UNL     1      43.245 -14.886   3.348  1.00  0.00    -0.365 N 
HETATM    8  N   UNL     1      40.589 -15.482   5.616  1.00  0.00    -0.181 NA
HETATM    9  C   UNL     1      41.252 -16.638   5.710  1.00  0.00     0.160 A 
HETATM   10  H   UNL     1      43.763 -15.522   2.737  1.00  0.00     0.161 HD
ENDROOT
BRANCH   1  11
HETATM   11  C   UNL     1      43.376 -17.762   4.815  1.00  0.00     0.261 C 
HETATM   12  N   UNL     1      43.011 -18.668   3.837  1.00  0.00    -0.323 N 
HETATM   13  H   UNL     1      42.241 -18.377   3.245  1.00  0.00     0.169 HD
HETATM   14  O   UNL     1      44.385 -17.811   5.508  1.00  0.00    -0.267 OA
BRANCH  12  15
HETATM   15  C   UNL     1      43.625 -19.895   3.523  1.00  0.00     0.037 A 
HETATM   16  C   UNL     1      44.242 -20.722   4.462  1.00  0.00     0.066 A 
HETATM   17  C   UNL     1      44.799 -21.936   4.062  1.00  0.00     0.067 A 
HETATM   18  C   UNL     1      44.760 -22.342   2.732  1.00  0.00     0.036 A 
HETATM   19  C   UNL     1      44.145 -21.522   1.789  1.00  0.00     0.005 A 
HETATM   20  C   UNL     1      43.577 -20.307   2.183  1.00  0.00     0.029 A 
BRANCH  17  21
HETATM   21  O   UNL     1      45.379 -22.715   5.020  1.00  0.00    -0.361 OA
HETATM   22  H   UNL     1      45.785 -23.488   4.595  1.00  0.00     0.217 HD
ENDBRANCH  17  21
ENDBRANCH  12  15
ENDBRANCH   1  11
BRANCH   4  23
HETATM   23  C   UNL     1      40.517 -12.544   5.525  1.00  0.00     0.409 C 
HETATM   24  F   UNL     1      41.376 -12.597   6.569  1.00  0.00    -0.169 F 
HETATM   25  F   UNL     1      40.485 -11.243   5.121  1.00  0.00    -0.169 F 
HETATM   26  F   UNL     1      39.279 -12.824   5.978  1.00  0.00    -0.169 F 
ENDBRANCH   4  23
BRANCH   6  27
HETATM   27  C   UNL     1      41.956 -13.978   1.400  1.00  0.00    -0.035 A 
HETATM   28  C   UNL     1      41.189 -12.936   0.840  1.00  0.00     0.012 A 
HETATM   29  C   UNL     1      40.391 -13.155  -0.286  1.00  0.00     0.043 A 
HETATM   30  C   UNL     1      40.357 -14.414  -0.868  1.00  0.00     0.116 A 
HETATM   31  F   UNL     1      39.595 -14.622  -1.949  1.00  0.00    -0.206 F 
HETATM   32  C   UNL     1      41.103 -15.459  -0.343  1.00  0.00     0.043 A 
HETATM   33  C   UNL     1      41.899 -15.243   0.786  1.00  0.00     0.012 A 
ENDBRANCH   6  27
TORSDOF 5
ENDMDL
MODEL 7
REMARK VINA RESULT:      -8.1      4.207      8.210
REMARK  5 active torsions:
REMARK  status: ('A' for Active; 'I' for Inactive)
REMARK    1  A    between atoms: C_3  and  O_4 
REMARK    2  A    between atoms: C_6  and  N_7 
REMARK       I    between atoms: N_7  and  C_8 
REMARK    3  A    between atoms: C_8  and  C_9 
REMARK    4  A    between atoms: C_12  and  C_13 
REMARK    5  A    between atoms: C_18  and  C_19 
ROOT
HETATM    1  C   UNL     1      41.262 -16.296   1.007  1.00  0.00     0.096 A 
HETATM    2  C   UNL     1      40.123 -15.514   0.942  1.00  0.00     0.138 A 
HETATM    3  N   UNL     1      40.220 -14.802  -0.231  1.00  0.00    -0.240 N 
HETATM    4  C   UNL     1      39.266 -13.794  -0.658  1.00  0.00     0.221 C 
HETATM    5  C   UNL     1      37.945 -13.954   0.117  1.00  0.00     0.066 C 
HETATM    6  C   UNL     1      38.186 -14.175   1.615  1.00  0.00     0.118 C 
HETATM    7  N   UNL     1      39.077 -15.329   1.799  1.00  0.00    -0.365 N 
HETATM    8  N   UNL     1      41.397 -14.962  -0.854  1.00  0.00    -0.181 NA
HETATM    9  C   UNL     1      42.019 -15.886  -0.116  1.00  0.00     0.160 A 
HETATM   10  H   UNL     1      39.217 -15.551   2.787  1.00  0.00     0.161 HD
ENDROOT
BRANCH   1  11
HETATM   11  C   UNL     1      41.655 -17.267   2.014  1.00  0.00     0.261 C 
HETATM   12  N   UNL     1      42.832 -17.922   1.703  1.00  0.00    -0.323 N 
HETATM   13  H   UNL     1      43.339 -17.544   0.910  1.00  0.00     0.169 HD
HETATM   14  O   UNL     1      40.987 -17.418   3.030  1.00  0.00    -0.267 OA
BRANCH  12  15
HETATM   15  C   UNL     1      43.439 -18.985   2.398  1.00  0.00     0.037 A 
HETATM   16  C   UNL     1      43.625 -20.260   1.862  1.00  0.00     0.066 A 
HETATM   17  C   UNL     1      44.264 -21.245   2.615  1.00  0.00     0.067 A 
HETATM   18  C   UNL     1      44.718 -20.984   3.903  1.00  0.00     0.036 A 
HETATM   19  C   UNL     1      44.536 -19.713   4.444  1.00  0.00     0.005 A 
HETATM   20  C   UNL     1      43.903 -18.718   3.693  1.00  0.00     0.029 A 
BRANCH  17  21
HETATM   21  O   UNL     1      44.435 -22.471   2.042  1.00  0.00    -0.361 OA
HETATM   22  H   UNL     1      44.863 -23.061   2.682  1.00  0.00     0.217 HD
ENDBRANCH  17  21
ENDBRANCH  12  15
ENDBRANCH   1  11
BRANCH   4  23
HETATM   23  C   UNL     1      38.990 -13.873  -2.144  1.00  0.00     0.409 C 
HETATM   24  F   UNL     1      38.984 -15.147  -2.598  1.00  0.00    -0.169 F 
HETATM   25  F   UNL     1      37.750 -13.369  -2.401  1.00  0.00    -0.169 F 
HETATM   26  F   UNL     1      39.847 -13.156  -2.897  1.00  0.00    -0.169 F 
ENDBRANCH   4  23
BRANCH   6  27
HETATM   27  C   UNL     1      38.656 -12.920   2.342  1.00  0.00    -0.035 A 
HETATM   28  C   UNL     1      39.659 -13.045   3.326  1.00  0.00     0.012 A 
HETATM   29  C   UNL     1      40.122 -11.930   4.027  1.00  0.00     0.043 A 
HETATM   30  C   UNL     1      39.594 -10.677   3.750  1.00  0.00     0.116 A 
HETATM   31  F   UNL     1      40.040  -9.607   4.420  1.00  0.00    -0.206 F 
HETATM   32  C   UNL     1      38.609 -10.520   2.786  1.00  0.00     0.043 A 
HETATM   33  C   UNL     1      38.141 -11.635   2.085  1.00  0.00     0.012 A 
ENDBRANCH   6  27
TORSDOF 5
ENDMDL
MODEL 8
REMARK VINA RESULT:      -8.0      4.350      7.742
REMARK  5 active torsions:
REMARK  status: ('A' for Active; 'I' for Inactive)
REMARK    1  A    between atoms: C_3  and  O_4 
REMARK    2  A    between atoms: C_6  and  N_7 
REMARK       I    between atoms: N_7  and  C_8 
REMARK    3  A    between atoms: C_8  and  C_9 
REMARK    4  A    between atoms: C_12  and  C_13 
REMARK    5  A    between atoms: C_18  and  C_19 
ROOT
HETATM    1  C   UNL     1      41.538 -13.615   5.339  1.00  0.00     0.096 A 
HETATM    2  C   UNL     1      42.176 -14.645   4.672  1.00  0.00     0.138 A 
HETATM    3  N   UNL     1      41.190 -15.320   3.989  1.00  0.00    -0.240 N 
HETATM    4  C   UNL     1      41.413 -16.527   3.213  1.00  0.00     0.221 C 
HETATM    5  C   UNL     1      42.910 -16.681   2.890  1.00  0.00     0.066 C 
HETATM    6  C   UNL     1      43.789 -16.401   4.115  1.00  0.00     0.118 C 
HETATM    7  N   UNL     1      43.472 -15.068   4.646  1.00  0.00    -0.365 N 
HETATM    8  N   UNL     1      39.953 -14.889   4.276  1.00  0.00    -0.181 NA
HETATM    9  C   UNL     1      40.166 -13.840   5.077  1.00  0.00     0.160 A 
HETATM   10  H   UNL     1      44.079 -14.815   5.429  1.00  0.00     0.161 HD
ENDROOT
BRANCH   1  11
HETATM   11  C   UNL     1      42.104 -12.574   6.180  1.00  0.00     0.261 C 
HETATM   12  N   UNL     1      43.083 -13.042   7.036  1.00  0.00    -0.323 N 
HETATM   13  H   UNL     1      43.383 -13.997   6.867  1.00  0.00     0.169 HD
HETATM   14  O   UNL     1      41.733 -11.412   6.070  1.00  0.00    -0.267 OA
BRANCH  12  15
HETATM   15  C   UNL     1      43.757 -12.334   8.048  1.00  0.00     0.037 A 
HETATM   16  C   UNL     1      43.158 -11.366   8.855  1.00  0.00     0.066 A 
HETATM   17  C   UNL     1      43.899 -10.736   9.853  1.00  0.00     0.067 A 
HETATM   18  C   UNL     1      45.238 -11.049  10.062  1.00  0.00     0.036 A 
HETATM   19  C   UNL     1      45.843 -12.014   9.260  1.00  0.00     0.005 A 
HETATM   20  C   UNL     1      45.105 -12.657   8.262  1.00  0.00     0.029 A 
BRANCH  17  21
HETATM   21  O   UNL     1      43.264  -9.808  10.625  1.00  0.00    -0.361 OA
HETATM   22  H   UNL     1      42.383 -10.142  10.860  1.00  0.00     0.217 HD
ENDBRANCH  17  21
ENDBRANCH  12  15
ENDBRANCH   1  11
BRANCH   4  23
HETATM   23  C   UNL     1      40.619 -16.523   1.924  1.00  0.00     0.409 C 
HETATM   24  F   UNL     1      41.101 -17.406   1.021  1.00  0.00    -0.169 F 
HETATM   25  F   UNL     1      39.335 -16.900   2.182  1.00  0.00    -0.169 F 
HETATM   26  F   UNL     1      40.540 -15.312   1.337  1.00  0.00    -0.169 F 
ENDBRANCH   4  23
BRANCH   6  27
HETATM   27  C   UNL     1      43.730 -17.506   5.165  1.00  0.00    -0.035 A 
HETATM   28  C   UNL     1      44.075 -18.819   4.783  1.00  0.00     0.012 A 
HETATM   29  C   UNL     1      44.032 -19.870   5.701  1.00  0.00     0.043 A 
HETATM   30  C   UNL     1      43.650 -19.621   7.011  1.00  0.00     0.116 A 
HETATM   31  F   UNL     1      43.611 -20.628   7.893  1.00  0.00    -0.206 F 
HETATM   32  C   UNL     1      43.308 -18.340   7.419  1.00  0.00     0.043 A 
HETATM   33  C   UNL     1      43.347 -17.287   6.501  1.00  0.00     0.012 A 
ENDBRANCH   6  27
TORSDOF 5
ENDMDL
MODEL 9
REMARK VINA RESULT:      -8.0      4.224      7.578
REMARK  5 active torsions:
REMARK  status: ('A' for Active; 'I' for Inactive)
REMARK    1  A    between atoms: C_3  and  O_4 
REMARK    2  A    between atoms: C_6  and  N_7 
REMARK       I    between atoms: N_7  and  C_8 
REMARK    3  A    between atoms: C_8  and  C_9 
REMARK    4  A    between atoms: C_12  and  C_13 
REMARK    5  A    between atoms: C_18  and  C_19 
ROOT
HETATM    1  C   UNL     1      41.149 -14.183   5.330  1.00  0.00     0.096 A 
HETATM    2  C   UNL     1      40.879 -14.980   4.233  1.00  0.00     0.138 A 
HETATM    3  N   UNL     1      41.953 -15.832   4.112  1.00  0.00    -0.240 N 
HETATM    4  C   UNL     1      42.118 -16.793   3.036  1.00  0.00     0.221 C 
HETATM    5  C   UNL     1      40.769 -17.043   2.337  1.00  0.00     0.066 C 
HETATM    6  C   UNL     1      40.015 -15.734   2.069  1.00  0.00     0.118 C 
HETATM    7  N   UNL     1      39.856 -14.997   3.331  1.00  0.00    -0.365 N 
HETATM    8  N   UNL     1      42.952 -15.553   4.962  1.00  0.00    -0.181 NA
HETATM    9  C   UNL     1      42.455 -14.568   5.716  1.00  0.00     0.160 A 
HETATM   10  H   UNL     1      39.305 -14.145   3.208  1.00  0.00     0.161 HD
ENDROOT
BRANCH   1  11
HETATM   11  C   UNL     1      40.337 -13.138   5.930  1.00  0.00     0.261 C 
HETATM   12  N   UNL     1      41.079 -12.231   6.663  1.00  0.00    -0.323 N 
HETATM   13  H   UNL     1      42.085 -12.318   6.566  1.00  0.00     0.169 HD
HETATM   14  O   UNL     1      39.128 -13.099   5.739  1.00  0.00    -0.267 OA
BRANCH  12  15
HETATM   15  C   UNL     1      40.607 -11.166   7.453  1.00  0.00     0.037 A 
HETATM   16  C   UNL     1      39.500 -11.254   8.299  1.00  0.00     0.066 A 
HETATM   17  C   UNL     1      39.123 -10.154   9.068  1.00  0.00     0.067 A 
HETATM   18  C   UNL     1      39.827  -8.956   9.005  1.00  0.00     0.036 A 
HETATM   19  C   UNL     1      40.933  -8.861   8.163  1.00  0.00     0.005 A 
HETATM   20  C   UNL     1      41.323  -9.962   7.395  1.00  0.00     0.029 A 
BRANCH  17  21
HETATM   21  O   UNL     1      38.043 -10.294   9.890  1.00  0.00    -0.361 OA
HETATM   22  H   UNL     1      37.251 -10.439   9.348  1.00  0.00     0.217 HD
ENDBRANCH  17  21
ENDBRANCH  12  15
ENDBRANCH   1  11
BRANCH   4  23
HETATM   23  C   UNL     1      42.675 -18.109   3.536  1.00  0.00     0.409 C 
HETATM   24  F   UNL     1      42.065 -18.528   4.668  1.00  0.00    -0.169 F 
HETATM   25  F   UNL     1      42.458 -19.077   2.602  1.00  0.00    -0.169 F 
HETATM   26  F   UNL     1      44.006 -18.091   3.750  1.00  0.00    -0.169 F 
ENDBRANCH   4  23
BRANCH   6  27
HETATM   27  C   UNL     1      40.632 -14.902   0.950  1.00  0.00    -0.035 A 
HETATM   28  C   UNL     1      40.890 -15.522  -0.290  1.00  0.00     0.012 A 
HETATM   29  C   UNL     1      41.460 -14.810  -1.347  1.00  0.00     0.043 A 
HETATM   30  C   UNL     1      41.773 -13.469  -1.179  1.00  0.00     0.116 A 
HETATM   31  F   UNL     1      42.317 -12.785  -2.194  1.00  0.00    -0.206 F 
HETATM   32  C   UNL     1      41.530 -12.828   0.026  1.00  0.00     0.043 A 
HETATM   33  C   UNL     1      40.962 -13.540   1.087  1.00  0.00     0.012 A 
ENDBRANCH   6  27
TORSDOF 5
ENDMDL
MODEL 10
REMARK VINA RESULT:      -7.9      4.961      8.652
REMARK  5 active torsions:
REMARK  status: ('A' for Active; 'I' for Inactive)
REMARK    1  A    between atoms: C_3  and  O_4 
REMARK    2  A    between atoms: C_6  and  N_7 
REMARK       I    between atoms: N_7  and  C_8 
REMARK    3  A    between atoms: C_8  and  C_9 
REMARK    4  A    between atoms: C_12  and  C_13 
REMARK    5  A    between atoms: C_18  and  C_19 
ROOT
HETATM    1  C   UNL     1      41.149 -11.733   6.322  1.00  0.00     0.096 A 
HETATM    2  C   UNL     1      41.771 -12.648   5.493  1.00  0.00     0.138 A 
HETATM    3  N   UNL     1      40.765 -13.240   4.763  1.00  0.00    -0.240 N 
HETATM    4  C   UNL     1      40.969 -14.324   3.818  1.00  0.00     0.221 C 
HETATM    5  C   UNL     1      42.453 -14.404   3.416  1.00  0.00     0.066 C 
HETATM    6  C   UNL     1      43.380 -14.281   4.632  1.00  0.00     0.118 C 
HETATM    7  N   UNL     1      43.070 -13.041   5.356  1.00  0.00    -0.365 N 
HETATM    8  N   UNL     1      39.536 -12.875   5.157  1.00  0.00    -0.181 NA
HETATM    9  C   UNL     1      39.770 -11.944   6.087  1.00  0.00     0.160 A 
HETATM   10  H   UNL     1      43.706 -12.888   6.142  1.00  0.00     0.161 HD
ENDROOT
BRANCH   1  11
HETATM   11  C   UNL     1      41.738 -10.809   7.277  1.00  0.00     0.261 C 
HETATM   12  N   UNL     1      41.981 -11.385   8.509  1.00  0.00    -0.323 N 
HETATM   13  H   UNL     1      41.864 -12.393   8.544  1.00  0.00     0.169 HD
HETATM   14  O   UNL     1      42.000  -9.657   6.951  1.00  0.00    -0.267 OA
BRANCH  12  15
HETATM   15  C   UNL     1      42.441 -10.758   9.681  1.00  0.00     0.037 A 
HETATM   16  C   UNL     1      41.689  -9.847  10.425  1.00  0.00     0.066 A 
HETATM   17  C   UNL     1      42.218  -9.297  11.592  1.00  0.00     0.067 A 
HETATM   18  C   UNL     1      43.494  -9.634  12.033  1.00  0.00     0.036 A 
HETATM   19  C   UNL     1      44.250 -10.542  11.295  1.00  0.00     0.005 A 
HETATM   20  C   UNL     1      43.724 -11.104  10.128  1.00  0.00     0.029 A 
BRANCH  17  21
HETATM   21  O   UNL     1      41.439  -8.422  12.291  1.00  0.00    -0.361 OA
HETATM   22  H   UNL     1      41.313  -8.763  13.191  1.00  0.00     0.217 HD
ENDBRANCH  17  21
ENDBRANCH  12  15
ENDBRANCH   1  11
BRANCH   4  23
HETATM   23  C   UNL     1      40.121 -14.154   2.575  1.00  0.00     0.409 C 
HETATM   24  F   UNL     1      39.940 -12.854   2.249  1.00  0.00    -0.169 F 
HETATM   25  F   UNL     1      40.752 -14.731   1.515  1.00  0.00    -0.169 F 
HETATM   26  F   UNL     1      38.912 -14.746   2.656  1.00  0.00    -0.169 F 
ENDBRANCH   4  23
BRANCH   6  27
HETATM   27  C   UNL     1      43.378 -15.522   5.519  1.00  0.00    -0.035 A 
HETATM   28  C   UNL     1      43.211 -16.784   4.913  1.00  0.00     0.012 A 
HETATM   29  C   UNL     1      43.195 -17.953   5.677  1.00  0.00     0.043 A 
HETATM   30  C   UNL     1      43.352 -17.874   7.054  1.00  0.00     0.116 A 
HETATM   31  F   UNL     1      43.339 -18.995   7.787  1.00  0.00    -0.206 F 
HETATM   32  C   UNL     1      43.522 -16.648   7.679  1.00  0.00     0.043 A 
HETATM   33  C   UNL     1      43.535 -15.477   6.916  1.00  0.00     0.012 A 
ENDBRANCH   6  27
TORSDOF 5
ENDMDL
