MODEL 1
REMARK VINA RESULT:      -9.5      0.000      0.000
REMARK  8 active torsions:
REMARK  status: ('A' for Active; 'I' for Inactive)
REMARK    1  A    between atoms: C_6  and  N_7 
REMARK       I    between atoms: N_7  and  C_8 
REMARK    2  A    between atoms: C_8  and  C_9 
REMARK    3  A    between atoms: C_9  and  N_10 
REMARK    4  A    between atoms: C_13  and  C_14 
REMARK       I    between atoms: C_14  and  N_15 
REMARK    5  A    between atoms: N_15  and  C_16 
REMARK    6  A    between atoms: C_16  and  C_17 
REMARK    7  A    between atoms: C_20  and  O_21 
REMARK    8  A    between atoms: C_26  and  N_27 
ROOT
HETATM    1  N   UNL     1      42.958 -14.765   6.159  1.00  0.00    -0.248 N 
HETATM    2  N   UNL     1      43.873 -15.678   6.551  1.00  0.00     0.007 NA
HETATM    3  N   UNL     1      44.689 -15.077   7.402  1.00  0.00    -0.150 NA
HETATM    4  C   UNL     1      44.289 -13.762   7.536  1.00  0.00     0.186 A 
HETATM    5  C   UNL     1      43.169 -13.546   6.750  1.00  0.00     0.151 A 
ENDROOT
BRANCH   1   6
HETATM    6  C   UNL     1      41.960 -15.151   5.191  1.00  0.00     0.251 C 
BRANCH   6   7
HETATM    7  C   UNL     1      42.035 -16.625   4.861  1.00  0.00     0.241 C 
HETATM    8  N   UNL     1      43.122 -16.974   4.073  1.00  0.00    -0.325 N 
HETATM    9  H   UNL     1      43.635 -16.195   3.673  1.00  0.00     0.169 HD
HETATM   10  O   UNL     1      41.111 -17.366   5.190  1.00  0.00    -0.271 OA
BRANCH   8  11
HETATM   11  C   UNL     1      43.387 -18.244   3.504  1.00  0.00     0.046 A 
HETATM   12  C   UNL     1      44.234 -19.113   4.237  1.00  0.00    -0.034 A 
HETATM   13  C   UNL     1      44.602 -20.357   3.691  1.00  0.00     0.015 A 
HETATM   14  C   UNL     1      44.807 -18.739   5.581  1.00  0.00     0.050 C 
HETATM   15  C   UNL     1      44.131 -20.763   2.445  1.00  0.00    -0.061 A 
HETATM   16  C   UNL     1      44.553 -22.069   1.842  1.00  0.00     0.048 C 
HETATM   17  C   UNL     1      43.244 -19.930   1.759  1.00  0.00     0.015 A 
HETATM   18  C   UNL     1      42.832 -18.691   2.288  1.00  0.00    -0.034 A 
HETATM   19  C   UNL     1      41.762 -17.962   1.521  1.00  0.00     0.050 C 
ENDBRANCH   8  11
ENDBRANCH   6   7
ENDBRANCH   1   6
BRANCH   5  20
HETATM   20  N   UNL     1      42.410 -12.451   6.524  1.00  0.00    -0.382 N 
HETATM   21  H   UNL     1      41.557 -12.552   5.966  1.00  0.00     0.157 HD
HETATM   22  H   UNL     1      42.768 -11.499   6.524  1.00  0.00     0.157 HD
ENDBRANCH   5  20
BRANCH   4  23
HETATM   23  C   UNL     1      44.995 -12.813   8.386  1.00  0.00     0.275 C 
HETATM   24  N   UNL     1      44.256 -12.419   9.474  1.00  0.00    -0.351 N 
HETATM   25  H   UNL     1      43.304 -12.764   9.547  1.00  0.00     0.163 HD
HETATM   26  O   UNL     1      46.134 -12.414   8.160  1.00  0.00    -0.266 OA
BRANCH  24  27
HETATM   27  C   UNL     1      44.763 -11.534  10.489  1.00  0.00     0.161 C 
BRANCH  27  28
HETATM   28  C   UNL     1      43.614 -10.920  11.244  1.00  0.00    -0.040 A 
HETATM   29  C   UNL     1      42.309 -11.034  10.745  1.00  0.00     0.011 A 
HETATM   30  C   UNL     1      41.247 -10.400  11.392  1.00  0.00     0.037 A 
HETATM   31  C   UNL     1      41.467  -9.639  12.541  1.00  0.00     0.068 A 
HETATM   32  C   UNL     1      42.760  -9.535  13.053  1.00  0.00     0.037 A 
HETATM   33  C   UNL     1      43.829 -10.168  12.405  1.00  0.00     0.011 A 
BRANCH  31  34
HETATM   34  O   UNL     1      40.345  -9.055  13.061  1.00  0.00    -0.356 OA
HETATM   35  C   UNL     1      39.141  -9.207  12.319  1.00  0.00     0.210 C 
ENDBRANCH  31  34
ENDBRANCH  27  28
ENDBRANCH  24  27
ENDBRANCH   4  23
TORSDOF 8
ENDMDL
MODEL 2
REMARK VINA RESULT:      -9.3      0.359      1.576
REMARK  8 active torsions:
REMARK  status: ('A' for Active; 'I' for Inactive)
REMARK    1  A    between atoms: C_6  and  N_7 
REMARK       I    between atoms: N_7  and  C_8 
REMARK    2  A    between atoms: C_8  and  C_9 
REMARK    3  A    between atoms: C_9  and  N_10 
REMARK    4  A    between atoms: C_13  and  C_14 
REMARK       I    between atoms: C_14  and  N_15 
REMARK    5  A    between atoms: N_15  and  C_16 
REMARK    6  A    between atoms: C_16  and  C_17 
REMARK    7  A    between atoms: C_20  and  O_21 
REMARK    8  A    between atoms: C_26  and  N_27 
ROOT
HETATM    1  N   UNL     1      42.974 -14.957   6.130  1.00  0.00    -0.248 N 
HETATM    2  N   UNL     1      43.881 -15.850   6.581  1.00  0.00     0.007 NA
HETATM    3  N   UNL     1      44.712 -15.198   7.380  1.00  0.00    -0.150 NA
HETATM    4  C   UNL     1      44.329 -13.872   7.419  1.00  0.00     0.186 A 
HETATM    5  C   UNL     1      43.205 -13.700   6.628  1.00  0.00     0.151 A 
ENDROOT
BRANCH   1   6
HETATM    6  C   UNL     1      41.964 -15.401   5.201  1.00  0.00     0.251 C 
BRANCH   6   7
HETATM    7  C   UNL     1      42.123 -16.864   4.851  1.00  0.00     0.241 C 
HETATM    8  N   UNL     1      43.266 -17.150   4.120  1.00  0.00    -0.325 N 
HETATM    9  H   UNL     1      43.765 -16.341   3.762  1.00  0.00     0.169 HD
HETATM   10  O   UNL     1      41.216 -17.650   5.115  1.00  0.00    -0.271 OA
BRANCH   8  11
HETATM   11  C   UNL     1      43.619 -18.396   3.545  1.00  0.00     0.046 A 
HETATM   12  C   UNL     1      43.345 -18.568   2.165  1.00  0.00    -0.034 A 
HETATM   13  C   UNL     1      43.595 -19.809   1.552  1.00  0.00     0.015 A 
HETATM   14  C   UNL     1      42.742 -17.475   1.318  1.00  0.00     0.050 C 
HETATM   15  C   UNL     1      44.130 -20.874   2.273  1.00  0.00    -0.061 A 
HETATM   16  C   UNL     1      44.360 -22.210   1.632  1.00  0.00     0.048 C 
HETATM   17  C   UNL     1      44.459 -20.676   3.616  1.00  0.00     0.015 A 
HETATM   18  C   UNL     1      44.247 -19.438   4.255  1.00  0.00    -0.034 A 
HETATM   19  C   UNL     1      44.782 -19.313   5.657  1.00  0.00     0.050 C 
ENDBRANCH   8  11
ENDBRANCH   6   7
ENDBRANCH   1   6
BRANCH   5  20
HETATM   20  N   UNL     1      42.457 -12.615   6.327  1.00  0.00    -0.382 N 
HETATM   21  H   UNL     1      42.867 -11.686   6.456  1.00  0.00     0.157 HD
HETATM   22  H   UNL     1      41.440 -12.602   6.345  1.00  0.00     0.157 HD
ENDBRANCH   5  20
BRANCH   4  23
HETATM   23  C   UNL     1      45.053 -12.872   8.192  1.00  0.00     0.275 C 
HETATM   24  N   UNL     1      44.314 -12.362   9.230  1.00  0.00    -0.351 N 
HETATM   25  H   UNL     1      43.351 -12.672   9.321  1.00  0.00     0.163 HD
HETATM   26  O   UNL     1      46.205 -12.527   7.947  1.00  0.00    -0.266 OA
BRANCH  24  27
HETATM   27  C   UNL     1      44.835 -11.405  10.171  1.00  0.00     0.161 C 
BRANCH  27  28
HETATM   28  C   UNL     1      43.704 -10.815  10.971  1.00  0.00    -0.040 A 
HETATM   29  C   UNL     1      42.421 -10.735  10.413  1.00  0.00     0.011 A 
HETATM   30  C   UNL     1      41.384 -10.116  11.113  1.00  0.00     0.037 A 
HETATM   31  C   UNL     1      41.608  -9.563  12.375  1.00  0.00     0.068 A 
HETATM   32  C   UNL     1      42.879  -9.655  12.943  1.00  0.00     0.037 A 
HETATM   33  C   UNL     1      43.922 -10.272  12.243  1.00  0.00     0.011 A 
BRANCH  31  34
HETATM   34  O   UNL     1      40.514  -8.969  12.940  1.00  0.00    -0.356 OA
HETATM   35  C   UNL     1      39.271  -9.148  12.271  1.00  0.00     0.210 C 
ENDBRANCH  31  34
ENDBRANCH  27  28
ENDBRANCH  24  27
ENDBRANCH   4  23
TORSDOF 8
ENDMDL
MODEL 3
REMARK VINA RESULT:      -9.2      5.582      9.424
REMARK  8 active torsions:
REMARK  status: ('A' for Active; 'I' for Inactive)
REMARK    1  A    between atoms: C_6  and  N_7 
REMARK       I    between atoms: N_7  and  C_8 
REMARK    2  A    between atoms: C_8  and  C_9 
REMARK    3  A    between atoms: C_9  and  N_10 
REMARK    4  A    between atoms: C_13  and  C_14 
REMARK       I    between atoms: C_14  and  N_15 
REMARK    5  A    between atoms: N_15  and  C_16 
REMARK    6  A    between atoms: C_16  and  C_17 
REMARK    7  A    between atoms: C_20  and  O_21 
REMARK    8  A    between atoms: C_26  and  N_27 
ROOT
HETATM    1  N   UNL     1      41.743 -14.591   3.849  1.00  0.00    -0.248 N 
HETATM    2  N   UNL     1      42.968 -14.025   3.915  1.00  0.00     0.007 NA
HETATM    3  N   UNL     1      43.156 -13.361   2.787  1.00  0.00    -0.150 NA
HETATM    4  C   UNL     1      42.039 -13.523   1.992  1.00  0.00     0.186 A 
HETATM    5  C   UNL     1      41.114 -14.306   2.664  1.00  0.00     0.151 A 
ENDROOT
BRANCH   1   6
HETATM    6  C   UNL     1      41.296 -15.414   4.946  1.00  0.00     0.251 C 
BRANCH   6   7
HETATM    7  C   UNL     1      41.666 -16.867   4.750  1.00  0.00     0.241 C 
HETATM    8  N   UNL     1      42.822 -17.061   4.008  1.00  0.00    -0.325 N 
HETATM    9  H   UNL     1      43.184 -16.233   3.544  1.00  0.00     0.169 HD
HETATM   10  O   UNL     1      40.896 -17.744   5.135  1.00  0.00    -0.271 OA
BRANCH   8  11
HETATM   11  C   UNL     1      43.346 -18.298   3.558  1.00  0.00     0.046 A 
HETATM   12  C   UNL     1      42.949 -18.733   2.268  1.00  0.00    -0.034 A 
HETATM   13  C   UNL     1      43.368 -19.989   1.793  1.00  0.00     0.015 A 
HETATM   14  C   UNL     1      42.044 -17.913   1.382  1.00  0.00     0.050 C 
HETATM   15  C   UNL     1      44.187 -20.813   2.562  1.00  0.00    -0.061 A 
HETATM   16  C   UNL     1      44.601 -22.169   2.077  1.00  0.00     0.048 C 
HETATM   17  C   UNL     1      44.627 -20.349   3.804  1.00  0.00     0.015 A 
HETATM   18  C   UNL     1      44.250 -19.085   4.299  1.00  0.00    -0.034 A 
HETATM   19  C   UNL     1      44.912 -18.646   5.578  1.00  0.00     0.050 C 
ENDBRANCH   8  11
ENDBRANCH   6   7
ENDBRANCH   1   6
BRANCH   5  20
HETATM   20  N   UNL     1      39.884 -14.757   2.330  1.00  0.00    -0.382 N 
HETATM   21  H   UNL     1      39.768 -15.753   2.119  1.00  0.00     0.157 HD
HETATM   22  H   UNL     1      39.160 -14.180   1.910  1.00  0.00     0.157 HD
ENDBRANCH   5  20
BRANCH   4  23
HETATM   23  C   UNL     1      41.932 -12.938   0.663  1.00  0.00     0.275 C 
HETATM   24  N   UNL     1      41.993 -13.874  -0.339  1.00  0.00    -0.351 N 
HETATM   25  H   UNL     1      42.162 -14.840  -0.073  1.00  0.00     0.163 HD
HETATM   26  O   UNL     1      41.792 -11.736   0.459  1.00  0.00    -0.266 OA
BRANCH  24  27
HETATM   27  C   UNL     1      41.849 -13.546  -1.733  1.00  0.00     0.161 C 
BRANCH  27  28
HETATM   28  C   UNL     1      40.514 -14.029  -2.231  1.00  0.00    -0.040 A 
HETATM   29  C   UNL     1      40.453 -14.959  -3.278  1.00  0.00     0.011 A 
HETATM   30  C   UNL     1      39.222 -15.352  -3.804  1.00  0.00     0.037 A 
HETATM   31  C   UNL     1      38.032 -14.823  -3.300  1.00  0.00     0.068 A 
HETATM   32  C   UNL     1      38.084 -13.909  -2.248  1.00  0.00     0.037 A 
HETATM   33  C   UNL     1      39.318 -13.510  -1.719  1.00  0.00     0.011 A 
BRANCH  31  34
HETATM   34  O   UNL     1      36.900 -15.277  -3.919  1.00  0.00    -0.356 OA
HETATM   35  C   UNL     1      36.119 -14.312  -4.612  1.00  0.00     0.210 C 
ENDBRANCH  31  34
ENDBRANCH  27  28
ENDBRANCH  24  27
ENDBRANCH   4  23
TORSDOF 8
ENDMDL
MODEL 4
REMARK VINA RESULT:      -9.1      5.145      8.830
REMARK  8 active torsions:
REMARK  status: ('A' for Active; 'I' for Inactive)
REMARK    1  A    between atoms: C_6  and  N_7 
REMARK       I    between atoms: N_7  and  C_8 
REMARK    2  A    between atoms: C_8  and  C_9 
REMARK    3  A    between atoms: C_9  and  N_10 
REMARK    4  A    between atoms: C_13  and  C_14 
REMARK       I    between atoms: C_14  and  N_15 
REMARK    5  A    between atoms: N_15  and  C_16 
REMARK    6  A    between atoms: C_16  and  C_17 
REMARK    7  A    between atoms: C_20  and  O_21 
REMARK    8  A    between atoms: C_26  and  N_27 
ROOT
HETATM    1  N   UNL     1      42.134 -14.560   4.781  1.00  0.00    -0.248 N 
HETATM    2  N   UNL     1      43.336 -13.999   4.527  1.00  0.00     0.007 NA
HETATM    3  N   UNL     1      43.183 -13.192   3.490  1.00  0.00    -0.150 NA
HETATM    4  C   UNL     1      41.867 -13.257   3.076  1.00  0.00     0.186 A 
HETATM    5  C   UNL     1      41.174 -14.127   3.902  1.00  0.00     0.151 A 
ENDROOT
BRANCH   1   6
HETATM    6  C   UNL     1      42.026 -15.522   5.850  1.00  0.00     0.251 C 
BRANCH   6   7
HETATM    7  C   UNL     1      42.089 -16.944   5.339  1.00  0.00     0.241 C 
HETATM    8  N   UNL     1      43.162 -17.196   4.496  1.00  0.00    -0.325 N 
HETATM    9  H   UNL     1      43.672 -16.374   4.186  1.00  0.00     0.169 HD
HETATM   10  O   UNL     1      41.167 -17.717   5.589  1.00  0.00    -0.271 OA
BRANCH   8  11
HETATM   11  C   UNL     1      43.411 -18.386   3.770  1.00  0.00     0.046 A 
HETATM   12  C   UNL     1      44.222 -19.364   4.398  1.00  0.00    -0.034 A 
HETATM   13  C   UNL     1      44.575 -20.534   3.701  1.00  0.00     0.015 A 
HETATM   14  C   UNL     1      44.773 -19.184   5.791  1.00  0.00     0.050 C 
HETATM   15  C   UNL     1      44.123 -20.762   2.403  1.00  0.00    -0.061 A 
HETATM   16  C   UNL     1      44.531 -21.988   1.642  1.00  0.00     0.048 C 
HETATM   17  C   UNL     1      43.271 -19.825   1.815  1.00  0.00     0.015 A 
HETATM   18  C   UNL     1      42.875 -18.656   2.495  1.00  0.00    -0.034 A 
HETATM   19  C   UNL     1      41.837 -17.806   1.810  1.00  0.00     0.050 C 
ENDBRANCH   8  11
ENDBRANCH   6   7
ENDBRANCH   1   6
BRANCH   5  20
HETATM   20  N   UNL     1      39.887 -14.539   3.919  1.00  0.00    -0.382 N 
HETATM   21  H   UNL     1      39.251 -14.191   3.196  1.00  0.00     0.157 HD
HETATM   22  H   UNL     1      39.398 -14.847   4.756  1.00  0.00     0.157 HD
ENDBRANCH   5  20
BRANCH   4  23
HETATM   23  C   UNL     1      41.369 -12.503   1.934  1.00  0.00     0.275 C 
HETATM   24  N   UNL     1      42.175 -12.615   0.829  1.00  0.00    -0.351 N 
HETATM   25  H   UNL     1      43.039 -13.140   0.925  1.00  0.00     0.163 HD
HETATM   26  O   UNL     1      40.332 -11.846   1.953  1.00  0.00    -0.266 OA
BRANCH  24  27
HETATM   27  C   UNL     1      41.860 -12.011  -0.439  1.00  0.00     0.161 C 
BRANCH  27  28
HETATM   28  C   UNL     1      41.413 -13.072  -1.409  1.00  0.00    -0.040 A 
HETATM   29  C   UNL     1      40.882 -12.704  -2.653  1.00  0.00     0.011 A 
HETATM   30  C   UNL     1      40.390 -13.674  -3.526  1.00  0.00     0.037 A 
HETATM   31  C   UNL     1      40.413 -15.025  -3.174  1.00  0.00     0.068 A 
HETATM   32  C   UNL     1      40.955 -15.400  -1.945  1.00  0.00     0.037 A 
HETATM   33  C   UNL     1      41.448 -14.429  -1.065  1.00  0.00     0.011 A 
BRANCH  31  34
HETATM   34  O   UNL     1      39.880 -15.867  -4.111  1.00  0.00    -0.356 OA
HETATM   35  C   UNL     1      38.465 -15.855  -4.252  1.00  0.00     0.210 C 
ENDBRANCH  31  34
ENDBRANCH  27  28
ENDBRANCH  24  27
ENDBRANCH   4  23
TORSDOF 8
ENDMDL
MODEL 5
REMARK VINA RESULT:      -9.0      5.096      8.962
REMARK  8 active torsions:
REMARK  status: ('A' for Active; 'I' for Inactive)
REMARK    1  A    between atoms: C_6  and  N_7 
REMARK       I    between atoms: N_7  and  C_8 
REMARK    2  A    between atoms: C_8  and  C_9 
REMARK    3  A    between atoms: C_9  and  N_10 
REMARK    4  A    between atoms: C_13  and  C_14 
REMARK       I    between atoms: C_14  and  N_15 
REMARK    5  A    between atoms: N_15  and  C_16 
REMARK    6  A    between atoms: C_16  and  C_17 
REMARK    7  A    between atoms: C_20  and  O_21 
REMARK    8  A    between atoms: C_26  and  N_27 
ROOT
HETATM    1  N   UNL     1      42.033 -14.455   4.804  1.00  0.00    -0.248 N 
HETATM    2  N   UNL     1      43.231 -13.863   4.609  1.00  0.00     0.007 NA
HETATM    3  N   UNL     1      43.113 -13.071   3.556  1.00  0.00    -0.150 NA
HETATM    4  C   UNL     1      41.824 -13.178   3.072  1.00  0.00     0.186 A 
HETATM    5  C   UNL     1      41.111 -14.059   3.869  1.00  0.00     0.151 A 
ENDROOT
BRANCH   1   6
HETATM    6  C   UNL     1      41.894 -15.408   5.878  1.00  0.00     0.251 C 
BRANCH   6   7
HETATM    7  C   UNL     1      42.079 -16.830   5.397  1.00  0.00     0.241 C 
HETATM    8  N   UNL     1      43.123 -16.993   4.499  1.00  0.00    -0.325 N 
HETATM    9  H   UNL     1      43.525 -16.132   4.140  1.00  0.00     0.169 HD
HETATM   10  O   UNL     1      41.260 -17.688   5.720  1.00  0.00    -0.271 OA
BRANCH   8  11
HETATM   11  C   UNL     1      43.457 -18.172   3.788  1.00  0.00     0.046 A 
HETATM   12  C   UNL     1      42.939 -18.299   2.475  1.00  0.00    -0.034 A 
HETATM   13  C   UNL     1      43.166 -19.480   1.744  1.00  0.00     0.015 A 
HETATM   14  C   UNL     1      42.101 -17.224   1.829  1.00  0.00     0.050 C 
HETATM   15  C   UNL     1      43.912 -20.527   2.281  1.00  0.00    -0.061 A 
HETATM   16  C   UNL     1      44.120 -21.802   1.522  1.00  0.00     0.048 C 
HETATM   17  C   UNL     1      44.474 -20.367   3.550  1.00  0.00     0.015 A 
HETATM   18  C   UNL     1      44.291 -19.187   4.298  1.00  0.00    -0.034 A 
HETATM   19  C   UNL     1      45.073 -19.084   5.581  1.00  0.00     0.050 C 
ENDBRANCH   8  11
ENDBRANCH   6   7
ENDBRANCH   1   6
BRANCH   5  20
HETATM   20  N   UNL     1      39.837 -14.507   3.821  1.00  0.00    -0.382 N 
HETATM   21  H   UNL     1      39.299 -14.366   2.961  1.00  0.00     0.157 HD
HETATM   22  H   UNL     1      39.245 -14.630   4.638  1.00  0.00     0.157 HD
ENDBRANCH   5  20
BRANCH   4  23
HETATM   23  C   UNL     1      41.368 -12.451   1.895  1.00  0.00     0.275 C 
HETATM   24  N   UNL     1      42.237 -12.550   0.837  1.00  0.00    -0.351 N 
HETATM   25  H   UNL     1      43.110 -13.047   0.988  1.00  0.00     0.163 HD
HETATM   26  O   UNL     1      40.313 -11.826   1.848  1.00  0.00    -0.266 OA
BRANCH  24  27
HETATM   27  C   UNL     1      41.976 -11.967  -0.453  1.00  0.00     0.161 C 
BRANCH  27  28
HETATM   28  C   UNL     1      41.532 -13.040  -1.412  1.00  0.00    -0.040 A 
HETATM   29  C   UNL     1      41.049 -12.688  -2.679  1.00  0.00     0.011 A 
HETATM   30  C   UNL     1      40.558 -13.667  -3.545  1.00  0.00     0.037 A 
HETATM   31  C   UNL     1      40.536 -15.009  -3.162  1.00  0.00     0.068 A 
HETATM   32  C   UNL     1      41.030 -15.368  -1.908  1.00  0.00     0.037 A 
HETATM   33  C   UNL     1      41.521 -14.389  -1.036  1.00  0.00     0.011 A 
BRANCH  31  34
HETATM   34  O   UNL     1      40.010 -15.859  -4.095  1.00  0.00    -0.356 OA
HETATM   35  C   UNL     1      38.593 -15.906  -4.192  1.00  0.00     0.210 C 
ENDBRANCH  31  34
ENDBRANCH  27  28
ENDBRANCH  24  27
ENDBRANCH   4  23
TORSDOF 8
ENDMDL
MODEL 6
REMARK VINA RESULT:      -8.8      5.614     10.114
REMARK  8 active torsions:
REMARK  status: ('A' for Active; 'I' for Inactive)
REMARK    1  A    between atoms: C_6  and  N_7 
REMARK       I    between atoms: N_7  and  C_8 
REMARK    2  A    between atoms: C_8  and  C_9 
REMARK    3  A    between atoms: C_9  and  N_10 
REMARK    4  A    between atoms: C_13  and  C_14 
REMARK       I    between atoms: C_14  and  N_15 
REMARK    5  A    between atoms: N_15  and  C_16 
REMARK    6  A    between atoms: C_16  and  C_17 
REMARK    7  A    between atoms: C_20  and  O_21 
REMARK    8  A    between atoms: C_26  and  N_27 
ROOT
HETATM    1  N   UNL     1      41.758 -14.965   3.027  1.00  0.00    -0.248 N 
HETATM    2  N   UNL     1      41.214 -16.020   2.382  1.00  0.00     0.007 NA
HETATM    3  N   UNL     1      41.122 -15.695   1.103  1.00  0.00    -0.150 NA
HETATM    4  C   UNL     1      41.602 -14.410   0.943  1.00  0.00     0.186 A 
HETATM    5  C   UNL     1      42.025 -13.927   2.171  1.00  0.00     0.151 A 
ENDROOT
BRANCH   1   6
HETATM    6  C   UNL     1      41.936 -15.040   4.456  1.00  0.00     0.251 C 
BRANCH   6   7
HETATM    7  C   UNL     1      42.219 -16.452   4.917  1.00  0.00     0.241 C 
HETATM    8  N   UNL     1      43.417 -16.971   4.448  1.00  0.00    -0.325 N 
HETATM    9  H   UNL     1      43.874 -16.423   3.726  1.00  0.00     0.169 HD
HETATM   10  O   UNL     1      41.359 -17.066   5.544  1.00  0.00    -0.271 OA
BRANCH   8  11
HETATM   11  C   UNL     1      43.888 -18.298   4.606  1.00  0.00     0.046 A 
HETATM   12  C   UNL     1      44.027 -19.075   3.429  1.00  0.00    -0.034 A 
HETATM   13  C   UNL     1      44.413 -20.424   3.523  1.00  0.00     0.015 A 
HETATM   14  C   UNL     1      43.730 -18.523   2.057  1.00  0.00     0.050 C 
HETATM   15  C   UNL     1      44.683 -21.012   4.757  1.00  0.00    -0.061 A 
HETATM   16  C   UNL     1      45.055 -22.460   4.864  1.00  0.00     0.048 C 
HETATM   17  C   UNL     1      44.608 -20.222   5.906  1.00  0.00     0.015 A 
HETATM   18  C   UNL     1      44.252 -18.860   5.846  1.00  0.00    -0.034 A 
HETATM   19  C   UNL     1      44.355 -18.087   7.135  1.00  0.00     0.050 C 
ENDBRANCH   8  11
ENDBRANCH   6   7
ENDBRANCH   1   6
BRANCH   5  20
HETATM   20  N   UNL     1      42.558 -12.745   2.553  1.00  0.00    -0.382 N 
HETATM   21  H   UNL     1      42.660 -12.555   3.554  1.00  0.00     0.157 HD
HETATM   22  H   UNL     1      42.523 -11.897   1.993  1.00  0.00     0.157 HD
ENDBRANCH   5  20
BRANCH   4  23
HETATM   23  C   UNL     1      41.618 -13.736  -0.348  1.00  0.00     0.275 C 
HETATM   24  N   UNL     1      41.545 -14.608  -1.406  1.00  0.00    -0.351 N 
HETATM   25  H   UNL     1      41.550 -15.602  -1.199  1.00  0.00     0.163 HD
HETATM   26  O   UNL     1      41.680 -12.517  -0.479  1.00  0.00    -0.266 OA
BRANCH  24  27
HETATM   27  C   UNL     1      41.484 -14.177  -2.778  1.00  0.00     0.161 C 
BRANCH  27  28
HETATM   28  C   UNL     1      40.089 -14.374  -3.308  1.00  0.00    -0.040 A 
HETATM   29  C   UNL     1      39.160 -13.327  -3.238  1.00  0.00     0.011 A 
HETATM   30  C   UNL     1      37.841 -13.523  -3.651  1.00  0.00     0.037 A 
HETATM   31  C   UNL     1      37.425 -14.764  -4.136  1.00  0.00     0.068 A 
HETATM   32  C   UNL     1      38.348 -15.806  -4.224  1.00  0.00     0.037 A 
HETATM   33  C   UNL     1      39.672 -15.614  -3.808  1.00  0.00     0.011 A 
BRANCH  31  34
HETATM   34  O   UNL     1      36.104 -14.826  -4.485  1.00  0.00    -0.356 OA
HETATM   35  C   UNL     1      35.581 -13.720  -5.208  1.00  0.00     0.210 C 
ENDBRANCH  31  34
ENDBRANCH  27  28
ENDBRANCH  24  27
ENDBRANCH   4  23
TORSDOF 8
ENDMDL
MODEL 7
REMARK VINA RESULT:      -8.8      2.444     10.648
REMARK  8 active torsions:
REMARK  status: ('A' for Active; 'I' for Inactive)
REMARK    1  A    between atoms: C_6  and  N_7 
REMARK       I    between atoms: N_7  and  C_8 
REMARK    2  A    between atoms: C_8  and  C_9 
REMARK    3  A    between atoms: C_9  and  N_10 
REMARK    4  A    between atoms: C_13  and  C_14 
REMARK       I    between atoms: C_14  and  N_15 
REMARK    5  A    between atoms: N_15  and  C_16 
REMARK    6  A    between atoms: C_16  and  C_17 
REMARK    7  A    between atoms: C_20  and  O_21 
REMARK    8  A    between atoms: C_26  and  N_27 
ROOT
HETATM    1  N   UNL     1      41.405 -11.836   5.734  1.00  0.00    -0.248 N 
HETATM    2  N   UNL     1      42.305 -12.651   6.325  1.00  0.00     0.007 NA
HETATM    3  N   UNL     1      42.840 -13.402   5.375  1.00  0.00    -0.150 NA
HETATM    4  C   UNL     1      42.256 -13.063   4.171  1.00  0.00     0.186 A 
HETATM    5  C   UNL     1      41.336 -12.049   4.381  1.00  0.00     0.151 A 
ENDROOT
BRANCH   1   6
HETATM    6  C   UNL     1      40.642 -10.929   6.557  1.00  0.00     0.251 C 
BRANCH   6   7
HETATM    7  C   UNL     1      41.474 -10.349   7.678  1.00  0.00     0.241 C 
HETATM    8  N   UNL     1      41.375 -11.043   8.875  1.00  0.00    -0.325 N 
HETATM    9  H   UNL     1      40.640 -11.742   8.911  1.00  0.00     0.169 HD
HETATM   10  O   UNL     1      42.060  -9.283   7.506  1.00  0.00    -0.271 OA
BRANCH   8  11
HETATM   11  C   UNL     1      41.933 -10.671  10.123  1.00  0.00     0.046 A 
HETATM   12  C   UNL     1      41.046 -10.135  11.090  1.00  0.00    -0.034 A 
HETATM   13  C   UNL     1      41.547  -9.671  12.319  1.00  0.00     0.015 A 
HETATM   14  C   UNL     1      39.565  -9.995  10.838  1.00  0.00     0.050 C 
HETATM   15  C   UNL     1      42.906  -9.746  12.617  1.00  0.00    -0.061 A 
HETATM   16  C   UNL     1      43.450  -9.215  13.909  1.00  0.00     0.048 C 
HETATM   17  C   UNL     1      43.765 -10.336  11.686  1.00  0.00     0.015 A 
HETATM   18  C   UNL     1      43.292 -10.837  10.456  1.00  0.00    -0.034 A 
HETATM   19  C   UNL     1      44.293 -11.580   9.612  1.00  0.00     0.050 C 
ENDBRANCH   8  11
ENDBRANCH   6   7
ENDBRANCH   1   6
BRANCH   5  20
HETATM   20  N   UNL     1      40.508 -11.380   3.549  1.00  0.00    -0.382 N 
HETATM   21  H   UNL     1      39.651 -10.972   3.933  1.00  0.00     0.157 HD
HETATM   22  H   UNL     1      40.447 -11.548   2.548  1.00  0.00     0.157 HD
ENDBRANCH   5  20
BRANCH   4  23
HETATM   23  C   UNL     1      42.604 -13.723   2.920  1.00  0.00     0.275 C 
HETATM   24  N   UNL     1      42.681 -15.088   3.042  1.00  0.00    -0.351 N 
HETATM   25  H   UNL     1      42.556 -15.487   3.967  1.00  0.00     0.163 HD
HETATM   26  O   UNL     1      42.797 -13.125   1.866  1.00  0.00    -0.266 OA
BRANCH  24  27
HETATM   27  C   UNL     1      42.950 -15.963   1.930  1.00  0.00     0.161 C 
BRANCH  27  28
HETATM   28  C   UNL     1      43.437 -17.293   2.439  1.00  0.00    -0.040 A 
HETATM   29  C   UNL     1      43.604 -18.363   1.550  1.00  0.00     0.011 A 
HETATM   30  C   UNL     1      43.976 -19.623   2.022  1.00  0.00     0.037 A 
HETATM   31  C   UNL     1      44.182 -19.839   3.386  1.00  0.00     0.068 A 
HETATM   32  C   UNL     1      44.034 -18.774   4.274  1.00  0.00     0.037 A 
HETATM   33  C   UNL     1      43.659 -17.509   3.805  1.00  0.00     0.011 A 
BRANCH  31  34
HETATM   34  O   UNL     1      44.521 -21.122   3.715  1.00  0.00    -0.356 OA
HETATM   35  C   UNL     1      44.420 -22.096   2.684  1.00  0.00     0.210 C 
ENDBRANCH  31  34
ENDBRANCH  27  28
ENDBRANCH  24  27
ENDBRANCH   4  23
TORSDOF 8
ENDMDL
MODEL 8
REMARK VINA RESULT:      -8.7      6.063      9.734
REMARK  8 active torsions:
REMARK  status: ('A' for Active; 'I' for Inactive)
REMARK    1  A    between atoms: C_6  and  N_7 
REMARK       I    between atoms: N_7  and  C_8 
REMARK    2  A    between atoms: C_8  and  C_9 
REMARK    3  A    between atoms: C_9  and  N_10 
REMARK    4  A    between atoms: C_13  and  C_14 
REMARK       I    between atoms: C_14  and  N_15 
REMARK    5  A    between atoms: N_15  and  C_16 
REMARK    6  A    between atoms: C_16  and  C_17 
REMARK    7  A    between atoms: C_20  and  O_21 
REMARK    8  A    between atoms: C_26  and  N_27 
ROOT
HETATM    1  N   UNL     1      41.924 -14.251   2.887  1.00  0.00    -0.248 N 
HETATM    2  N   UNL     1      42.791 -13.246   2.634  1.00  0.00     0.007 NA
HETATM    3  N   UNL     1      42.667 -12.932   1.355  1.00  0.00    -0.150 NA
HETATM    4  C   UNL     1      41.718 -13.761   0.791  1.00  0.00     0.186 A 
HETATM    5  C   UNL     1      41.222 -14.611   1.766  1.00  0.00     0.151 A 
ENDROOT
BRANCH   1   6
HETATM    6  C   UNL     1      41.882 -14.815   4.214  1.00  0.00     0.251 C 
BRANCH   6   7
HETATM    7  C   UNL     1      42.060 -16.317   4.194  1.00  0.00     0.241 C 
HETATM    8  N   UNL     1      43.296 -16.734   3.721  1.00  0.00    -0.325 N 
HETATM    9  H   UNL     1      43.862 -16.010   3.289  1.00  0.00     0.169 HD
HETATM   10  O   UNL     1      41.107 -17.042   4.468  1.00  0.00    -0.271 OA
BRANCH   8  11
HETATM   11  C   UNL     1      43.705 -18.067   3.470  1.00  0.00     0.046 A 
HETATM   12  C   UNL     1      43.609 -18.528   2.133  1.00  0.00    -0.034 A 
HETATM   13  C   UNL     1      43.923 -19.866   1.830  1.00  0.00     0.015 A 
HETATM   14  C   UNL     1      43.134 -17.645   1.006  1.00  0.00     0.050 C 
HETATM   15  C   UNL     1      44.348 -20.748   2.821  1.00  0.00    -0.061 A 
HETATM   16  C   UNL     1      44.643 -22.184   2.509  1.00  0.00     0.048 C 
HETATM   17  C   UNL     1      44.502 -20.268   4.124  1.00  0.00     0.015 A 
HETATM   18  C   UNL     1      44.225 -18.928   4.457  1.00  0.00    -0.034 A 
HETATM   19  C   UNL     1      44.576 -18.504   5.859  1.00  0.00     0.050 C 
ENDBRANCH   8  11
ENDBRANCH   6   7
ENDBRANCH   1   6
BRANCH   5  20
HETATM   20  N   UNL     1      40.299 -15.599   1.733  1.00  0.00    -0.382 N 
HETATM   21  H   UNL     1      40.175 -16.182   2.566  1.00  0.00     0.157 HD
HETATM   22  H   UNL     1      39.987 -16.059   0.882  1.00  0.00     0.157 HD
ENDBRANCH   5  20
BRANCH   4  23
HETATM   23  C   UNL     1      41.359 -13.694  -0.618  1.00  0.00     0.275 C 
HETATM   24  N   UNL     1      42.385 -13.239  -1.409  1.00  0.00    -0.351 N 
HETATM   25  H   UNL     1      43.241 -12.945  -0.948  1.00  0.00     0.163 HD
HETATM   26  O   UNL     1      40.260 -14.020  -1.057  1.00  0.00    -0.266 OA
BRANCH  24  27
HETATM   27  C   UNL     1      42.291 -13.143  -2.842  1.00  0.00     0.161 C 
BRANCH  27  28
HETATM   28  C   UNL     1      42.314 -11.696  -3.256  1.00  0.00    -0.040 A 
HETATM   29  C   UNL     1      42.282 -11.357  -4.615  1.00  0.00     0.011 A 
HETATM   30  C   UNL     1      42.386 -10.023  -5.013  1.00  0.00     0.037 A 
HETATM   31  C   UNL     1      42.527  -9.008  -4.066  1.00  0.00     0.068 A 
HETATM   32  C   UNL     1      42.542  -9.336  -2.711  1.00  0.00     0.037 A 
HETATM   33  C   UNL     1      42.441 -10.674  -2.308  1.00  0.00     0.011 A 
BRANCH  31  34
HETATM   34  O   UNL     1      42.640  -7.750  -4.592  1.00  0.00    -0.356 OA
HETATM   35  C   UNL     1      42.838  -7.658  -5.997  1.00  0.00     0.210 C 
ENDBRANCH  31  34
ENDBRANCH  27  28
ENDBRANCH  24  27
ENDBRANCH   4  23
TORSDOF 8
ENDMDL
MODEL 9
REMARK VINA RESULT:      -8.6      2.386      3.396
REMARK  8 active torsions:
REMARK  status: ('A' for Active; 'I' for Inactive)
REMARK    1  A    between atoms: C_6  and  N_7 
REMARK       I    between atoms: N_7  and  C_8 
REMARK    2  A    between atoms: C_8  and  C_9 
REMARK    3  A    between atoms: C_9  and  N_10 
REMARK    4  A    between atoms: C_13  and  C_14 
REMARK       I    between atoms: C_14  and  N_15 
REMARK    5  A    between atoms: N_15  and  C_16 
REMARK    6  A    between atoms: C_16  and  C_17 
REMARK    7  A    between atoms: C_20  and  O_21 
REMARK    8  A    between atoms: C_26  and  N_27 
ROOT
HETATM    1  N   UNL     1      41.481 -14.151   4.157  1.00  0.00    -0.248 N 
HETATM    2  N   UNL     1      42.400 -13.162   4.109  1.00  0.00     0.007 NA
HETATM    3  N   UNL     1      42.082 -12.283   5.046  1.00  0.00    -0.150 NA
HETATM    4  C   UNL     1      40.937 -12.718   5.682  1.00  0.00     0.186 A 
HETATM    5  C   UNL     1      40.540 -13.925   5.129  1.00  0.00     0.151 A 
ENDROOT
BRANCH   1   6
HETATM    6  C   UNL     1      41.572 -15.232   3.206  1.00  0.00     0.251 C 
BRANCH   6   7
HETATM    7  C   UNL     1      41.912 -16.545   3.875  1.00  0.00     0.241 C 
HETATM    8  N   UNL     1      43.217 -16.966   3.664  1.00  0.00    -0.325 N 
HETATM    9  H   UNL     1      43.731 -16.447   2.959  1.00  0.00     0.169 HD
HETATM   10  O   UNL     1      41.025 -17.186   4.433  1.00  0.00    -0.271 OA
BRANCH   8  11
HETATM   11  C   UNL     1      43.784 -18.204   4.054  1.00  0.00     0.046 A 
HETATM   12  C   UNL     1      43.898 -19.203   3.055  1.00  0.00    -0.034 A 
HETATM   13  C   UNL     1      44.378 -20.481   3.395  1.00  0.00     0.015 A 
HETATM   14  C   UNL     1      43.477 -18.968   1.626  1.00  0.00     0.050 C 
HETATM   15  C   UNL     1      44.766 -20.781   4.699  1.00  0.00    -0.061 A 
HETATM   16  C   UNL     1      45.238 -22.154   5.073  1.00  0.00     0.048 C 
HETATM   17  C   UNL     1      44.712 -19.772   5.663  1.00  0.00     0.015 A 
HETATM   18  C   UNL     1      44.264 -18.473   5.352  1.00  0.00    -0.034 A 
HETATM   19  C   UNL     1      44.398 -17.444   6.442  1.00  0.00     0.050 C 
ENDBRANCH   8  11
ENDBRANCH   6   7
ENDBRANCH   1   6
BRANCH   5  20
HETATM   20  N   UNL     1      39.499 -14.747   5.383  1.00  0.00    -0.382 N 
HETATM   21  H   UNL     1      38.715 -14.390   5.938  1.00  0.00     0.157 HD
HETATM   22  H   UNL     1      39.566 -15.762   5.407  1.00  0.00     0.157 HD
ENDBRANCH   5  20
BRANCH   4  23
HETATM   23  C   UNL     1      40.302 -11.962   6.753  1.00  0.00     0.275 C 
HETATM   24  N   UNL     1      41.074 -10.918   7.199  1.00  0.00    -0.351 N 
HETATM   25  H   UNL     1      42.002 -10.813   6.799  1.00  0.00     0.163 HD
HETATM   26  O   UNL     1      39.191 -12.223   7.204  1.00  0.00    -0.266 OA
BRANCH  24  27
HETATM   27  C   UNL     1      40.636  -9.991   8.209  1.00  0.00     0.161 C 
BRANCH  27  28
HETATM   28  C   UNL     1      41.258 -10.352   9.531  1.00  0.00    -0.040 A 
HETATM   29  C   UNL     1      40.465 -10.402  10.686  1.00  0.00     0.011 A 
HETATM   30  C   UNL     1      41.044 -10.655  11.931  1.00  0.00     0.037 A 
HETATM   31  C   UNL     1      42.420 -10.858  12.046  1.00  0.00     0.068 A 
HETATM   32  C   UNL     1      43.213 -10.827  10.899  1.00  0.00     0.037 A 
HETATM   33  C   UNL     1      42.636 -10.571   9.649  1.00  0.00     0.011 A 
BRANCH  31  34
HETATM   34  O   UNL     1      42.859 -11.074  13.323  1.00  0.00    -0.356 OA
HETATM   35  C   UNL     1      42.261 -10.290  14.347  1.00  0.00     0.210 C 
ENDBRANCH  31  34
ENDBRANCH  27  28
ENDBRANCH  24  27
ENDBRANCH   4  23
TORSDOF 8
ENDMDL
MODEL 10
REMARK VINA RESULT:      -8.4      2.475     10.475
REMARK  8 active torsions:
REMARK  status: ('A' for Active; 'I' for Inactive)
REMARK    1  A    between atoms: C_6  and  N_7 
REMARK       I    between atoms: N_7  and  C_8 
REMARK    2  A    between atoms: C_8  and  C_9 
REMARK    3  A    between atoms: C_9  and  N_10 
REMARK    4  A    between atoms: C_13  and  C_14 
REMARK       I    between atoms: C_14  and  N_15 
REMARK    5  A    between atoms: N_15  and  C_16 
REMARK    6  A    between atoms: C_16  and  C_17 
REMARK    7  A    between atoms: C_20  and  O_21 
REMARK    8  A    between atoms: C_26  and  N_27 
ROOT
HETATM    1  N   UNL     1      40.579 -12.376   5.869  1.00  0.00    -0.248 N 
HETATM    2  N   UNL     1      40.443 -13.642   6.316  1.00  0.00     0.007 NA
HETATM    3  N   UNL     1      41.228 -14.408   5.576  1.00  0.00    -0.150 NA
HETATM    4  C   UNL     1      41.857 -13.612   4.639  1.00  0.00     0.186 A 
HETATM    5  C   UNL     1      41.457 -12.298   4.819  1.00  0.00     0.151 A 
ENDROOT
BRANCH   1   6
HETATM    6  C   UNL     1      39.795 -11.332   6.483  1.00  0.00     0.251 C 
BRANCH   6   7
HETATM    7  C   UNL     1      40.595 -10.551   7.502  1.00  0.00     0.241 C 
HETATM    8  N   UNL     1      40.802 -11.225   8.697  1.00  0.00    -0.325 N 
HETATM    9  H   UNL     1      40.259 -12.075   8.815  1.00  0.00     0.169 HD
HETATM   10  O   UNL     1      40.892  -9.382   7.268  1.00  0.00    -0.271 OA
BRANCH   8  11
HETATM   11  C   UNL     1      41.401 -10.708   9.872  1.00  0.00     0.046 A 
HETATM   12  C   UNL     1      42.808 -10.831   9.984  1.00  0.00    -0.034 A 
HETATM   13  C   UNL     1      43.456 -10.412  11.160  1.00  0.00     0.015 A 
HETATM   14  C   UNL     1      43.655 -11.446   8.897  1.00  0.00     0.050 C 
HETATM   15  C   UNL     1      42.740  -9.854  12.217  1.00  0.00    -0.061 A 
HETATM   16  C   UNL     1      43.421  -9.444  13.487  1.00  0.00     0.048 C 
HETATM   17  C   UNL     1      41.362  -9.675  12.072  1.00  0.00     0.015 A 
HETATM   18  C   UNL     1      40.685 -10.058  10.897  1.00  0.00    -0.034 A 
HETATM   19  C   UNL     1      39.232  -9.674  10.811  1.00  0.00     0.050 C 
ENDBRANCH   8  11
ENDBRANCH   6   7
ENDBRANCH   1   6
BRANCH   5  20
HETATM   20  N   UNL     1      41.768 -11.153   4.171  1.00  0.00    -0.382 N 
HETATM   21  H   UNL     1      42.749 -10.970   3.941  1.00  0.00     0.157 HD
HETATM   22  H   UNL     1      41.211 -10.304   4.216  1.00  0.00     0.157 HD
ENDBRANCH   5  20
BRANCH   4  23
HETATM   23  C   UNL     1      42.776 -14.151   3.646  1.00  0.00     0.275 C 
HETATM   24  N   UNL     1      42.468 -15.436   3.276  1.00  0.00    -0.351 N 
HETATM   25  H   UNL     1      41.698 -15.894   3.755  1.00  0.00     0.163 HD
HETATM   26  O   UNL     1      43.720 -13.520   3.180  1.00  0.00    -0.266 OA
BRANCH  24  27
HETATM   27  C   UNL     1      43.194 -16.160   2.266  1.00  0.00     0.161 C 
BRANCH  27  28
HETATM   28  C   UNL     1      43.524 -17.539   2.769  1.00  0.00    -0.040 A 
HETATM   29  C   UNL     1      43.776 -17.744   4.132  1.00  0.00     0.011 A 
HETATM   30  C   UNL     1      44.163 -19.001   4.599  1.00  0.00     0.037 A 
HETATM   31  C   UNL     1      44.310 -20.073   3.716  1.00  0.00     0.068 A 
HETATM   32  C   UNL     1      44.045 -19.880   2.361  1.00  0.00     0.037 A 
HETATM   33  C   UNL     1      43.658 -18.620   1.889  1.00  0.00     0.011 A 
BRANCH  31  34
HETATM   34  O   UNL     1      44.715 -21.241   4.300  1.00  0.00    -0.356 OA
HETATM   35  C   UNL     1      44.569 -22.427   3.529  1.00  0.00     0.210 C 
ENDBRANCH  31  34
ENDBRANCH  27  28
ENDBRANCH  24  27
ENDBRANCH   4  23
TORSDOF 8
ENDMDL
