MODEL 1
REMARK VINA RESULT:      -8.4      0.000      0.000
REMARK  4 active torsions:
REMARK  status: ('A' for Active; 'I' for Inactive)
REMARK    1  A    between atoms: O_2  and  C_3 
REMARK    2  A    between atoms: C_5  and  C_6 
REMARK    3  A    between atoms: C_10  and  N_11 
REMARK    4  A    between atoms: C_14  and  C_15 
ROOT
HETATM    1  C   UNL     1      41.903 -17.043   4.025  1.00  0.00     0.164 C 
HETATM    2  N   UNL     1      42.455 -15.906   4.758  1.00  0.00    -0.074 N 
HETATM    3  C   UNL     1      42.107 -14.601   4.519  1.00  0.00     0.736 C 
HETATM    4  N   UNL     1      42.664 -13.838   5.421  1.00  0.00     0.131 NA
HETATM    5  C   UNL     1      43.315 -14.731   6.220  1.00  0.00     0.753 C 
HETATM    6  N   UNL     1      43.157 -16.013   5.902  1.00  0.00     0.037 NA
HETATM    7  N   UNL     1      41.285 -14.267   3.501  1.00  0.00    -0.214 N 
HETATM    8  C   UNL     1      40.433 -15.305   2.934  1.00  0.00     0.135 C 
HETATM    9  C   UNL     1      41.262 -16.577   2.704  1.00  0.00     0.063 C 
HETATM   10  H   UNL     1      40.872 -13.339   3.551  1.00  0.00     0.178 HD
ENDROOT
BRANCH   1  11
HETATM   11  C   UNL     1      42.899 -18.160   3.738  1.00  0.00    -0.030 A 
HETATM   12  C   UNL     1      43.360 -18.950   4.811  1.00  0.00     0.046 A 
HETATM   13  C   UNL     1      44.220 -20.030   4.592  1.00  0.00     0.068 A 
HETATM   14  C   UNL     1      44.639 -20.316   3.293  1.00  0.00     0.037 A 
HETATM   15  C   UNL     1      44.189 -19.549   2.219  1.00  0.00     0.003 A 
HETATM   16  C   UNL     1      43.316 -18.484   2.437  1.00  0.00     0.009 A 
BRANCH  13  17
HETATM   17  O   UNL     1      44.715 -20.870   5.551  1.00  0.00    -0.356 OA
HETATM   18  C   UNL     1      45.026 -22.198   5.148  1.00  0.00     0.210 C 
ENDBRANCH  13  17
ENDBRANCH   1  11
BRANCH   8  19
HETATM   19  C   UNL     1      39.807 -14.838   1.632  1.00  0.00    -0.035 A 
HETATM   20  C   UNL     1      38.448 -14.487   1.551  1.00  0.00     0.010 A 
HETATM   21  C   UNL     1      37.901 -14.019   0.354  1.00  0.00     0.019 A 
HETATM   22  C   UNL     1      38.712 -13.890  -0.771  1.00  0.00     0.011 A 
HETATM   23 BR   UNL     1      37.976 -13.247  -2.390  1.00  0.00    -0.051 Br
HETATM   24  C   UNL     1      40.062 -14.224  -0.711  1.00  0.00     0.019 A 
HETATM   25  C   UNL     1      40.607 -14.696   0.487  1.00  0.00     0.010 A 
ENDBRANCH   8  19
BRANCH   5  26
HETATM   26  N   UNL     1      43.995 -14.271   7.266  1.00  0.00    -0.229 N 
HETATM   27  H   UNL     1      44.912 -14.663   7.422  1.00  0.00     0.174 HD
HETATM   28  H   UNL     1      43.903 -13.288   7.476  1.00  0.00     0.174 HD
ENDBRANCH   5  26
TORSDOF 4
ENDMDL
MODEL 2
REMARK VINA RESULT:      -8.4      1.276      1.853
REMARK  4 active torsions:
REMARK  status: ('A' for Active; 'I' for Inactive)
REMARK    1  A    between atoms: O_2  and  C_3 
REMARK    2  A    between atoms: C_5  and  C_6 
REMARK    3  A    between atoms: C_10  and  N_11 
REMARK    4  A    between atoms: C_14  and  C_15 
ROOT
HETATM    1  C   UNL     1      42.244 -17.134   4.505  1.00  0.00     0.164 C 
HETATM    2  N   UNL     1      42.869 -15.948   5.085  1.00  0.00    -0.074 N 
HETATM    3  C   UNL     1      42.801 -14.697   4.526  1.00  0.00     0.736 C 
HETATM    4  N   UNL     1      43.337 -13.833   5.346  1.00  0.00     0.131 NA
HETATM    5  C   UNL     1      43.686 -14.601   6.417  1.00  0.00     0.753 C 
HETATM    6  N   UNL     1      43.353 -15.886   6.339  1.00  0.00     0.037 NA
HETATM    7  N   UNL     1      42.221 -14.494   3.324  1.00  0.00    -0.214 N 
HETATM    8  C   UNL     1      41.296 -15.504   2.825  1.00  0.00     0.135 C 
HETATM    9  C   UNL     1      41.910 -16.899   3.019  1.00  0.00     0.063 C 
HETATM   10  H   UNL     1      41.978 -13.530   3.106  1.00  0.00     0.178 HD
ENDROOT
BRANCH   1  11
HETATM   11  C   UNL     1      43.057 -18.415   4.644  1.00  0.00    -0.030 A 
HETATM   12  C   UNL     1      43.611 -18.996   3.483  1.00  0.00     0.046 A 
HETATM   13  C   UNL     1      44.421 -20.131   3.564  1.00  0.00     0.068 A 
HETATM   14  C   UNL     1      44.671 -20.704   4.810  1.00  0.00     0.037 A 
HETATM   15  C   UNL     1      44.137 -20.140   5.968  1.00  0.00     0.003 A 
HETATM   16  C   UNL     1      43.344 -18.997   5.888  1.00  0.00     0.009 A 
BRANCH  13  17
HETATM   17  O   UNL     1      45.021 -20.766   2.511  1.00  0.00    -0.356 OA
HETATM   18  C   UNL     1      44.318 -21.857   1.930  1.00  0.00     0.210 C 
ENDBRANCH  13  17
ENDBRANCH   1  11
BRANCH   8  19
HETATM   19  C   UNL     1      40.975 -15.266   1.361  1.00  0.00    -0.035 A 
HETATM   20  C   UNL     1      40.169 -14.190   0.948  1.00  0.00     0.010 A 
HETATM   21  C   UNL     1      39.920 -13.963  -0.407  1.00  0.00     0.019 A 
HETATM   22  C   UNL     1      40.482 -14.806  -1.363  1.00  0.00     0.011 A 
HETATM   23 BR   UNL     1      40.154 -14.494  -3.199  1.00  0.00    -0.051 Br
HETATM   24  C   UNL     1      41.288 -15.873  -0.977  1.00  0.00     0.019 A 
HETATM   25  C   UNL     1      41.534 -16.101   0.380  1.00  0.00     0.010 A 
ENDBRANCH   8  19
BRANCH   5  26
HETATM   26  N   UNL     1      44.265 -14.013   7.459  1.00  0.00    -0.229 N 
HETATM   27  H   UNL     1      44.868 -13.227   7.263  1.00  0.00     0.174 HD
HETATM   28  H   UNL     1      43.719 -13.938   8.306  1.00  0.00     0.174 HD
ENDBRANCH   5  26
TORSDOF 4
ENDMDL
MODEL 3
REMARK VINA RESULT:      -8.2      3.696      7.030
REMARK  4 active torsions:
REMARK  status: ('A' for Active; 'I' for Inactive)
REMARK    1  A    between atoms: O_2  and  C_3 
REMARK    2  A    between atoms: C_5  and  C_6 
REMARK    3  A    between atoms: C_10  and  N_11 
REMARK    4  A    between atoms: C_14  and  C_15 
ROOT
HETATM    1  C   UNL     1      41.125 -14.626   2.687  1.00  0.00     0.164 C 
HETATM    2  N   UNL     1      40.702 -14.542   4.083  1.00  0.00    -0.074 N 
HETATM    3  C   UNL     1      41.105 -15.419   5.058  1.00  0.00     0.736 C 
HETATM    4  N   UNL     1      40.669 -14.999   6.216  1.00  0.00     0.131 NA
HETATM    5  C   UNL     1      40.035 -13.834   5.902  1.00  0.00     0.753 C 
HETATM    6  N   UNL     1      40.091 -13.471   4.624  1.00  0.00     0.037 NA
HETATM    7  N   UNL     1      41.860 -16.499   4.765  1.00  0.00    -0.214 N 
HETATM    8  C   UNL     1      42.601 -16.503   3.510  1.00  0.00     0.135 C 
HETATM    9  C   UNL     1      41.683 -16.028   2.374  1.00  0.00     0.063 C 
HETATM   10  H   UNL     1      42.328 -16.940   5.553  1.00  0.00     0.178 HD
ENDROOT
BRANCH   1  11
HETATM   11  C   UNL     1      40.045 -14.273   1.672  1.00  0.00    -0.030 A 
HETATM   12  C   UNL     1      40.422 -13.612   0.484  1.00  0.00     0.046 A 
HETATM   13  C   UNL     1      39.482 -13.327  -0.510  1.00  0.00     0.068 A 
HETATM   14  C   UNL     1      38.150 -13.689  -0.312  1.00  0.00     0.037 A 
HETATM   15  C   UNL     1      37.760 -14.348   0.853  1.00  0.00     0.003 A 
HETATM   16  C   UNL     1      38.703 -14.648   1.835  1.00  0.00     0.009 A 
BRANCH  13  17
HETATM   17  O   UNL     1      39.736 -12.708  -1.702  1.00  0.00    -0.356 OA
HETATM   18  C   UNL     1      40.746 -13.281  -2.524  1.00  0.00     0.210 C 
ENDBRANCH  13  17
ENDBRANCH   1  11
BRANCH   8  19
HETATM   19  C   UNL     1      43.144 -17.888   3.208  1.00  0.00    -0.035 A 
HETATM   20  C   UNL     1      43.978 -18.566   4.114  1.00  0.00     0.010 A 
HETATM   21  C   UNL     1      44.434 -19.857   3.836  1.00  0.00     0.019 A 
HETATM   22  C   UNL     1      44.052 -20.485   2.653  1.00  0.00     0.011 A 
HETATM   23 BR   UNL     1      44.658 -22.236   2.281  1.00  0.00    -0.051 Br
HETATM   24  C   UNL     1      43.220 -19.834   1.746  1.00  0.00     0.019 A 
HETATM   25  C   UNL     1      42.768 -18.541   2.023  1.00  0.00     0.010 A 
ENDBRANCH   8  19
BRANCH   5  26
HETATM   26  N   UNL     1      39.470 -13.134   6.882  1.00  0.00    -0.229 N 
HETATM   27  H   UNL     1      39.744 -13.367   7.825  1.00  0.00     0.174 HD
HETATM   28  H   UNL     1      39.307 -12.152   6.708  1.00  0.00     0.174 HD
ENDBRANCH   5  26
TORSDOF 4
ENDMDL
MODEL 4
REMARK VINA RESULT:      -8.1      4.381      7.525
REMARK  4 active torsions:
REMARK  status: ('A' for Active; 'I' for Inactive)
REMARK    1  A    between atoms: O_2  and  C_3 
REMARK    2  A    between atoms: C_5  and  C_6 
REMARK    3  A    between atoms: C_10  and  N_11 
REMARK    4  A    between atoms: C_14  and  C_15 
ROOT
HETATM    1  C   UNL     1      43.365 -14.484   6.298  1.00  0.00     0.164 C 
HETATM    2  N   UNL     1      42.995 -13.998   4.970  1.00  0.00    -0.074 N 
HETATM    3  C   UNL     1      42.759 -14.817   3.895  1.00  0.00     0.736 C 
HETATM    4  N   UNL     1      42.319 -14.097   2.898  1.00  0.00     0.131 NA
HETATM    5  C   UNL     1      42.265 -12.841   3.426  1.00  0.00     0.753 C 
HETATM    6  N   UNL     1      42.595 -12.740   4.711  1.00  0.00     0.037 NA
HETATM    7  N   UNL     1      42.953 -16.151   3.970  1.00  0.00    -0.214 N 
HETATM    8  C   UNL     1      42.991 -16.770   5.290  1.00  0.00     0.135 C 
HETATM    9  C   UNL     1      43.884 -15.933   6.219  1.00  0.00     0.063 C 
HETATM   10  H   UNL     1      42.514 -16.705   3.238  1.00  0.00     0.178 HD
ENDROOT
BRANCH   1  11
HETATM   11  C   UNL     1      44.384 -13.621   7.031  1.00  0.00    -0.030 A 
HETATM   12  C   UNL     1      43.970 -12.907   8.174  1.00  0.00     0.046 A 
HETATM   13  C   UNL     1      44.881 -12.156   8.922  1.00  0.00     0.068 A 
HETATM   14  C   UNL     1      46.214 -12.102   8.518  1.00  0.00     0.037 A 
HETATM   15  C   UNL     1      46.643 -12.806   7.394  1.00  0.00     0.003 A 
HETATM   16  C   UNL     1      45.737 -13.570   6.660  1.00  0.00     0.009 A 
BRANCH  13  17
HETATM   17  O   UNL     1      44.595 -11.440  10.052  1.00  0.00    -0.356 OA
HETATM   18  C   UNL     1      44.174 -12.177  11.193  1.00  0.00     0.210 C 
ENDBRANCH  13  17
ENDBRANCH   1  11
BRANCH   8  19
HETATM   19  C   UNL     1      43.506 -18.195   5.203  1.00  0.00    -0.035 A 
HETATM   20  C   UNL     1      44.036 -18.716   4.010  1.00  0.00     0.010 A 
HETATM   21  C   UNL     1      44.543 -20.017   3.962  1.00  0.00     0.019 A 
HETATM   22  C   UNL     1      44.532 -20.805   5.110  1.00  0.00     0.011 A 
HETATM   23 BR   UNL     1      45.227 -22.562   5.049  1.00  0.00    -0.051 Br
HETATM   24  C   UNL     1      44.018 -20.306   6.304  1.00  0.00     0.019 A 
HETATM   25  C   UNL     1      43.508 -19.006   6.350  1.00  0.00     0.010 A 
ENDBRANCH   8  19
BRANCH   5  26
HETATM   26  N   UNL     1      41.840 -11.844   2.655  1.00  0.00    -0.229 N 
HETATM   27  H   UNL     1      41.924 -11.972   1.657  1.00  0.00     0.174 HD
HETATM   28  H   UNL     1      41.015 -11.349   2.960  1.00  0.00     0.174 HD
ENDBRANCH   5  26
TORSDOF 4
ENDMDL
MODEL 5
REMARK VINA RESULT:      -8.1      3.683      6.927
REMARK  4 active torsions:
REMARK  status: ('A' for Active; 'I' for Inactive)
REMARK    1  A    between atoms: O_2  and  C_3 
REMARK    2  A    between atoms: C_5  and  C_6 
REMARK    3  A    between atoms: C_10  and  N_11 
REMARK    4  A    between atoms: C_14  and  C_15 
ROOT
HETATM    1  C   UNL     1      42.123 -14.224   3.102  1.00  0.00     0.164 C 
HETATM    2  N   UNL     1      41.294 -14.295   4.303  1.00  0.00    -0.074 N 
HETATM    3  C   UNL     1      41.257 -15.380   5.143  1.00  0.00     0.736 C 
HETATM    4  N   UNL     1      40.532 -15.084   6.190  1.00  0.00     0.131 NA
HETATM    5  C   UNL     1      40.179 -13.787   5.963  1.00  0.00     0.753 C 
HETATM    6  N   UNL     1      40.682 -13.235   4.862  1.00  0.00     0.037 NA
HETATM    7  N   UNL     1      41.924 -16.517   4.854  1.00  0.00    -0.214 N 
HETATM    8  C   UNL     1      43.018 -16.450   3.893  1.00  0.00     0.135 C 
HETATM    9  C   UNL     1      42.573 -15.634   2.670  1.00  0.00     0.063 C 
HETATM   10  H   UNL     1      42.061 -17.159   5.631  1.00  0.00     0.178 HD
ENDROOT
BRANCH   1  11
HETATM   11  C   UNL     1      41.472 -13.516   1.920  1.00  0.00    -0.030 A 
HETATM   12  C   UNL     1      40.268 -14.034   1.400  1.00  0.00     0.046 A 
HETATM   13  C   UNL     1      39.595 -13.383   0.362  1.00  0.00     0.068 A 
HETATM   14  C   UNL     1      40.135 -12.215  -0.174  1.00  0.00     0.037 A 
HETATM   15  C   UNL     1      41.322 -11.686   0.331  1.00  0.00     0.003 A 
HETATM   16  C   UNL     1      41.982 -12.326   1.379  1.00  0.00     0.009 A 
BRANCH  13  17
HETATM   17  O   UNL     1      38.417 -13.783  -0.207  1.00  0.00    -0.356 OA
HETATM   18  C   UNL     1      37.332 -14.047   0.674  1.00  0.00     0.210 C 
ENDBRANCH  13  17
ENDBRANCH   1  11
BRANCH   8  19
HETATM   19  C   UNL     1      43.452 -17.842   3.471  1.00  0.00    -0.035 A 
HETATM   20  C   UNL     1      44.146 -18.694   4.347  1.00  0.00     0.010 A 
HETATM   21  C   UNL     1      44.500 -19.987   3.954  1.00  0.00     0.019 A 
HETATM   22  C   UNL     1      44.155 -20.442   2.684  1.00  0.00     0.011 A 
HETATM   23 BR   UNL     1      44.623 -22.195   2.155  1.00  0.00    -0.051 Br
HETATM   24  C   UNL     1      43.461 -19.617   1.804  1.00  0.00     0.019 A 
HETATM   25  C   UNL     1      43.110 -18.322   2.197  1.00  0.00     0.010 A 
ENDBRANCH   8  19
BRANCH   5  26
HETATM   26  N   UNL     1      39.426 -13.166   6.866  1.00  0.00    -0.229 N 
HETATM   27  H   UNL     1      38.522 -13.570   7.061  1.00  0.00     0.174 HD
HETATM   28  H   UNL     1      39.902 -12.764   7.661  1.00  0.00     0.174 HD
ENDBRANCH   5  26
TORSDOF 4
ENDMDL
MODEL 6
REMARK VINA RESULT:      -8.1      2.552      3.376
REMARK  4 active torsions:
REMARK  status: ('A' for Active; 'I' for Inactive)
REMARK    1  A    between atoms: O_2  and  C_3 
REMARK    2  A    between atoms: C_5  and  C_6 
REMARK    3  A    between atoms: C_10  and  N_11 
REMARK    4  A    between atoms: C_14  and  C_15 
ROOT
HETATM    1  C   UNL     1      42.131 -18.085   5.097  1.00  0.00     0.164 C 
HETATM    2  N   UNL     1      42.793 -17.860   6.380  1.00  0.00    -0.074 N 
HETATM    3  C   UNL     1      42.587 -16.753   7.163  1.00  0.00     0.736 C 
HETATM    4  N   UNL     1      43.213 -16.911   8.299  1.00  0.00     0.131 NA
HETATM    5  C   UNL     1      43.759 -18.154   8.179  1.00  0.00     0.753 C 
HETATM    6  N   UNL     1      43.469 -18.807   7.057  1.00  0.00     0.037 NA
HETATM    7  N   UNL     1      41.815 -15.728   6.744  1.00  0.00    -0.214 N 
HETATM    8  C   UNL     1      40.862 -15.977   5.669  1.00  0.00     0.135 C 
HETATM    9  C   UNL     1      41.554 -16.766   4.547  1.00  0.00     0.063 C 
HETATM   10  H   UNL     1      41.502 -15.084   7.467  1.00  0.00     0.178 HD
ENDROOT
BRANCH   1  11
HETATM   11  C   UNL     1      43.006 -18.737   4.034  1.00  0.00    -0.030 A 
HETATM   12  C   UNL     1      43.569 -20.002   4.302  1.00  0.00     0.046 A 
HETATM   13  C   UNL     1      44.322 -20.674   3.336  1.00  0.00     0.068 A 
HETATM   14  C   UNL     1      44.529 -20.074   2.094  1.00  0.00     0.037 A 
HETATM   15  C   UNL     1      43.975 -18.826   1.809  1.00  0.00     0.003 A 
HETATM   16  C   UNL     1      43.209 -18.166   2.768  1.00  0.00     0.009 A 
BRANCH  13  17
HETATM   17  O   UNL     1      44.899 -21.905   3.480  1.00  0.00    -0.356 OA
HETATM   18  C   UNL     1      44.982 -22.429   4.799  1.00  0.00     0.210 C 
ENDBRANCH  13  17
ENDBRANCH   1  11
BRANCH   8  19
HETATM   19  C   UNL     1      40.302 -14.673   5.131  1.00  0.00    -0.035 A 
HETATM   20  C   UNL     1      40.011 -13.590   5.980  1.00  0.00     0.010 A 
HETATM   21  C   UNL     1      39.535 -12.384   5.461  1.00  0.00     0.019 A 
HETATM   22  C   UNL     1      39.355 -12.247   4.087  1.00  0.00     0.011 A 
HETATM   23 BR   UNL     1      38.721 -10.611   3.381  1.00  0.00    -0.051 Br
HETATM   24  C   UNL     1      39.643 -13.304   3.228  1.00  0.00     0.019 A 
HETATM   25  C   UNL     1      40.116 -14.512   3.749  1.00  0.00     0.010 A 
ENDBRANCH   8  19
BRANCH   5  26
HETATM   26  N   UNL     1      44.474 -18.635   9.192  1.00  0.00    -0.229 N 
HETATM   27  H   UNL     1      45.403 -18.968   8.977  1.00  0.00     0.174 HD
HETATM   28  H   UNL     1      44.376 -18.171  10.083  1.00  0.00     0.174 HD
ENDBRANCH   5  26
TORSDOF 4
ENDMDL
MODEL 7
REMARK VINA RESULT:      -8.1      3.634      6.118
REMARK  4 active torsions:
REMARK  status: ('A' for Active; 'I' for Inactive)
REMARK    1  A    between atoms: O_2  and  C_3 
REMARK    2  A    between atoms: C_5  and  C_6 
REMARK    3  A    between atoms: C_10  and  N_11 
REMARK    4  A    between atoms: C_14  and  C_15 
ROOT
HETATM    1  C   UNL     1      43.330 -16.163   4.338  1.00  0.00     0.164 C 
HETATM    2  N   UNL     1      41.956 -15.875   3.935  1.00  0.00    -0.074 N 
HETATM    3  C   UNL     1      41.240 -14.793   4.381  1.00  0.00     0.736 C 
HETATM    4  N   UNL     1      40.103 -14.740   3.738  1.00  0.00     0.131 NA
HETATM    5  C   UNL     1      40.187 -15.793   2.877  1.00  0.00     0.753 C 
HETATM    6  N   UNL     1      41.330 -16.473   2.904  1.00  0.00     0.037 NA
HETATM    7  N   UNL     1      41.736 -13.958   5.318  1.00  0.00    -0.214 N 
HETATM    8  C   UNL     1      43.177 -13.946   5.538  1.00  0.00     0.135 C 
HETATM    9  C   UNL     1      43.692 -15.391   5.621  1.00  0.00     0.063 C 
HETATM   10  H   UNL     1      41.272 -13.056   5.398  1.00  0.00     0.178 HD
ENDROOT
BRANCH   1  11
HETATM   11  C   UNL     1      43.640 -17.642   4.532  1.00  0.00    -0.030 A 
HETATM   12  C   UNL     1      44.017 -18.409   3.410  1.00  0.00     0.046 A 
HETATM   13  C   UNL     1      44.378 -19.752   3.545  1.00  0.00     0.068 A 
HETATM   14  C   UNL     1      44.349 -20.342   4.808  1.00  0.00     0.037 A 
HETATM   15  C   UNL     1      43.985 -19.598   5.930  1.00  0.00     0.003 A 
HETATM   16  C   UNL     1      43.643 -18.253   5.796  1.00  0.00     0.009 A 
BRANCH  13  17
HETATM   17  O   UNL     1      44.773 -20.583   2.534  1.00  0.00    -0.356 OA
HETATM   18  C   UNL     1      44.409 -21.953   2.645  1.00  0.00     0.210 C 
ENDBRANCH  13  17
ENDBRANCH   1  11
BRANCH   8  19
HETATM   19  C   UNL     1      43.523 -13.186   6.805  1.00  0.00    -0.035 A 
HETATM   20  C   UNL     1      44.649 -13.518   7.579  1.00  0.00     0.010 A 
HETATM   21  C   UNL     1      44.974 -12.780   8.720  1.00  0.00     0.019 A 
HETATM   22  C   UNL     1      44.181 -11.697   9.090  1.00  0.00     0.011 A 
HETATM   23 BR   UNL     1      44.626 -10.689  10.627  1.00  0.00    -0.051 Br
HETATM   24  C   UNL     1      43.066 -11.346   8.333  1.00  0.00     0.019 A 
HETATM   25  C   UNL     1      42.740 -12.088   7.195  1.00  0.00     0.010 A 
ENDBRANCH   8  19
BRANCH   5  26
HETATM   26  N   UNL     1      39.169 -16.022   2.052  1.00  0.00    -0.229 N 
HETATM   27  H   UNL     1      39.343 -15.891   1.066  1.00  0.00     0.174 HD
HETATM   28  H   UNL     1      38.553 -16.788   2.285  1.00  0.00     0.174 HD
ENDBRANCH   5  26
TORSDOF 4
ENDMDL
MODEL 8
REMARK VINA RESULT:      -8.0      2.871      4.557
REMARK  4 active torsions:
REMARK  status: ('A' for Active; 'I' for Inactive)
REMARK    1  A    between atoms: O_2  and  C_3 
REMARK    2  A    between atoms: C_5  and  C_6 
REMARK    3  A    between atoms: C_10  and  N_11 
REMARK    4  A    between atoms: C_14  and  C_15 
ROOT
HETATM    1  C   UNL     1      43.599 -17.255   3.808  1.00  0.00     0.164 C 
HETATM    2  N   UNL     1      43.554 -18.604   3.248  1.00  0.00    -0.074 N 
HETATM    3  C   UNL     1      42.858 -18.938   2.114  1.00  0.00     0.736 C 
HETATM    4  N   UNL     1      43.125 -20.178   1.799  1.00  0.00     0.131 NA
HETATM    5  C   UNL     1      44.025 -20.551   2.754  1.00  0.00     0.753 C 
HETATM    6  N   UNL     1      44.377 -19.603   3.618  1.00  0.00     0.037 NA
HETATM    7  N   UNL     1      42.073 -18.042   1.480  1.00  0.00    -0.214 N 
HETATM    8  C   UNL     1      42.297 -16.624   1.738  1.00  0.00     0.135 C 
HETATM    9  C   UNL     1      42.446 -16.398   3.250  1.00  0.00     0.063 C 
HETATM   10  H   UNL     1      41.811 -18.279   0.526  1.00  0.00     0.178 HD
ENDROOT
BRANCH   1  11
HETATM   11  C   UNL     1      43.582 -17.196   5.330  1.00  0.00    -0.030 A 
HETATM   12  C   UNL     1      44.008 -16.011   5.967  1.00  0.00     0.046 A 
HETATM   13  C   UNL     1      43.947 -15.880   7.357  1.00  0.00     0.068 A 
HETATM   14  C   UNL     1      43.473 -16.945   8.122  1.00  0.00     0.037 A 
HETATM   15  C   UNL     1      43.043 -18.122   7.509  1.00  0.00     0.003 A 
HETATM   16  C   UNL     1      43.086 -18.243   6.122  1.00  0.00     0.009 A 
BRANCH  13  17
HETATM   17  O   UNL     1      44.316 -14.778   8.076  1.00  0.00    -0.356 OA
HETATM   18  C   UNL     1      44.932 -13.716   7.360  1.00  0.00     0.210 C 
ENDBRANCH  13  17
ENDBRANCH   1  11
BRANCH   8  19
HETATM   19  C   UNL     1      41.155 -15.789   1.187  1.00  0.00    -0.035 A 
HETATM   20  C   UNL     1      39.979 -15.571   1.925  1.00  0.00     0.010 A 
HETATM   21  C   UNL     1      38.957 -14.764   1.418  1.00  0.00     0.019 A 
HETATM   22  C   UNL     1      39.108 -14.161   0.171  1.00  0.00     0.011 A 
HETATM   23 BR   UNL     1      37.731 -13.061  -0.512  1.00  0.00    -0.051 Br
HETATM   24  C   UNL     1      40.268 -14.358  -0.572  1.00  0.00     0.019 A 
HETATM   25  C   UNL     1      41.288 -15.168  -0.065  1.00  0.00     0.010 A 
ENDBRANCH   8  19
BRANCH   5  26
HETATM   26  N   UNL     1      44.516 -21.786   2.717  1.00  0.00    -0.229 N 
HETATM   27  H   UNL     1      44.708 -22.174   1.804  1.00  0.00     0.174 HD
HETATM   28  H   UNL     1      45.171 -22.041   3.442  1.00  0.00     0.174 HD
ENDBRANCH   5  26
TORSDOF 4
ENDMDL
MODEL 9
REMARK VINA RESULT:      -7.9      2.718      4.063
REMARK  4 active torsions:
REMARK  status: ('A' for Active; 'I' for Inactive)
REMARK    1  A    between atoms: O_2  and  C_3 
REMARK    2  A    between atoms: C_5  and  C_6 
REMARK    3  A    between atoms: C_10  and  N_11 
REMARK    4  A    between atoms: C_14  and  C_15 
ROOT
HETATM    1  C   UNL     1      43.598 -17.414   3.885  1.00  0.00     0.164 C 
HETATM    2  N   UNL     1      43.578 -18.721   3.232  1.00  0.00    -0.074 N 
HETATM    3  C   UNL     1      42.887 -18.987   2.076  1.00  0.00     0.736 C 
HETATM    4  N   UNL     1      43.176 -20.196   1.675  1.00  0.00     0.131 NA
HETATM    5  C   UNL     1      44.084 -20.618   2.600  1.00  0.00     0.753 C 
HETATM    6  N   UNL     1      44.420 -19.727   3.529  1.00  0.00     0.037 NA
HETATM    7  N   UNL     1      42.084 -18.063   1.508  1.00  0.00    -0.214 N 
HETATM    8  C   UNL     1      42.281 -16.663   1.865  1.00  0.00     0.135 C 
HETATM    9  C   UNL     1      42.429 -16.542   3.389  1.00  0.00     0.063 C 
HETATM   10  H   UNL     1      41.824 -18.236   0.540  1.00  0.00     0.178 HD
ENDROOT
BRANCH   1  11
HETATM   11  C   UNL     1      43.583 -17.463   5.408  1.00  0.00    -0.030 A 
HETATM   12  C   UNL     1      43.604 -18.721   6.045  1.00  0.00     0.046 A 
HETATM   13  C   UNL     1      43.661 -18.820   7.438  1.00  0.00     0.068 A 
HETATM   14  C   UNL     1      43.680 -17.656   8.205  1.00  0.00     0.037 A 
HETATM   15  C   UNL     1      43.666 -16.404   7.591  1.00  0.00     0.003 A 
HETATM   16  C   UNL     1      43.629 -16.307   6.201  1.00  0.00     0.009 A 
BRANCH  13  17
HETATM   17  O   UNL     1      43.701 -19.981   8.159  1.00  0.00    -0.356 OA
HETATM   18  C   UNL     1      43.591 -21.198   7.431  1.00  0.00     0.210 C 
ENDBRANCH  13  17
ENDBRANCH   1  11
BRANCH   8  19
HETATM   19  C   UNL     1      41.123 -15.812   1.376  1.00  0.00    -0.035 A 
HETATM   20  C   UNL     1      39.952 -15.654   2.136  1.00  0.00     0.010 A 
HETATM   21  C   UNL     1      38.914 -14.833   1.687  1.00  0.00     0.019 A 
HETATM   22  C   UNL     1      39.044 -14.156   0.477  1.00  0.00     0.011 A 
HETATM   23 BR   UNL     1      37.646 -13.036  -0.128  1.00  0.00    -0.051 Br
HETATM   24  C   UNL     1      40.199 -14.293  -0.288  1.00  0.00     0.019 A 
HETATM   25  C   UNL     1      41.235 -15.117   0.161  1.00  0.00     0.010 A 
ENDBRANCH   8  19
BRANCH   5  26
HETATM   26  N   UNL     1      44.598 -21.838   2.476  1.00  0.00    -0.229 N 
HETATM   27  H   UNL     1      45.602 -21.904   2.390  1.00  0.00     0.174 HD
HETATM   28  H   UNL     1      44.160 -22.577   3.007  1.00  0.00     0.174 HD
ENDBRANCH   5  26
TORSDOF 4
ENDMDL
MODEL 10
REMARK VINA RESULT:      -7.8      4.243      7.504
REMARK  4 active torsions:
REMARK  status: ('A' for Active; 'I' for Inactive)
REMARK    1  A    between atoms: O_2  and  C_3 
REMARK    2  A    between atoms: C_5  and  C_6 
REMARK    3  A    between atoms: C_10  and  N_11 
REMARK    4  A    between atoms: C_14  and  C_15 
ROOT
HETATM    1  C   UNL     1      42.018 -14.732   0.652  1.00  0.00     0.164 C 
HETATM    2  N   UNL     1      41.019 -14.344   1.645  1.00  0.00    -0.074 N 
HETATM    3  C   UNL     1      40.859 -14.973   2.854  1.00  0.00     0.736 C 
HETATM    4  N   UNL     1      39.986 -14.312   3.567  1.00  0.00     0.131 NA
HETATM    5  C   UNL     1      39.667 -13.258   2.763  1.00  0.00     0.753 C 
HETATM    6  N   UNL     1      40.328 -13.190   1.610  1.00  0.00     0.037 NA
HETATM    7  N   UNL     1      41.565 -16.079   3.171  1.00  0.00    -0.214 N 
HETATM    8  C   UNL     1      42.790 -16.352   2.430  1.00  0.00     0.135 C 
HETATM    9  C   UNL     1      42.531 -16.159   0.928  1.00  0.00     0.063 C 
HETATM   10  H   UNL     1      41.586 -16.323   4.159  1.00  0.00     0.178 HD
ENDROOT
BRANCH   1  11
HETATM   11  C   UNL     1      41.550 -14.634  -0.794  1.00  0.00    -0.030 A 
HETATM   12  C   UNL     1      41.795 -13.441  -1.506  1.00  0.00     0.046 A 
HETATM   13  C   UNL     1      41.448 -13.324  -2.855  1.00  0.00     0.068 A 
HETATM   14  C   UNL     1      40.836 -14.399  -3.497  1.00  0.00     0.037 A 
HETATM   15  C   UNL     1      40.591 -15.588  -2.811  1.00  0.00     0.003 A 
HETATM   16  C   UNL     1      40.955 -15.710  -1.471  1.00  0.00     0.009 A 
BRANCH  13  17
HETATM   17  O   UNL     1      41.652 -12.227  -3.644  1.00  0.00    -0.356 OA
HETATM   18  C   UNL     1      42.491 -11.203  -3.123  1.00  0.00     0.210 C 
ENDBRANCH  13  17
ENDBRANCH   1  11
BRANCH   8  19
HETATM   19  C   UNL     1      43.286 -17.759   2.705  1.00  0.00    -0.035 A 
HETATM   20  C   UNL     1      43.869 -18.108   3.936  1.00  0.00     0.010 A 
HETATM   21  C   UNL     1      44.281 -19.419   4.186  1.00  0.00     0.019 A 
HETATM   22  C   UNL     1      44.105 -20.396   3.209  1.00  0.00     0.011 A 
HETATM   23 BR   UNL     1      44.652 -22.173   3.548  1.00  0.00    -0.051 Br
HETATM   24  C   UNL     1      43.523 -20.074   1.985  1.00  0.00     0.019 A 
HETATM   25  C   UNL     1      43.114 -18.761   1.736  1.00  0.00     0.010 A 
ENDBRANCH   8  19
BRANCH   5  26
HETATM   26  N   UNL     1      38.786 -12.365   3.204  1.00  0.00    -0.229 N 
HETATM   27  H   UNL     1      38.591 -12.368   4.195  1.00  0.00     0.174 HD
HETATM   28  H   UNL     1      38.799 -11.454   2.768  1.00  0.00     0.174 HD
ENDBRANCH   5  26
TORSDOF 4
ENDMDL
