MODEL 1
REMARK VINA RESULT:      -9.3      0.000      0.000
REMARK  3 active torsions:
REMARK  status: ('A' for Active; 'I' for Inactive)
REMARK    1  A    between atoms: O_2  and  C_3 
REMARK    2  A    between atoms: C_4  and  N_5 
REMARK       I    between atoms: N_5  and  C_6 
REMARK       I    between atoms: C_6  and  N_7 
REMARK    3  A    between atoms: C_8  and  C_9 
ROOT
HETATM    1  N   UNL     1      41.927 -15.053   1.761  1.00  0.00    -0.306 N 
HETATM    2  C   UNL     1      41.112 -15.726   2.636  1.00  0.00     0.323 C 
HETATM    3  N   UNL     1      41.704 -16.001   3.869  1.00  0.00    -0.324 N 
HETATM    4  C   UNL     1      43.154 -16.192   4.063  1.00  0.00     0.139 C 
HETATM    5  C   UNL     1      43.579 -15.656   5.440  1.00  0.00     0.032 C 
HETATM    6  C   UNL     1      42.721 -16.205   6.580  1.00  0.00     0.004 C 
HETATM    7  C   UNL     1      41.240 -15.983   6.295  1.00  0.00     0.020 C 
HETATM    8  C   UNL     1      40.842 -16.531   4.929  1.00  0.00     0.128 C 
HETATM    9  O   UNL     1      39.963 -16.074   2.379  1.00  0.00    -0.247 OA
HETATM   10  H   UNL     1      42.639 -14.465   2.174  1.00  0.00     0.171 HD
ENDROOT
BRANCH   4  11
HETATM   11  C   UNL     1      43.512 -17.643   3.834  1.00  0.00     0.033 A 
HETATM   12  N   UNL     1      43.175 -18.298   2.667  1.00  0.00    -0.357 N 
HETATM   13  H   UNL     1      42.646 -17.888   1.908  1.00  0.00     0.166 HD
HETATM   14  C   UNL     1      43.606 -19.603   2.692  1.00  0.00     0.042 A 
HETATM   15  C   UNL     1      44.262 -19.794   3.905  1.00  0.00    -0.007 A 
HETATM   16  C   UNL     1      43.463 -20.620   1.740  1.00  0.00     0.030 A 
HETATM   17  C   UNL     1      44.211 -18.558   4.604  1.00  0.00     0.041 A 
HETATM   18  C   UNL     1      44.804 -21.061   4.191  1.00  0.00     0.014 A 
HETATM   19  C   UNL     1      44.669 -22.091   3.253  1.00  0.00     0.001 A 
HETATM   20  C   UNL     1      44.007 -21.871   2.046  1.00  0.00     0.002 A 
ENDBRANCH   4  11
BRANCH   1  21
HETATM   21  C   UNL     1      41.695 -14.769   0.398  1.00  0.00     0.072 A 
HETATM   22  C   UNL     1      41.958 -13.453  -0.030  1.00  0.00     0.095 A 
HETATM   23  C   UNL     1      41.736 -13.074  -1.356  1.00  0.00     0.042 A 
HETATM   24  C   UNL     1      41.297 -14.026  -2.276  1.00  0.00     0.045 A 
HETATM   25  C   UNL     1      41.076 -15.334  -1.858  1.00  0.00     0.118 A 
HETATM   26  C   UNL     1      41.268 -15.716  -0.533  1.00  0.00     0.074 A 
HETATM   27  F   UNL     1      40.665 -16.243  -2.751  1.00  0.00    -0.206 F 
BRANCH  22  28
HETATM   28  O   UNL     1      42.370 -12.553   0.928  1.00  0.00    -0.354 OA
HETATM   29  C   UNL     1      41.515 -11.415   1.017  1.00  0.00     0.210 C 
ENDBRANCH  22  28
ENDBRANCH   1  21
TORSDOF 3
ENDMDL
MODEL 2
REMARK VINA RESULT:      -9.2      1.910      2.616
REMARK  3 active torsions:
REMARK  status: ('A' for Active; 'I' for Inactive)
REMARK    1  A    between atoms: O_2  and  C_3 
REMARK    2  A    between atoms: C_4  and  N_5 
REMARK       I    between atoms: N_5  and  C_6 
REMARK       I    between atoms: C_6  and  N_7 
REMARK    3  A    between atoms: C_8  and  C_9 
ROOT
HETATM    1  N   UNL     1      42.712 -15.059   3.552  1.00  0.00    -0.306 N 
HETATM    2  C   UNL     1      41.936 -15.855   4.356  1.00  0.00     0.323 C 
HETATM    3  N   UNL     1      42.647 -16.521   5.354  1.00  0.00    -0.324 N 
HETATM    4  C   UNL     1      44.065 -16.914   5.235  1.00  0.00     0.139 C 
HETATM    5  C   UNL     1      44.756 -16.826   6.606  1.00  0.00     0.032 C 
HETATM    6  C   UNL     1      43.994 -17.572   7.702  1.00  0.00     0.004 C 
HETATM    7  C   UNL     1      42.538 -17.122   7.748  1.00  0.00     0.020 C 
HETATM    8  C   UNL     1      41.873 -17.226   6.380  1.00  0.00     0.128 C 
HETATM    9  O   UNL     1      40.723 -15.993   4.225  1.00  0.00    -0.247 OA
HETATM   10  H   UNL     1      43.555 -14.688   3.968  1.00  0.00     0.171 HD
ENDROOT
BRANCH   4  11
HETATM   11  C   UNL     1      44.163 -18.275   4.586  1.00  0.00     0.033 A 
HETATM   12  N   UNL     1      43.706 -18.502   3.303  1.00  0.00    -0.357 N 
HETATM   13  H   UNL     1      43.249 -17.811   2.723  1.00  0.00     0.166 HD
HETATM   14  C   UNL     1      43.905 -19.811   2.934  1.00  0.00     0.042 A 
HETATM   15  C   UNL     1      44.529 -20.447   4.002  1.00  0.00    -0.007 A 
HETATM   16  C   UNL     1      43.577 -20.474   1.744  1.00  0.00     0.030 A 
HETATM   17  C   UNL     1      44.701 -19.474   5.023  1.00  0.00     0.041 A 
HETATM   18  C   UNL     1      44.847 -21.814   3.887  1.00  0.00     0.014 A 
HETATM   19  C   UNL     1      44.525 -22.494   2.706  1.00  0.00     0.001 A 
HETATM   20  C   UNL     1      43.900 -21.831   1.653  1.00  0.00     0.002 A 
ENDBRANCH   4  11
BRANCH   1  21
HETATM   21  C   UNL     1      42.335 -14.388   2.368  1.00  0.00     0.072 A 
HETATM   22  C   UNL     1      42.135 -15.185   1.224  1.00  0.00     0.095 A 
HETATM   23  C   UNL     1      41.781 -14.606   0.002  1.00  0.00     0.042 A 
HETATM   24  C   UNL     1      41.578 -13.230  -0.070  1.00  0.00     0.045 A 
HETATM   25  C   UNL     1      41.738 -12.450   1.072  1.00  0.00     0.118 A 
HETATM   26  C   UNL     1      42.116 -13.013   2.288  1.00  0.00     0.074 A 
HETATM   27  F   UNL     1      41.529 -11.130   0.995  1.00  0.00    -0.206 F 
BRANCH  22  28
HETATM   28  O   UNL     1      42.370 -16.536   1.352  1.00  0.00    -0.354 OA
HETATM   29  C   UNL     1      41.237 -17.327   0.995  1.00  0.00     0.210 C 
ENDBRANCH  22  28
ENDBRANCH   1  21
TORSDOF 3
ENDMDL
MODEL 3
REMARK VINA RESULT:      -9.0      1.507      1.844
REMARK  3 active torsions:
REMARK  status: ('A' for Active; 'I' for Inactive)
REMARK    1  A    between atoms: O_2  and  C_3 
REMARK    2  A    between atoms: C_4  and  N_5 
REMARK       I    between atoms: N_5  and  C_6 
REMARK       I    between atoms: C_6  and  N_7 
REMARK    3  A    between atoms: C_8  and  C_9 
ROOT
HETATM    1  N   UNL     1      42.664 -15.212   3.486  1.00  0.00    -0.306 N 
HETATM    2  C   UNL     1      41.900 -16.003   4.307  1.00  0.00     0.323 C 
HETATM    3  N   UNL     1      42.621 -16.634   5.321  1.00  0.00    -0.324 N 
HETATM    4  C   UNL     1      44.046 -17.004   5.214  1.00  0.00     0.139 C 
HETATM    5  C   UNL     1      44.731 -16.874   6.584  1.00  0.00     0.032 C 
HETATM    6  C   UNL     1      43.980 -17.608   7.695  1.00  0.00     0.004 C 
HETATM    7  C   UNL     1      42.516 -17.183   7.727  1.00  0.00     0.020 C 
HETATM    8  C   UNL     1      41.857 -17.330   6.360  1.00  0.00     0.128 C 
HETATM    9  O   UNL     1      40.691 -16.167   4.176  1.00  0.00    -0.247 OA
HETATM   10  H   UNL     1      43.500 -14.816   3.897  1.00  0.00     0.171 HD
ENDROOT
BRANCH   4  11
HETATM   11  C   UNL     1      44.170 -18.377   4.595  1.00  0.00     0.033 A 
HETATM   12  N   UNL     1      43.805 -18.620   3.287  1.00  0.00    -0.357 N 
HETATM   13  H   UNL     1      43.402 -17.932   2.664  1.00  0.00     0.166 HD
HETATM   14  C   UNL     1      44.010 -19.938   2.954  1.00  0.00     0.042 A 
HETATM   15  C   UNL     1      44.544 -20.564   4.076  1.00  0.00    -0.007 A 
HETATM   16  C   UNL     1      43.760 -20.616   1.754  1.00  0.00     0.030 A 
HETATM   17  C   UNL     1      44.656 -19.576   5.091  1.00  0.00     0.041 A 
HETATM   18  C   UNL     1      44.849 -21.937   4.006  1.00  0.00     0.014 A 
HETATM   19  C   UNL     1      44.604 -22.633   2.816  1.00  0.00     0.001 A 
HETATM   20  C   UNL     1      44.067 -21.979   1.708  1.00  0.00     0.002 A 
ENDBRANCH   4  11
BRANCH   1  21
HETATM   21  C   UNL     1      42.279 -14.575   2.287  1.00  0.00     0.072 A 
HETATM   22  C   UNL     1      42.193 -13.168   2.316  1.00  0.00     0.095 A 
HETATM   23  C   UNL     1      41.798 -12.453   1.183  1.00  0.00     0.042 A 
HETATM   24  C   UNL     1      41.535 -13.138  -0.002  1.00  0.00     0.045 A 
HETATM   25  C   UNL     1      41.659 -14.524  -0.037  1.00  0.00     0.118 A 
HETATM   26  C   UNL     1      42.025 -15.249   1.093  1.00  0.00     0.074 A 
HETATM   27  F   UNL     1      41.415 -15.171  -1.183  1.00  0.00    -0.206 F 
BRANCH  22  28
HETATM   28  O   UNL     1      42.446 -12.550   3.520  1.00  0.00    -0.354 OA
HETATM   29  C   UNL     1      41.289 -11.917   4.066  1.00  0.00     0.210 C 
ENDBRANCH  22  28
ENDBRANCH   1  21
TORSDOF 3
ENDMDL
MODEL 4
REMARK VINA RESULT:      -8.9      2.493      6.845
REMARK  3 active torsions:
REMARK  status: ('A' for Active; 'I' for Inactive)
REMARK    1  A    between atoms: O_2  and  C_3 
REMARK    2  A    between atoms: C_4  and  N_5 
REMARK       I    between atoms: N_5  and  C_6 
REMARK       I    between atoms: C_6  and  N_7 
REMARK    3  A    between atoms: C_8  and  C_9 
ROOT
HETATM    1  N   UNL     1      42.521 -17.313   3.154  1.00  0.00    -0.306 N 
HETATM    2  C   UNL     1      43.024 -16.069   2.867  1.00  0.00     0.323 C 
HETATM    3  N   UNL     1      42.058 -15.066   2.798  1.00  0.00    -0.324 N 
HETATM    4  C   UNL     1      40.654 -15.298   2.407  1.00  0.00     0.139 C 
HETATM    5  C   UNL     1      39.725 -14.345   3.177  1.00  0.00     0.032 C 
HETATM    6  C   UNL     1      40.164 -12.883   3.080  1.00  0.00     0.004 C 
HETATM    7  C   UNL     1      41.626 -12.732   3.483  1.00  0.00     0.020 C 
HETATM    8  C   UNL     1      42.527 -13.681   2.700  1.00  0.00     0.128 C 
HETATM    9  O   UNL     1      44.214 -15.834   2.674  1.00  0.00    -0.247 OA
HETATM   10  H   UNL     1      41.664 -17.336   3.690  1.00  0.00     0.171 HD
ENDROOT
BRANCH   4  11
HETATM   11  C   UNL     1      40.520 -15.202   0.905  1.00  0.00     0.033 A 
HETATM   12  N   UNL     1      39.488 -14.505   0.310  1.00  0.00    -0.357 N 
HETATM   13  H   UNL     1      38.739 -14.046   0.812  1.00  0.00     0.166 HD
HETATM   14  C   UNL     1      39.581 -14.560  -1.060  1.00  0.00     0.042 A 
HETATM   15  C   UNL     1      40.721 -15.299  -1.363  1.00  0.00    -0.007 A 
HETATM   16  C   UNL     1      38.745 -14.019  -2.045  1.00  0.00     0.030 A 
HETATM   17  C   UNL     1      41.309 -15.681  -0.128  1.00  0.00     0.041 A 
HETATM   18  C   UNL     1      41.051 -15.513  -2.715  1.00  0.00     0.014 A 
HETATM   19  C   UNL     1      40.226 -14.981  -3.714  1.00  0.00     0.001 A 
HETATM   20  C   UNL     1      39.091 -14.246  -3.380  1.00  0.00     0.002 A 
ENDBRANCH   4  11
BRANCH   1  21
HETATM   21  C   UNL     1      43.199 -18.551   3.136  1.00  0.00     0.072 A 
HETATM   22  C   UNL     1      43.890 -18.912   4.309  1.00  0.00     0.095 A 
HETATM   23  C   UNL     1      44.608 -20.110   4.376  1.00  0.00     0.042 A 
HETATM   24  C   UNL     1      44.596 -20.977   3.285  1.00  0.00     0.045 A 
HETATM   25  C   UNL     1      43.879 -20.634   2.142  1.00  0.00     0.118 A 
HETATM   26  C   UNL     1      43.183 -19.431   2.055  1.00  0.00     0.074 A 
HETATM   27  F   UNL     1      43.865 -21.479   1.104  1.00  0.00    -0.206 F 
BRANCH  22  28
HETATM   28  O   UNL     1      43.882 -18.006   5.346  1.00  0.00    -0.354 OA
HETATM   29  C   UNL     1      45.001 -18.159   6.218  1.00  0.00     0.210 C 
ENDBRANCH  22  28
ENDBRANCH   1  21
TORSDOF 3
ENDMDL
MODEL 5
REMARK VINA RESULT:      -8.4      2.729      6.746
REMARK  3 active torsions:
REMARK  status: ('A' for Active; 'I' for Inactive)
REMARK    1  A    between atoms: O_2  and  C_3 
REMARK    2  A    between atoms: C_4  and  N_5 
REMARK       I    between atoms: N_5  and  C_6 
REMARK       I    between atoms: C_6  and  N_7 
REMARK    3  A    between atoms: C_8  and  C_9 
ROOT
HETATM    1  N   UNL     1      42.530 -16.741   3.942  1.00  0.00    -0.306 N 
HETATM    2  C   UNL     1      42.954 -15.478   3.612  1.00  0.00     0.323 C 
HETATM    3  N   UNL     1      41.997 -14.484   3.816  1.00  0.00    -0.324 N 
HETATM    4  C   UNL     1      40.540 -14.714   3.743  1.00  0.00     0.139 C 
HETATM    5  C   UNL     1      39.811 -13.812   4.752  1.00  0.00     0.032 C 
HETATM    6  C   UNL     1      40.215 -12.342   4.632  1.00  0.00     0.004 C 
HETATM    7  C   UNL     1      41.731 -12.193   4.700  1.00  0.00     0.020 C 
HETATM    8  C   UNL     1      42.430 -13.091   3.685  1.00  0.00     0.128 C 
HETATM    9  O   UNL     1      44.068 -15.220   3.166  1.00  0.00    -0.247 OA
HETATM   10  H   UNL     1      41.817 -16.801   4.657  1.00  0.00     0.171 HD
ENDROOT
BRANCH   4  11
HETATM   11  C   UNL     1      40.069 -14.545   2.317  1.00  0.00     0.033 A 
HETATM   12  N   UNL     1      40.862 -14.896   1.244  1.00  0.00    -0.357 N 
HETATM   13  H   UNL     1      41.807 -15.249   1.317  1.00  0.00     0.166 HD
HETATM   14  C   UNL     1      40.218 -14.652   0.054  1.00  0.00     0.042 A 
HETATM   15  C   UNL     1      38.959 -14.146   0.367  1.00  0.00    -0.007 A 
HETATM   16  C   UNL     1      40.654 -14.836  -1.264  1.00  0.00     0.030 A 
HETATM   17  C   UNL     1      38.871 -14.099   1.784  1.00  0.00     0.041 A 
HETATM   18  C   UNL     1      38.085 -13.805  -0.682  1.00  0.00     0.014 A 
HETATM   19  C   UNL     1      38.504 -13.980  -2.007  1.00  0.00     0.001 A 
HETATM   20  C   UNL     1      39.771 -14.488  -2.290  1.00  0.00     0.002 A 
ENDBRANCH   4  11
BRANCH   1  21
HETATM   21  C   UNL     1      43.186 -17.968   3.706  1.00  0.00     0.072 A 
HETATM   22  C   UNL     1      43.970 -18.480   4.760  1.00  0.00     0.095 A 
HETATM   23  C   UNL     1      44.673 -19.678   4.610  1.00  0.00     0.042 A 
HETATM   24  C   UNL     1      44.557 -20.397   3.422  1.00  0.00     0.045 A 
HETATM   25  C   UNL     1      43.750 -19.908   2.399  1.00  0.00     0.118 A 
HETATM   26  C   UNL     1      43.067 -18.702   2.527  1.00  0.00     0.074 A 
HETATM   27  F   UNL     1      43.636 -20.612   1.265  1.00  0.00    -0.206 F 
BRANCH  22  28
HETATM   28  O   UNL     1      44.062 -17.716   5.901  1.00  0.00    -0.354 OA
HETATM   29  C   UNL     1      45.269 -17.952   6.625  1.00  0.00     0.210 C 
ENDBRANCH  22  28
ENDBRANCH   1  21
TORSDOF 3
ENDMDL
MODEL 6
REMARK VINA RESULT:      -8.2      3.009      6.668
REMARK  3 active torsions:
REMARK  status: ('A' for Active; 'I' for Inactive)
REMARK    1  A    between atoms: O_2  and  C_3 
REMARK    2  A    between atoms: C_4  and  N_5 
REMARK       I    between atoms: N_5  and  C_6 
REMARK       I    between atoms: C_6  and  N_7 
REMARK    3  A    between atoms: C_8  and  C_9 
ROOT
HETATM    1  N   UNL     1      42.434 -16.921   4.210  1.00  0.00    -0.306 N 
HETATM    2  C   UNL     1      42.849 -15.637   3.963  1.00  0.00     0.323 C 
HETATM    3  N   UNL     1      41.882 -14.666   4.223  1.00  0.00    -0.324 N 
HETATM    4  C   UNL     1      40.428 -14.903   4.127  1.00  0.00     0.139 C 
HETATM    5  C   UNL     1      39.684 -14.073   5.186  1.00  0.00     0.032 C 
HETATM    6  C   UNL     1      40.076 -12.595   5.162  1.00  0.00     0.004 C 
HETATM    7  C   UNL     1      41.590 -12.438   5.248  1.00  0.00     0.020 C 
HETATM    8  C   UNL     1      42.304 -13.264   4.184  1.00  0.00     0.128 C 
HETATM    9  O   UNL     1      43.963 -15.342   3.542  1.00  0.00    -0.247 OA
HETATM   10  H   UNL     1      41.718 -17.033   4.915  1.00  0.00     0.171 HD
ENDROOT
BRANCH   4  11
HETATM   11  C   UNL     1      39.963 -14.649   2.712  1.00  0.00     0.033 A 
HETATM   12  N   UNL     1      40.768 -14.919   1.623  1.00  0.00    -0.357 N 
HETATM   13  H   UNL     1      41.718 -15.263   1.680  1.00  0.00     0.166 HD
HETATM   14  C   UNL     1      40.128 -14.607   0.448  1.00  0.00     0.042 A 
HETATM   15  C   UNL     1      38.861 -14.139   0.783  1.00  0.00    -0.007 A 
HETATM   16  C   UNL     1      40.575 -14.700  -0.876  1.00  0.00     0.030 A 
HETATM   17  C   UNL     1      38.763 -14.185   2.200  1.00  0.00     0.041 A 
HETATM   18  C   UNL     1      37.989 -13.742  -0.248  1.00  0.00     0.014 A 
HETATM   19  C   UNL     1      38.419 -13.826  -1.578  1.00  0.00     0.001 A 
HETATM   20  C   UNL     1      39.694 -14.298  -1.884  1.00  0.00     0.002 A 
ENDBRANCH   4  11
BRANCH   1  21
HETATM   21  C   UNL     1      43.103 -18.126   3.902  1.00  0.00     0.072 A 
HETATM   22  C   UNL     1      43.027 -18.570   2.567  1.00  0.00     0.095 A 
HETATM   23  C   UNL     1      43.639 -19.763   2.174  1.00  0.00     0.042 A 
HETATM   24  C   UNL     1      44.375 -20.494   3.106  1.00  0.00     0.045 A 
HETATM   25  C   UNL     1      44.480 -20.032   4.414  1.00  0.00     0.118 A 
HETATM   26  C   UNL     1      43.852 -18.859   4.822  1.00  0.00     0.074 A 
HETATM   27  F   UNL     1      45.199 -20.735   5.298  1.00  0.00    -0.206 F 
BRANCH  22  28
HETATM   28  O   UNL     1      42.270 -17.816   1.698  1.00  0.00    -0.354 OA
HETATM   29  C   UNL     1      43.045 -17.252   0.641  1.00  0.00     0.210 C 
ENDBRANCH  22  28
ENDBRANCH   1  21
TORSDOF 3
ENDMDL
MODEL 7
REMARK VINA RESULT:      -8.1      3.670      7.248
REMARK  3 active torsions:
REMARK  status: ('A' for Active; 'I' for Inactive)
REMARK    1  A    between atoms: O_2  and  C_3 
REMARK    2  A    between atoms: C_4  and  N_5 
REMARK       I    between atoms: N_5  and  C_6 
REMARK       I    between atoms: C_6  and  N_7 
REMARK    3  A    between atoms: C_8  and  C_9 
ROOT
HETATM    1  N   UNL     1      41.957 -15.721   6.472  1.00  0.00    -0.306 N 
HETATM    2  C   UNL     1      42.484 -14.531   6.036  1.00  0.00     0.323 C 
HETATM    3  N   UNL     1      41.527 -13.573   5.703  1.00  0.00    -0.324 N 
HETATM    4  C   UNL     1      40.172 -13.895   5.214  1.00  0.00     0.139 C 
HETATM    5  C   UNL     1      39.165 -12.847   5.715  1.00  0.00     0.032 C 
HETATM    6  C   UNL     1      39.608 -11.412   5.423  1.00  0.00     0.004 C 
HETATM    7  C   UNL     1      41.019 -11.167   5.944  1.00  0.00     0.020 C 
HETATM    8  C   UNL     1      42.000 -12.214   5.426  1.00  0.00     0.128 C 
HETATM    9  O   UNL     1      43.686 -14.308   5.930  1.00  0.00    -0.247 OA
HETATM   10  H   UNL     1      41.048 -15.674   6.913  1.00  0.00     0.171 HD
ENDROOT
BRANCH   4  11
HETATM   11  C   UNL     1      40.197 -14.050   3.711  1.00  0.00     0.033 A 
HETATM   12  N   UNL     1      40.958 -15.022   3.093  1.00  0.00    -0.357 N 
HETATM   13  H   UNL     1      41.570 -15.667   3.575  1.00  0.00     0.166 HD
HETATM   14  C   UNL     1      40.816 -14.966   1.727  1.00  0.00     0.042 A 
HETATM   15  C   UNL     1      39.919 -13.937   1.451  1.00  0.00    -0.007 A 
HETATM   16  C   UNL     1      41.413 -15.739   0.724  1.00  0.00     0.030 A 
HETATM   17  C   UNL     1      39.526 -13.382   2.699  1.00  0.00     0.041 A 
HETATM   18  C   UNL     1      39.596 -13.661   0.109  1.00  0.00     0.014 A 
HETATM   19  C   UNL     1      40.185 -14.422  -0.908  1.00  0.00     0.001 A 
HETATM   20  C   UNL     1      41.079 -15.445  -0.601  1.00  0.00     0.002 A 
ENDBRANCH   4  11
BRANCH   1  21
HETATM   21  C   UNL     1      42.636 -16.932   6.729  1.00  0.00     0.072 A 
HETATM   22  C   UNL     1      42.696 -17.862   5.672  1.00  0.00     0.095 A 
HETATM   23  C   UNL     1      43.329 -19.096   5.841  1.00  0.00     0.042 A 
HETATM   24  C   UNL     1      43.950 -19.387   7.054  1.00  0.00     0.045 A 
HETATM   25  C   UNL     1      43.923 -18.449   8.082  1.00  0.00     0.118 A 
HETATM   26  C   UNL     1      43.272 -17.228   7.934  1.00  0.00     0.074 A 
HETATM   27  F   UNL     1      44.532 -18.734   9.240  1.00  0.00    -0.206 F 
BRANCH  22  28
HETATM   28  O   UNL     1      42.047 -17.526   4.505  1.00  0.00    -0.354 OA
HETATM   29  C   UNL     1      42.710 -18.027   3.344  1.00  0.00     0.210 C 
ENDBRANCH  22  28
ENDBRANCH   1  21
TORSDOF 3
ENDMDL
MODEL 8
REMARK VINA RESULT:      -8.0      2.937      7.106
REMARK  3 active torsions:
REMARK  status: ('A' for Active; 'I' for Inactive)
REMARK    1  A    between atoms: O_2  and  C_3 
REMARK    2  A    between atoms: C_4  and  N_5 
REMARK       I    between atoms: N_5  and  C_6 
REMARK       I    between atoms: C_6  and  N_7 
REMARK    3  A    between atoms: C_8  and  C_9 
ROOT
HETATM    1  N   UNL     1      42.749 -16.597   1.970  1.00  0.00    -0.306 N 
HETATM    2  C   UNL     1      41.428 -16.349   1.695  1.00  0.00     0.323 C 
HETATM    3  N   UNL     1      41.165 -15.036   1.302  1.00  0.00    -0.324 N 
HETATM    4  C   UNL     1      41.964 -13.871   1.729  1.00  0.00     0.139 C 
HETATM    5  C   UNL     1      42.019 -12.825   0.604  1.00  0.00     0.032 C 
HETATM    6  C   UNL     1      40.635 -12.465   0.062  1.00  0.00     0.004 C 
HETATM    7  C   UNL     1      39.871 -13.721  -0.341  1.00  0.00     0.020 C 
HETATM    8  C   UNL     1      39.823 -14.739   0.794  1.00  0.00     0.128 C 
HETATM    9  O   UNL     1      40.535 -17.186   1.788  1.00  0.00    -0.247 OA
HETATM   10  H   UNL     1      43.424 -16.023   1.483  1.00  0.00     0.171 HD
ENDROOT
BRANCH   4  11
HETATM   11  C   UNL     1      41.426 -13.337   3.037  1.00  0.00     0.033 A 
HETATM   12  N   UNL     1      41.826 -12.116   3.542  1.00  0.00    -0.357 N 
HETATM   13  H   UNL     1      42.517 -11.514   3.114  1.00  0.00     0.166 HD
HETATM   14  C   UNL     1      41.201 -11.848   4.737  1.00  0.00     0.042 A 
HETATM   15  C   UNL     1      40.354 -12.920   5.004  1.00  0.00    -0.007 A 
HETATM   16  C   UNL     1      41.325 -10.748   5.594  1.00  0.00     0.030 A 
HETATM   17  C   UNL     1      40.490 -13.836   3.927  1.00  0.00     0.041 A 
HETATM   18  C   UNL     1      39.587 -12.900   6.184  1.00  0.00     0.014 A 
HETATM   19  C   UNL     1      39.699 -11.810   7.056  1.00  0.00     0.001 A 
HETATM   20  C   UNL     1      40.557 -10.752   6.762  1.00  0.00     0.002 A 
ENDBRANCH   4  11
BRANCH   1  21
HETATM   21  C   UNL     1      43.316 -17.758   2.539  1.00  0.00     0.072 A 
HETATM   22  C   UNL     1      43.608 -17.711   3.917  1.00  0.00     0.095 A 
HETATM   23  C   UNL     1      44.191 -18.806   4.561  1.00  0.00     0.042 A 
HETATM   24  C   UNL     1      44.438 -19.973   3.841  1.00  0.00     0.045 A 
HETATM   25  C   UNL     1      44.112 -20.029   2.489  1.00  0.00     0.118 A 
HETATM   26  C   UNL     1      43.556 -18.935   1.831  1.00  0.00     0.074 A 
HETATM   27  F   UNL     1      44.343 -21.158   1.809  1.00  0.00    -0.206 F 
BRANCH  22  28
HETATM   28  O   UNL     1      43.360 -16.525   4.570  1.00  0.00    -0.354 OA
HETATM   29  C   UNL     1      42.353 -16.651   5.573  1.00  0.00     0.210 C 
ENDBRANCH  22  28
ENDBRANCH   1  21
TORSDOF 3
ENDMDL
MODEL 9
REMARK VINA RESULT:      -7.9      3.498      5.758
REMARK  3 active torsions:
REMARK  status: ('A' for Active; 'I' for Inactive)
REMARK    1  A    between atoms: O_2  and  C_3 
REMARK    2  A    between atoms: C_4  and  N_5 
REMARK       I    between atoms: N_5  and  C_6 
REMARK       I    between atoms: C_6  and  N_7 
REMARK    3  A    between atoms: C_8  and  C_9 
ROOT
HETATM    1  N   UNL     1      42.190 -13.810   4.849  1.00  0.00    -0.306 N 
HETATM    2  C   UNL     1      42.731 -13.871   3.590  1.00  0.00     0.323 C 
HETATM    3  N   UNL     1      42.026 -14.690   2.707  1.00  0.00    -0.324 N 
HETATM    4  C   UNL     1      41.230 -15.861   3.124  1.00  0.00     0.139 C 
HETATM    5  C   UNL     1      40.004 -16.020   2.211  1.00  0.00     0.032 C 
HETATM    6  C   UNL     1      40.366 -16.012   0.725  1.00  0.00     0.004 C 
HETATM    7  C   UNL     1      41.199 -14.782   0.381  1.00  0.00     0.020 C 
HETATM    8  C   UNL     1      42.413 -14.651   1.294  1.00  0.00     0.128 C 
HETATM    9  O   UNL     1      43.748 -13.277   3.247  1.00  0.00    -0.247 OA
HETATM   10  H   UNL     1      41.193 -13.962   4.916  1.00  0.00     0.171 HD
ENDROOT
BRANCH   4  11
HETATM   11  C   UNL     1      42.115 -17.084   3.180  1.00  0.00     0.033 A 
HETATM   12  N   UNL     1      42.873 -17.382   4.294  1.00  0.00    -0.357 N 
HETATM   13  H   UNL     1      42.927 -16.807   5.125  1.00  0.00     0.166 HD
HETATM   14  C   UNL     1      43.591 -18.539   4.107  1.00  0.00     0.042 A 
HETATM   15  C   UNL     1      43.273 -19.018   2.840  1.00  0.00    -0.007 A 
HETATM   16  C   UNL     1      44.494 -19.190   4.958  1.00  0.00     0.030 A 
HETATM   17  C   UNL     1      42.337 -18.110   2.275  1.00  0.00     0.041 A 
HETATM   18  C   UNL     1      43.881 -20.205   2.390  1.00  0.00     0.014 A 
HETATM   19  C   UNL     1      44.788 -20.869   3.225  1.00  0.00     0.001 A 
HETATM   20  C   UNL     1      45.087 -20.366   4.490  1.00  0.00     0.002 A 
ENDBRANCH   4  11
BRANCH   1  21
HETATM   21  C   UNL     1      42.740 -13.211   6.004  1.00  0.00     0.072 A 
HETATM   22  C   UNL     1      42.025 -12.132   6.560  1.00  0.00     0.095 A 
HETATM   23  C   UNL     1      42.503 -11.464   7.690  1.00  0.00     0.042 A 
HETATM   24  C   UNL     1      43.676 -11.904   8.300  1.00  0.00     0.045 A 
HETATM   25  C   UNL     1      44.359 -12.996   7.771  1.00  0.00     0.118 A 
HETATM   26  C   UNL     1      43.905 -13.652   6.630  1.00  0.00     0.074 A 
HETATM   27  F   UNL     1      45.478 -13.418   8.371  1.00  0.00    -0.206 F 
BRANCH  22  28
HETATM   28  O   UNL     1      40.884 -11.730   5.901  1.00  0.00    -0.354 OA
HETATM   29  C   UNL     1      39.728 -11.760   6.737  1.00  0.00     0.210 C 
ENDBRANCH  22  28
ENDBRANCH   1  21
TORSDOF 3
ENDMDL
MODEL 10
REMARK VINA RESULT:      -7.9      3.694      7.009
REMARK  3 active torsions:
REMARK  status: ('A' for Active; 'I' for Inactive)
REMARK    1  A    between atoms: O_2  and  C_3 
REMARK    2  A    between atoms: C_4  and  N_5 
REMARK       I    between atoms: N_5  and  C_6 
REMARK       I    between atoms: C_6  and  N_7 
REMARK    3  A    between atoms: C_8  and  C_9 
ROOT
HETATM    1  N   UNL     1      43.670 -14.873   5.212  1.00  0.00    -0.306 N 
HETATM    2  C   UNL     1      42.905 -16.011   5.157  1.00  0.00     0.323 C 
HETATM    3  N   UNL     1      42.958 -16.674   3.931  1.00  0.00    -0.324 N 
HETATM    4  C   UNL     1      43.209 -16.003   2.640  1.00  0.00     0.139 C 
HETATM    5  C   UNL     1      44.005 -16.930   1.707  1.00  0.00     0.032 C 
HETATM    6  C   UNL     1      43.377 -18.319   1.575  1.00  0.00     0.004 C 
HETATM    7  C   UNL     1      43.136 -18.934   2.949  1.00  0.00     0.020 C 
HETATM    8  C   UNL     1      42.338 -17.999   3.852  1.00  0.00     0.128 C 
HETATM    9  O   UNL     1      42.218 -16.425   6.086  1.00  0.00    -0.247 OA
HETATM   10  H   UNL     1      44.480 -14.849   4.607  1.00  0.00     0.171 HD
ENDROOT
BRANCH   4  11
HETATM   11  C   UNL     1      41.902 -15.521   2.055  1.00  0.00     0.033 A 
HETATM   12  N   UNL     1      41.810 -15.077   0.751  1.00  0.00    -0.357 N 
HETATM   13  H   UNL     1      42.589 -15.005   0.110  1.00  0.00     0.166 HD
HETATM   14  C   UNL     1      40.524 -14.694   0.450  1.00  0.00     0.042 A 
HETATM   15  C   UNL     1      39.755 -14.915   1.588  1.00  0.00    -0.007 A 
HETATM   16  C   UNL     1      39.992 -14.168  -0.734  1.00  0.00     0.030 A 
HETATM   17  C   UNL     1      40.622 -15.448   2.580  1.00  0.00     0.041 A 
HETATM   18  C   UNL     1      38.383 -14.599   1.552  1.00  0.00     0.014 A 
HETATM   19  C   UNL     1      37.833 -14.070   0.378  1.00  0.00     0.001 A 
HETATM   20  C   UNL     1      38.629 -13.859  -0.746  1.00  0.00     0.002 A 
ENDBRANCH   4  11
BRANCH   1  21
HETATM   21  C   UNL     1      43.710 -13.900   6.234  1.00  0.00     0.072 A 
HETATM   22  C   UNL     1      42.666 -12.955   6.251  1.00  0.00     0.095 A 
HETATM   23  C   UNL     1      42.634 -11.941   7.212  1.00  0.00     0.042 A 
HETATM   24  C   UNL     1      43.622 -11.898   8.194  1.00  0.00     0.045 A 
HETATM   25  C   UNL     1      44.630 -12.857   8.198  1.00  0.00     0.118 A 
HETATM   26  C   UNL     1      44.686 -13.855   7.229  1.00  0.00     0.074 A 
HETATM   27  F   UNL     1      45.568 -12.814   9.153  1.00  0.00    -0.206 F 
BRANCH  22  28
HETATM   28  O   UNL     1      41.730 -13.037   5.244  1.00  0.00    -0.354 OA
HETATM   29  C   UNL     1      40.408 -13.249   5.737  1.00  0.00     0.210 C 
ENDBRANCH  22  28
ENDBRANCH   1  21
TORSDOF 3
ENDMDL
