MODEL 1
REMARK VINA RESULT:      -9.5      0.000      0.000
REMARK  6 active torsions:
REMARK  status: ('A' for Active; 'I' for Inactive)
REMARK    1  A    between atoms: C_3  and  C_4 
REMARK    2  A    between atoms: C_4  and  N_5 
REMARK    3  A    between atoms: C_4  and  C_9 
REMARK       I    between atoms: N_5  and  C_6 
REMARK       I    between atoms: C_6  and  N_7 
REMARK    4  A    between atoms: C_9  and  C_10 
REMARK       I    between atoms: C_10  and  N_11 
REMARK    5  A    between atoms: N_11  and  N_12 
REMARK       I    between atoms: N_12  and  C_13 
REMARK    6  A    between atoms: C_13  and  C_14 
ROOT
HETATM    1  C   UNL     1      42.403 -17.176   0.887  1.00  0.00     0.238 C 
HETATM    2  N   UNL     1      42.327 -16.090   0.038  1.00  0.00    -0.267 N 
HETATM    3  O   UNL     1      41.471 -17.969   1.028  1.00  0.00    -0.272 OA
HETATM    4  H   UNL     1      43.143 -15.541  -0.230  1.00  0.00     0.190 HD
ENDROOT
BRANCH   1   5
HETATM    5  C   UNL     1      43.703 -17.246   1.655  1.00  0.00     0.134 C 
BRANCH   5   6
HETATM    6  C   UNL     1      43.510 -17.901   3.035  1.00  0.00     0.129 C 
BRANCH   6   7
HETATM    7  C   UNL     1      43.876 -19.382   3.049  1.00  0.00    -0.013 A 
HETATM    8  C   UNL     1      43.605 -20.188   1.925  1.00  0.00     0.011 A 
HETATM    9  C   UNL     1      43.929 -21.548   1.905  1.00  0.00     0.001 A 
HETATM   10  C   UNL     1      44.533 -22.136   3.008  1.00  0.00     0.002 A 
HETATM   11  C   UNL     1      44.805 -21.365   4.136  1.00  0.00     0.024 A 
HETATM   12  C   UNL     1      44.475 -20.003   4.163  1.00  0.00     0.042 A 
HETATM   13 CL   UNL     1      44.847 -19.150   5.622  1.00  0.00    -0.084 Cl
ENDBRANCH   6   7
BRANCH   6  14
HETATM   14  N   UNL     1      42.197 -17.672   3.642  1.00  0.00    -0.339 N 
HETATM   15  C   UNL     1      41.977 -16.977   4.788  1.00  0.00     0.292 C 
HETATM   16  N   UNL     1      40.667 -16.980   5.141  1.00  0.00    -0.254 NA
HETATM   17  O   UNL     1      42.816 -16.413   5.473  1.00  0.00    -0.254 OA
HETATM   18  H   UNL     1      40.000 -16.924   4.384  1.00  0.00     0.128 HD
HETATM   19  H   UNL     1      40.464 -16.376   5.927  1.00  0.00     0.128 HD
HETATM   20  H   UNL     1      41.528 -18.414   3.486  1.00  0.00     0.164 HD
ENDBRANCH   6  14
ENDBRANCH   5   6
ENDBRANCH   1   5
BRANCH   2  21
HETATM   21  N   UNL     1      41.228 -16.015  -0.820  1.00  0.00    -0.263 N 
HETATM   22  C   UNL     1      41.102 -14.908  -1.631  1.00  0.00     0.270 C 
HETATM   23  O   UNL     1      41.906 -13.979  -1.616  1.00  0.00    -0.266 OA
HETATM   24  H   UNL     1      40.539 -16.760  -0.735  1.00  0.00     0.190 HD
BRANCH  22  25
HETATM   25  C   UNL     1      39.914 -14.872  -2.526  1.00  0.00     0.036 A 
HETATM   26  C   UNL     1      38.969 -13.838  -2.462  1.00  0.00     0.057 A 
HETATM   27  C   UNL     1      37.898 -13.897  -3.331  1.00  0.00     0.106 A 
HETATM   28  C   UNL     1      37.742 -14.926  -4.230  1.00  0.00     0.105 A 
HETATM   29  O   UNL     1      36.892 -12.986  -3.405  1.00  0.00    -0.323 OA
HETATM   30  O   UNL     1      36.620 -14.787  -4.985  1.00  0.00    -0.323 OA
HETATM   31  C   UNL     1      38.644 -15.962  -4.310  1.00  0.00     0.041 A 
HETATM   32  C   UNL     1      36.083 -13.558  -4.454  1.00  0.00     0.352 A 
HETATM   33  C   UNL     1      39.742 -15.935  -3.442  1.00  0.00     0.020 A 
ENDBRANCH  22  25
ENDBRANCH   2  21
TORSDOF 6
ENDMDL
MODEL 2
REMARK VINA RESULT:      -9.1      6.053     10.347
REMARK  6 active torsions:
REMARK  status: ('A' for Active; 'I' for Inactive)
REMARK    1  A    between atoms: C_3  and  C_4 
REMARK    2  A    between atoms: C_4  and  N_5 
REMARK    3  A    between atoms: C_4  and  C_9 
REMARK       I    between atoms: N_5  and  C_6 
REMARK       I    between atoms: C_6  and  N_7 
REMARK    4  A    between atoms: C_9  and  C_10 
REMARK       I    between atoms: C_10  and  N_11 
REMARK    5  A    between atoms: N_11  and  N_12 
REMARK       I    between atoms: N_12  and  C_13 
REMARK    6  A    between atoms: C_13  and  C_14 
ROOT
HETATM    1  C   UNL     1      43.023 -13.741   5.802  1.00  0.00     0.238 C 
HETATM    2  N   UNL     1      43.864 -13.458   6.860  1.00  0.00    -0.267 N 
HETATM    3  O   UNL     1      41.867 -13.323   5.749  1.00  0.00    -0.272 OA
HETATM    4  H   UNL     1      44.868 -13.634   6.830  1.00  0.00     0.190 HD
ENDROOT
BRANCH   1   5
HETATM    5  C   UNL     1      43.646 -14.653   4.769  1.00  0.00     0.134 C 
BRANCH   5   6
HETATM    6  C   UNL     1      43.136 -16.098   4.910  1.00  0.00     0.129 C 
BRANCH   6   7
HETATM    7  C   UNL     1      43.426 -16.956   3.680  1.00  0.00    -0.013 A 
HETATM    8  C   UNL     1      43.382 -16.383   2.394  1.00  0.00     0.011 A 
HETATM    9  C   UNL     1      43.644 -17.139   1.247  1.00  0.00     0.001 A 
HETATM   10  C   UNL     1      43.957 -18.488   1.360  1.00  0.00     0.002 A 
HETATM   11  C   UNL     1      43.999 -19.081   2.619  1.00  0.00     0.024 A 
HETATM   12  C   UNL     1      43.731 -18.328   3.770  1.00  0.00     0.042 A 
HETATM   13 CL   UNL     1      43.799 -19.175   5.277  1.00  0.00    -0.084 Cl
ENDBRANCH   6   7
BRANCH   6  14
HETATM   14  N   UNL     1      41.735 -16.215   5.320  1.00  0.00    -0.339 N 
HETATM   15  C   UNL     1      41.305 -16.792   6.472  1.00  0.00     0.292 C 
HETATM   16  N   UNL     1      39.950 -16.808   6.557  1.00  0.00    -0.254 NA
HETATM   17  O   UNL     1      42.001 -17.270   7.354  1.00  0.00    -0.254 OA
HETATM   18  H   UNL     1      39.469 -15.999   6.190  1.00  0.00     0.128 HD
HETATM   19  H   UNL     1      39.611 -17.130   7.455  1.00  0.00     0.128 HD
HETATM   20  H   UNL     1      41.080 -16.306   4.555  1.00  0.00     0.164 HD
ENDBRANCH   6  14
ENDBRANCH   5   6
ENDBRANCH   1   5
BRANCH   2  21
HETATM   21  N   UNL     1      43.435 -12.511   7.792  1.00  0.00    -0.263 N 
HETATM   22  C   UNL     1      44.232 -12.260   8.888  1.00  0.00     0.270 C 
HETATM   23  O   UNL     1      45.293 -12.847   9.086  1.00  0.00    -0.266 OA
HETATM   24  H   UNL     1      42.509 -12.117   7.640  1.00  0.00     0.190 HD
BRANCH  22  25
HETATM   25  C   UNL     1      43.732 -11.246   9.855  1.00  0.00     0.036 A 
HETATM   26  C   UNL     1      42.649 -10.406   9.554  1.00  0.00     0.057 A 
HETATM   27  C   UNL     1      42.263  -9.494  10.514  1.00  0.00     0.106 A 
HETATM   28  C   UNL     1      42.906  -9.391  11.726  1.00  0.00     0.105 A 
HETATM   29  O   UNL     1      41.241  -8.606  10.393  1.00  0.00    -0.323 OA
HETATM   30  O   UNL     1      42.365  -8.428  12.519  1.00  0.00    -0.323 OA
HETATM   31  C   UNL     1      43.979 -10.191  12.048  1.00  0.00     0.041 A 
HETATM   32  C   UNL     1      41.313  -7.931  11.666  1.00  0.00     0.352 A 
HETATM   33  C   UNL     1      44.399 -11.127  11.096  1.00  0.00     0.020 A 
ENDBRANCH  22  25
ENDBRANCH   2  21
TORSDOF 6
ENDMDL
MODEL 3
REMARK VINA RESULT:      -9.1      3.406      9.584
REMARK  6 active torsions:
REMARK  status: ('A' for Active; 'I' for Inactive)
REMARK    1  A    between atoms: C_3  and  C_4 
REMARK    2  A    between atoms: C_4  and  N_5 
REMARK    3  A    between atoms: C_4  and  C_9 
REMARK       I    between atoms: N_5  and  C_6 
REMARK       I    between atoms: C_6  and  N_7 
REMARK    4  A    between atoms: C_9  and  C_10 
REMARK       I    between atoms: C_10  and  N_11 
REMARK    5  A    between atoms: N_11  and  N_12 
REMARK       I    between atoms: N_12  and  C_13 
REMARK    6  A    between atoms: C_13  and  C_14 
ROOT
HETATM    1  C   UNL     1      41.522 -15.827   0.554  1.00  0.00     0.238 C 
HETATM    2  N   UNL     1      42.799 -16.305   0.339  1.00  0.00    -0.267 N 
HETATM    3  O   UNL     1      40.607 -16.548   0.953  1.00  0.00    -0.272 OA
HETATM    4  H   UNL     1      43.601 -15.691   0.195  1.00  0.00     0.190 HD
ENDROOT
BRANCH   1   5
HETATM    5  C   UNL     1      41.359 -14.368   0.193  1.00  0.00     0.134 C 
BRANCH   5   6
HETATM    6  C   UNL     1      40.431 -14.187  -1.022  1.00  0.00     0.129 C 
BRANCH   6   7
HETATM    7  C   UNL     1      39.185 -13.364  -0.704  1.00  0.00    -0.013 A 
HETATM    8  C   UNL     1      38.381 -13.700   0.403  1.00  0.00     0.011 A 
HETATM    9  C   UNL     1      37.234 -12.966   0.724  1.00  0.00     0.001 A 
HETATM   10  C   UNL     1      36.864 -11.878  -0.056  1.00  0.00     0.002 A 
HETATM   11  C   UNL     1      37.636 -11.529  -1.161  1.00  0.00     0.024 A 
HETATM   12  C   UNL     1      38.783 -12.266  -1.489  1.00  0.00     0.042 A 
HETATM   13 CL   UNL     1      39.655 -11.749  -2.892  1.00  0.00    -0.084 Cl
ENDBRANCH   6   7
BRANCH   6  14
HETATM   14  N   UNL     1      40.084 -15.428  -1.718  1.00  0.00    -0.339 N 
HETATM   15  C   UNL     1      40.223 -15.639  -3.052  1.00  0.00     0.292 C 
HETATM   16  N   UNL     1      39.766 -16.862  -3.424  1.00  0.00    -0.254 NA
HETATM   17  O   UNL     1      40.678 -14.857  -3.873  1.00  0.00    -0.254 OA
HETATM   18  H   UNL     1      39.934 -17.618  -2.775  1.00  0.00     0.128 HD
HETATM   19  H   UNL     1      39.961 -17.084  -4.391  1.00  0.00     0.128 HD
HETATM   20  H   UNL     1      39.315 -15.939  -1.307  1.00  0.00     0.164 HD
ENDBRANCH   6  14
ENDBRANCH   5   6
ENDBRANCH   1   5
BRANCH   2  21
HETATM   21  N   UNL     1      43.089 -17.599   0.776  1.00  0.00    -0.263 N 
HETATM   22  C   UNL     1      43.577 -17.767   2.054  1.00  0.00     0.270 C 
HETATM   23  O   UNL     1      43.784 -16.826   2.815  1.00  0.00    -0.266 OA
HETATM   24  H   UNL     1      42.992 -18.339   0.084  1.00  0.00     0.190 HD
BRANCH  22  25
HETATM   25  C   UNL     1      43.874 -19.164   2.472  1.00  0.00     0.036 A 
HETATM   26  C   UNL     1      44.369 -19.466   3.749  1.00  0.00     0.057 A 
HETATM   27  C   UNL     1      44.618 -20.791   4.040  1.00  0.00     0.106 A 
HETATM   28  C   UNL     1      44.401 -21.795   3.125  1.00  0.00     0.105 A 
HETATM   29  O   UNL     1      45.098 -21.263   5.222  1.00  0.00    -0.323 OA
HETATM   30  O   UNL     1      44.714 -23.022   3.619  1.00  0.00    -0.323 OA
HETATM   31  C   UNL     1      43.927 -21.532   1.859  1.00  0.00     0.041 A 
HETATM   32  C   UNL     1      45.160 -22.678   4.947  1.00  0.00     0.352 A 
HETATM   33  C   UNL     1      43.666 -20.197   1.529  1.00  0.00     0.020 A 
ENDBRANCH  22  25
ENDBRANCH   2  21
TORSDOF 6
ENDMDL
MODEL 4
REMARK VINA RESULT:      -9.0      5.297      9.716
REMARK  6 active torsions:
REMARK  status: ('A' for Active; 'I' for Inactive)
REMARK    1  A    between atoms: C_3  and  C_4 
REMARK    2  A    between atoms: C_4  and  N_5 
REMARK    3  A    between atoms: C_4  and  C_9 
REMARK       I    between atoms: N_5  and  C_6 
REMARK       I    between atoms: C_6  and  N_7 
REMARK    4  A    between atoms: C_9  and  C_10 
REMARK       I    between atoms: C_10  and  N_11 
REMARK    5  A    between atoms: N_11  and  N_12 
REMARK       I    between atoms: N_12  and  C_13 
REMARK    6  A    between atoms: C_13  and  C_14 
ROOT
HETATM    1  C   UNL     1      42.751 -15.072   5.376  1.00  0.00     0.238 C 
HETATM    2  N   UNL     1      43.810 -14.783   6.212  1.00  0.00    -0.267 N 
HETATM    3  O   UNL     1      41.608 -14.672   5.598  1.00  0.00    -0.272 OA
HETATM    4  H   UNL     1      44.783 -14.942   5.947  1.00  0.00     0.190 HD
ENDROOT
BRANCH   1   5
HETATM    5  C   UNL     1      43.128 -15.968   4.218  1.00  0.00     0.134 C 
BRANCH   5   6
HETATM    6  C   UNL     1      42.298 -17.264   4.210  1.00  0.00     0.129 C 
BRANCH   6   7
HETATM    7  C   UNL     1      43.076 -18.468   3.685  1.00  0.00    -0.013 A 
HETATM    8  C   UNL     1      42.809 -18.975   2.398  1.00  0.00     0.011 A 
HETATM    9  C   UNL     1      43.504 -20.075   1.887  1.00  0.00     0.001 A 
HETATM   10  C   UNL     1      44.484 -20.695   2.651  1.00  0.00     0.002 A 
HETATM   11  C   UNL     1      44.762 -20.220   3.930  1.00  0.00     0.024 A 
HETATM   12  C   UNL     1      44.063 -19.121   4.449  1.00  0.00     0.042 A 
HETATM   13 CL   UNL     1      44.483 -18.629   6.053  1.00  0.00    -0.084 Cl
ENDBRANCH   6   7
BRANCH   6  14
HETATM   14  N   UNL     1      40.992 -17.149   3.556  1.00  0.00    -0.339 N 
HETATM   15  C   UNL     1      40.730 -16.381   2.467  1.00  0.00     0.292 C 
HETATM   16  N   UNL     1      39.419 -16.426   2.117  1.00  0.00    -0.254 NA
HETATM   17  O   UNL     1      41.528 -15.697   1.846  1.00  0.00    -0.254 OA
HETATM   18  H   UNL     1      38.958 -17.318   2.226  1.00  0.00     0.128 HD
HETATM   19  H   UNL     1      39.223 -15.952   1.245  1.00  0.00     0.128 HD
HETATM   20  H   UNL     1      40.201 -17.250   4.178  1.00  0.00     0.164 HD
ENDBRANCH   6  14
ENDBRANCH   5   6
ENDBRANCH   1   5
BRANCH   2  21
HETATM   21  N   UNL     1      43.597 -13.849   7.227  1.00  0.00    -0.263 N 
HETATM   22  C   UNL     1      44.682 -13.156   7.721  1.00  0.00     0.270 C 
HETATM   23  O   UNL     1      45.827 -13.338   7.316  1.00  0.00    -0.266 OA
HETATM   24  H   UNL     1      42.650 -13.795   7.598  1.00  0.00     0.190 HD
BRANCH  22  25
HETATM   25  C   UNL     1      44.405 -12.174   8.805  1.00  0.00     0.036 A 
HETATM   26  C   UNL     1      43.231 -11.406   8.827  1.00  0.00     0.057 A 
HETATM   27  C   UNL     1      43.069 -10.519   9.871  1.00  0.00     0.106 A 
HETATM   28  C   UNL     1      44.013 -10.373  10.860  1.00  0.00     0.105 A 
HETATM   29  O   UNL     1      41.999  -9.699  10.050  1.00  0.00    -0.323 OA
HETATM   30  O   UNL     1      43.653  -9.446  11.787  1.00  0.00    -0.323 OA
HETATM   31  C   UNL     1      45.181 -11.102  10.862  1.00  0.00     0.041 A 
HETATM   32  C   UNL     1      42.378  -9.018  11.265  1.00  0.00     0.352 A 
HETATM   33  C   UNL     1      45.380 -12.010   9.816  1.00  0.00     0.020 A 
ENDBRANCH  22  25
ENDBRANCH   2  21
TORSDOF 6
ENDMDL
MODEL 5
REMARK VINA RESULT:      -9.0      1.963      3.140
REMARK  6 active torsions:
REMARK  status: ('A' for Active; 'I' for Inactive)
REMARK    1  A    between atoms: C_3  and  C_4 
REMARK    2  A    between atoms: C_4  and  N_5 
REMARK    3  A    between atoms: C_4  and  C_9 
REMARK       I    between atoms: N_5  and  C_6 
REMARK       I    between atoms: C_6  and  N_7 
REMARK    4  A    between atoms: C_9  and  C_10 
REMARK       I    between atoms: C_10  and  N_11 
REMARK    5  A    between atoms: N_11  and  N_12 
REMARK       I    between atoms: N_12  and  C_13 
REMARK    6  A    between atoms: C_13  and  C_14 
ROOT
HETATM    1  C   UNL     1      42.316 -17.556   1.313  1.00  0.00     0.238 C 
HETATM    2  N   UNL     1      42.408 -16.534   0.390  1.00  0.00    -0.267 N 
HETATM    3  O   UNL     1      41.306 -18.252   1.428  1.00  0.00    -0.272 OA
HETATM    4  H   UNL     1      43.290 -16.079   0.155  1.00  0.00     0.190 HD
ENDROOT
BRANCH   1   5
HETATM    5  C   UNL     1      43.540 -17.682   2.192  1.00  0.00     0.134 C 
BRANCH   5   6
HETATM    6  C   UNL     1      43.421 -18.873   3.160  1.00  0.00     0.129 C 
BRANCH   6   7
HETATM    7  C   UNL     1      43.629 -18.479   4.619  1.00  0.00    -0.013 A 
HETATM    8  C   UNL     1      44.886 -18.659   5.229  1.00  0.00     0.011 A 
HETATM    9  C   UNL     1      45.110 -18.307   6.563  1.00  0.00     0.001 A 
HETATM   10  C   UNL     1      44.081 -17.765   7.321  1.00  0.00     0.002 A 
HETATM   11  C   UNL     1      42.825 -17.583   6.747  1.00  0.00     0.024 A 
HETATM   12  C   UNL     1      42.595 -17.941   5.412  1.00  0.00     0.042 A 
HETATM   13 CL   UNL     1      40.993 -17.683   4.811  1.00  0.00    -0.084 Cl
ENDBRANCH   6   7
BRANCH   6  14
HETATM   14  N   UNL     1      44.239 -20.035   2.802  1.00  0.00    -0.339 N 
HETATM   15  C   UNL     1      43.794 -21.121   2.118  1.00  0.00     0.292 C 
HETATM   16  N   UNL     1      44.758 -22.066   1.983  1.00  0.00    -0.254 NA
HETATM   17  O   UNL     1      42.671 -21.293   1.670  1.00  0.00    -0.254 OA
HETATM   18  H   UNL     1      45.698 -21.728   1.833  1.00  0.00     0.128 HD
HETATM   19  H   UNL     1      44.484 -22.833   1.382  1.00  0.00     0.128 HD
HETATM   20  H   UNL     1      44.976 -20.248   3.460  1.00  0.00     0.164 HD
ENDBRANCH   6  14
ENDBRANCH   5   6
ENDBRANCH   1   5
BRANCH   2  21
HETATM   21  N   UNL     1      41.392 -16.427  -0.561  1.00  0.00    -0.263 N 
HETATM   22  C   UNL     1      41.195 -15.212  -1.180  1.00  0.00     0.270 C 
HETATM   23  O   UNL     1      41.865 -14.217  -0.916  1.00  0.00    -0.266 OA
HETATM   24  H   UNL     1      40.801 -17.248  -0.682  1.00  0.00     0.190 HD
BRANCH  22  25
HETATM   25  C   UNL     1      40.099 -15.147  -2.184  1.00  0.00     0.036 A 
HETATM   26  C   UNL     1      39.104 -14.160  -2.132  1.00  0.00     0.057 A 
HETATM   27  C   UNL     1      38.126 -14.188  -3.105  1.00  0.00     0.106 A 
HETATM   28  C   UNL     1      38.107 -15.142  -4.096  1.00  0.00     0.105 A 
HETATM   29  O   UNL     1      37.089 -13.314  -3.207  1.00  0.00    -0.323 OA
HETATM   30  O   UNL     1      37.058 -14.984  -4.946  1.00  0.00    -0.323 OA
HETATM   31  C   UNL     1      39.061 -16.131  -4.169  1.00  0.00     0.041 A 
HETATM   32  C   UNL     1      36.414 -13.826  -4.374  1.00  0.00     0.352 A 
HETATM   33  C   UNL     1      40.067 -16.135  -3.195  1.00  0.00     0.020 A 
ENDBRANCH  22  25
ENDBRANCH   2  21
TORSDOF 6
ENDMDL
MODEL 6
REMARK VINA RESULT:      -8.7      3.552      8.990
REMARK  6 active torsions:
REMARK  status: ('A' for Active; 'I' for Inactive)
REMARK    1  A    between atoms: C_3  and  C_4 
REMARK    2  A    between atoms: C_4  and  N_5 
REMARK    3  A    between atoms: C_4  and  C_9 
REMARK       I    between atoms: N_5  and  C_6 
REMARK       I    between atoms: C_6  and  N_7 
REMARK    4  A    between atoms: C_9  and  C_10 
REMARK       I    between atoms: C_10  and  N_11 
REMARK    5  A    between atoms: N_11  and  N_12 
REMARK       I    between atoms: N_12  and  C_13 
REMARK    6  A    between atoms: C_13  and  C_14 
ROOT
HETATM    1  C   UNL     1      39.299 -14.593   2.060  1.00  0.00     0.238 C 
HETATM    2  N   UNL     1      39.348 -15.960   1.875  1.00  0.00    -0.267 N 
HETATM    3  O   UNL     1      39.831 -14.039   3.023  1.00  0.00    -0.272 OA
HETATM    4  H   UNL     1      39.082 -16.409   0.999  1.00  0.00     0.190 HD
ENDROOT
BRANCH   1   5
HETATM    5  C   UNL     1      38.486 -13.875   1.007  1.00  0.00     0.134 C 
BRANCH   5   6
HETATM    6  C   UNL     1      39.389 -13.187  -0.033  1.00  0.00     0.129 C 
BRANCH   6   7
HETATM    7  C   UNL     1      39.559 -14.006  -1.310  1.00  0.00    -0.013 A 
HETATM    8  C   UNL     1      40.624 -14.921  -1.426  1.00  0.00     0.011 A 
HETATM    9  C   UNL     1      40.807 -15.688  -2.581  1.00  0.00     0.001 A 
HETATM   10  C   UNL     1      39.928 -15.558  -3.649  1.00  0.00     0.002 A 
HETATM   11  C   UNL     1      38.872 -14.654  -3.564  1.00  0.00     0.024 A 
HETATM   12  C   UNL     1      38.689 -13.880  -2.411  1.00  0.00     0.042 A 
HETATM   13 CL   UNL     1      37.351 -12.782  -2.425  1.00  0.00    -0.084 Cl
ENDBRANCH   6   7
BRANCH   6  14
HETATM   14  N   UNL     1      40.683 -12.735   0.484  1.00  0.00    -0.339 N 
HETATM   15  C   UNL     1      41.338 -11.617   0.076  1.00  0.00     0.292 C 
HETATM   16  N   UNL     1      42.542 -11.482   0.688  1.00  0.00    -0.254 NA
HETATM   17  O   UNL     1      40.951 -10.803  -0.749  1.00  0.00    -0.254 OA
HETATM   18  H   UNL     1      42.585 -11.765   1.657  1.00  0.00     0.128 HD
HETATM   19  H   UNL     1      42.996 -10.601   0.484  1.00  0.00     0.128 HD
HETATM   20  H   UNL     1      41.300 -13.479   0.778  1.00  0.00     0.164 HD
ENDBRANCH   6  14
ENDBRANCH   5   6
ENDBRANCH   1   5
BRANCH   2  21
HETATM   21  N   UNL     1      40.191 -16.697   2.710  1.00  0.00    -0.263 N 
HETATM   22  C   UNL     1      41.360 -17.202   2.183  1.00  0.00     0.270 C 
HETATM   23  O   UNL     1      41.681 -17.044   1.008  1.00  0.00    -0.266 OA
HETATM   24  H   UNL     1      39.844 -16.883   3.649  1.00  0.00     0.190 HD
BRANCH  22  25
HETATM   25  C   UNL     1      42.223 -17.982   3.111  1.00  0.00     0.036 A 
HETATM   26  C   UNL     1      43.176 -18.899   2.642  1.00  0.00     0.057 A 
HETATM   27  C   UNL     1      43.924 -19.578   3.581  1.00  0.00     0.106 A 
HETATM   28  C   UNL     1      43.754 -19.384   4.932  1.00  0.00     0.105 A 
HETATM   29  O   UNL     1      44.885 -20.500   3.307  1.00  0.00    -0.323 OA
HETATM   30  O   UNL     1      44.591 -20.155   5.675  1.00  0.00    -0.323 OA
HETATM   31  C   UNL     1      42.820 -18.501   5.425  1.00  0.00     0.041 A 
HETATM   32  C   UNL     1      45.303 -20.864   4.639  1.00  0.00     0.352 A 
HETATM   33  C   UNL     1      42.042 -17.796   4.501  1.00  0.00     0.020 A 
ENDBRANCH  22  25
ENDBRANCH   2  21
TORSDOF 6
ENDMDL
MODEL 7
REMARK VINA RESULT:      -8.6      3.265      9.557
REMARK  6 active torsions:
REMARK  status: ('A' for Active; 'I' for Inactive)
REMARK    1  A    between atoms: C_3  and  C_4 
REMARK    2  A    between atoms: C_4  and  N_5 
REMARK    3  A    between atoms: C_4  and  C_9 
REMARK       I    between atoms: N_5  and  C_6 
REMARK       I    between atoms: C_6  and  N_7 
REMARK    4  A    between atoms: C_9  and  C_10 
REMARK       I    between atoms: C_10  and  N_11 
REMARK    5  A    between atoms: N_11  and  N_12 
REMARK       I    between atoms: N_12  and  C_13 
REMARK    6  A    between atoms: C_13  and  C_14 
ROOT
HETATM    1  C   UNL     1      40.512 -14.424  -0.392  1.00  0.00     0.238 C 
HETATM    2  N   UNL     1      40.588 -15.799  -0.476  1.00  0.00    -0.267 N 
HETATM    3  O   UNL     1      41.101 -13.783   0.478  1.00  0.00    -0.272 OA
HETATM    4  H   UNL     1      40.267 -16.322  -1.292  1.00  0.00     0.190 HD
ENDROOT
BRANCH   1   5
HETATM    5  C   UNL     1      39.594 -13.810  -1.425  1.00  0.00     0.134 C 
BRANCH   5   6
HETATM    6  C   UNL     1      40.237 -13.810  -2.824  1.00  0.00     0.129 C 
BRANCH   6   7
HETATM    7  C   UNL     1      40.621 -12.413  -3.304  1.00  0.00    -0.013 A 
HETATM    8  C   UNL     1      39.682 -11.619  -3.993  1.00  0.00     0.011 A 
HETATM    9  C   UNL     1      40.000 -10.335  -4.444  1.00  0.00     0.001 A 
HETATM   10  C   UNL     1      41.266  -9.812  -4.217  1.00  0.00     0.002 A 
HETATM   11  C   UNL     1      42.217 -10.578  -3.547  1.00  0.00     0.024 A 
HETATM   12  C   UNL     1      41.903 -11.868  -3.098  1.00  0.00     0.042 A 
HETATM   13 CL   UNL     1      43.168 -12.730  -2.290  1.00  0.00    -0.084 Cl
ENDBRANCH   6   7
BRANCH   6  14
HETATM   14  N   UNL     1      39.477 -14.533  -3.846  1.00  0.00    -0.339 N 
HETATM   15  C   UNL     1      39.467 -15.882  -4.002  1.00  0.00     0.292 C 
HETATM   16  N   UNL     1      38.719 -16.265  -5.069  1.00  0.00    -0.254 NA
HETATM   17  O   UNL     1      40.052 -16.702  -3.312  1.00  0.00    -0.254 OA
HETATM   18  H   UNL     1      37.878 -15.732  -5.239  1.00  0.00     0.128 HD
HETATM   19  H   UNL     1      38.606 -17.268  -5.137  1.00  0.00     0.128 HD
HETATM   20  H   UNL     1      39.351 -14.026  -4.712  1.00  0.00     0.164 HD
ENDBRANCH   6  14
ENDBRANCH   5   6
ENDBRANCH   1   5
BRANCH   2  21
HETATM   21  N   UNL     1      41.518 -16.448   0.339  1.00  0.00    -0.263 N 
HETATM   22  C   UNL     1      41.080 -17.009   1.519  1.00  0.00     0.270 C 
HETATM   23  O   UNL     1      39.911 -16.947   1.889  1.00  0.00    -0.266 OA
HETATM   24  H   UNL     1      42.490 -16.396   0.041  1.00  0.00     0.190 HD
BRANCH  22  25
HETATM   25  C   UNL     1      42.108 -17.686   2.354  1.00  0.00     0.036 A 
HETATM   26  C   UNL     1      42.475 -17.199   3.617  1.00  0.00     0.057 A 
HETATM   27  C   UNL     1      43.443 -17.894   4.313  1.00  0.00     0.106 A 
HETATM   28  C   UNL     1      44.043 -19.021   3.802  1.00  0.00     0.105 A 
HETATM   29  O   UNL     1      43.918 -17.565   5.544  1.00  0.00    -0.323 OA
HETATM   30  O   UNL     1      44.967 -19.545   4.651  1.00  0.00    -0.323 OA
HETATM   31  C   UNL     1      43.715 -19.518   2.561  1.00  0.00     0.041 A 
HETATM   32  C   UNL     1      44.887 -18.615   5.751  1.00  0.00     0.352 A 
HETATM   33  C   UNL     1      42.738 -18.837   1.827  1.00  0.00     0.020 A 
ENDBRANCH  22  25
ENDBRANCH   2  21
TORSDOF 6
ENDMDL
MODEL 8
REMARK VINA RESULT:      -8.6      3.410      9.534
REMARK  6 active torsions:
REMARK  status: ('A' for Active; 'I' for Inactive)
REMARK    1  A    between atoms: C_3  and  C_4 
REMARK    2  A    between atoms: C_4  and  N_5 
REMARK    3  A    between atoms: C_4  and  C_9 
REMARK       I    between atoms: N_5  and  C_6 
REMARK       I    between atoms: C_6  and  N_7 
REMARK    4  A    between atoms: C_9  and  C_10 
REMARK       I    between atoms: C_10  and  N_11 
REMARK    5  A    between atoms: N_11  and  N_12 
REMARK       I    between atoms: N_12  and  C_13 
REMARK    6  A    between atoms: C_13  and  C_14 
ROOT
HETATM    1  C   UNL     1      41.246 -15.826   0.975  1.00  0.00     0.238 C 
HETATM    2  N   UNL     1      42.401 -16.406   0.492  1.00  0.00    -0.267 N 
HETATM    3  O   UNL     1      40.419 -16.454   1.636  1.00  0.00    -0.272 OA
HETATM    4  H   UNL     1      43.177 -15.863   0.113  1.00  0.00     0.190 HD
ENDROOT
BRANCH   1   5
HETATM    5  C   UNL     1      41.083 -14.381   0.559  1.00  0.00     0.134 C 
BRANCH   5   6
HETATM    6  C   UNL     1      41.222 -14.212  -0.964  1.00  0.00     0.129 C 
BRANCH   6   7
HETATM    7  C   UNL     1      41.379 -12.755  -1.391  1.00  0.00    -0.013 A 
HETATM    8  C   UNL     1      42.615 -12.292  -1.884  1.00  0.00     0.011 A 
HETATM    9  C   UNL     1      42.791 -10.964  -2.285  1.00  0.00     0.001 A 
HETATM   10  C   UNL     1      41.735 -10.066  -2.203  1.00  0.00     0.002 A 
HETATM   11  C   UNL     1      40.505 -10.494  -1.710  1.00  0.00     0.024 A 
HETATM   12  C   UNL     1      40.326 -11.823  -1.302  1.00  0.00     0.042 A 
HETATM   13 CL   UNL     1      38.759 -12.237  -0.694  1.00  0.00    -0.084 Cl
ENDBRANCH   6   7
BRANCH   6  14
HETATM   14  N   UNL     1      40.189 -14.888  -1.752  1.00  0.00    -0.339 N 
HETATM   15  C   UNL     1      40.385 -15.463  -2.966  1.00  0.00     0.292 C 
HETATM   16  N   UNL     1      39.234 -15.962  -3.485  1.00  0.00    -0.254 NA
HETATM   17  O   UNL     1      41.440 -15.539  -3.577  1.00  0.00    -0.254 OA
HETATM   18  H   UNL     1      38.593 -16.383  -2.827  1.00  0.00     0.128 HD
HETATM   19  H   UNL     1      39.376 -16.493  -4.334  1.00  0.00     0.128 HD
HETATM   20  H   UNL     1      39.257 -14.517  -1.628  1.00  0.00     0.164 HD
ENDBRANCH   6  14
ENDBRANCH   5   6
ENDBRANCH   1   5
BRANCH   2  21
HETATM   21  N   UNL     1      42.715 -17.692   0.939  1.00  0.00    -0.263 N 
HETATM   22  C   UNL     1      43.536 -17.824   2.038  1.00  0.00     0.270 C 
HETATM   23  O   UNL     1      44.014 -16.859   2.629  1.00  0.00    -0.266 OA
HETATM   24  H   UNL     1      42.375 -18.462   0.366  1.00  0.00     0.190 HD
BRANCH  22  25
HETATM   25  C   UNL     1      43.844 -19.213   2.474  1.00  0.00     0.036 A 
HETATM   26  C   UNL     1      44.334 -19.495   3.757  1.00  0.00     0.057 A 
HETATM   27  C   UNL     1      44.595 -20.815   4.064  1.00  0.00     0.106 A 
HETATM   28  C   UNL     1      44.394 -21.830   3.158  1.00  0.00     0.105 A 
HETATM   29  O   UNL     1      45.073 -21.268   5.254  1.00  0.00    -0.323 OA
HETATM   30  O   UNL     1      44.717 -23.049   3.667  1.00  0.00    -0.323 OA
HETATM   31  C   UNL     1      43.926 -21.586   1.887  1.00  0.00     0.041 A 
HETATM   32  C   UNL     1      45.151 -22.686   4.994  1.00  0.00     0.352 A 
HETATM   33  C   UNL     1      43.653 -20.258   1.541  1.00  0.00     0.020 A 
ENDBRANCH  22  25
ENDBRANCH   2  21
TORSDOF 6
ENDMDL
MODEL 9
REMARK VINA RESULT:      -8.5      3.598      9.037
REMARK  6 active torsions:
REMARK  status: ('A' for Active; 'I' for Inactive)
REMARK    1  A    between atoms: C_3  and  C_4 
REMARK    2  A    between atoms: C_4  and  N_5 
REMARK    3  A    between atoms: C_4  and  C_9 
REMARK       I    between atoms: N_5  and  C_6 
REMARK       I    between atoms: C_6  and  N_7 
REMARK    4  A    between atoms: C_9  and  C_10 
REMARK       I    between atoms: C_10  and  N_11 
REMARK    5  A    between atoms: N_11  and  N_12 
REMARK       I    between atoms: N_12  and  C_13 
REMARK    6  A    between atoms: C_13  and  C_14 
ROOT
HETATM    1  C   UNL     1      42.035 -14.583   2.590  1.00  0.00     0.238 C 
HETATM    2  N   UNL     1      41.896 -15.797   1.949  1.00  0.00    -0.267 N 
HETATM    3  O   UNL     1      42.368 -14.495   3.772  1.00  0.00    -0.272 OA
HETATM    4  H   UNL     1      41.808 -15.882   0.936  1.00  0.00     0.190 HD
ENDROOT
BRANCH   1   5
HETATM    5  C   UNL     1      41.681 -13.401   1.716  1.00  0.00     0.134 C 
BRANCH   5   6
HETATM    6  C   UNL     1      40.907 -13.838   0.460  1.00  0.00     0.129 C 
BRANCH   6   7
HETATM    7  C   UNL     1      41.508 -13.289  -0.832  1.00  0.00    -0.013 A 
HETATM    8  C   UNL     1      42.120 -12.020  -0.844  1.00  0.00     0.011 A 
HETATM    9  C   UNL     1      42.681 -11.489  -2.009  1.00  0.00     0.001 A 
HETATM   10  C   UNL     1      42.644 -12.216  -3.192  1.00  0.00     0.002 A 
HETATM   11  C   UNL     1      42.038 -13.469  -3.211  1.00  0.00     0.024 A 
HETATM   12  C   UNL     1      41.468 -14.002  -2.047  1.00  0.00     0.042 A 
HETATM   13 CL   UNL     1      40.730 -15.560  -2.194  1.00  0.00    -0.084 Cl
ENDBRANCH   6   7
BRANCH   6  14
HETATM   14  N   UNL     1      39.463 -13.599   0.517  1.00  0.00    -0.339 N 
HETATM   15  C   UNL     1      38.566 -14.392   1.158  1.00  0.00     0.292 C 
HETATM   16  N   UNL     1      37.292 -13.955   0.992  1.00  0.00    -0.254 NA
HETATM   17  O   UNL     1      38.811 -15.398   1.806  1.00  0.00    -0.254 OA
HETATM   18  H   UNL     1      37.160 -12.954   0.982  1.00  0.00     0.128 HD
HETATM   19  H   UNL     1      36.619 -14.464   1.552  1.00  0.00     0.128 HD
HETATM   20  H   UNL     1      39.081 -13.135  -0.296  1.00  0.00     0.164 HD
ENDBRANCH   6  14
ENDBRANCH   5   6
ENDBRANCH   1   5
BRANCH   2  21
HETATM   21  N   UNL     1      42.335 -16.939   2.623  1.00  0.00    -0.263 N 
HETATM   22  C   UNL     1      43.498 -17.546   2.199  1.00  0.00     0.270 C 
HETATM   23  O   UNL     1      44.152 -17.134   1.244  1.00  0.00    -0.266 OA
HETATM   24  H   UNL     1      41.717 -17.300   3.347  1.00  0.00     0.190 HD
BRANCH  22  25
HETATM   25  C   UNL     1      43.923 -18.760   2.946  1.00  0.00     0.036 A 
HETATM   26  C   UNL     1      43.946 -20.028   2.347  1.00  0.00     0.057 A 
HETATM   27  C   UNL     1      44.351 -21.093   3.125  1.00  0.00     0.106 A 
HETATM   28  C   UNL     1      44.717 -20.941   4.442  1.00  0.00     0.105 A 
HETATM   29  O   UNL     1      44.432 -22.386   2.711  1.00  0.00    -0.323 OA
HETATM   30  O   UNL     1      45.078 -22.118   5.018  1.00  0.00    -0.323 OA
HETATM   31  C   UNL     1      44.694 -19.713   5.063  1.00  0.00     0.041 A 
HETATM   32  C   UNL     1      44.891 -23.031   3.917  1.00  0.00     0.352 A 
HETATM   33  C   UNL     1      44.286 -18.610   4.304  1.00  0.00     0.020 A 
ENDBRANCH  22  25
ENDBRANCH   2  21
TORSDOF 6
ENDMDL
MODEL 10
REMARK VINA RESULT:      -8.4      2.916      3.722
REMARK  6 active torsions:
REMARK  status: ('A' for Active; 'I' for Inactive)
REMARK    1  A    between atoms: C_3  and  C_4 
REMARK    2  A    between atoms: C_4  and  N_5 
REMARK    3  A    between atoms: C_4  and  C_9 
REMARK       I    between atoms: N_5  and  C_6 
REMARK       I    between atoms: C_6  and  N_7 
REMARK    4  A    between atoms: C_9  and  C_10 
REMARK       I    between atoms: C_10  and  N_11 
REMARK    5  A    between atoms: N_11  and  N_12 
REMARK       I    between atoms: N_12  and  C_13 
REMARK    6  A    between atoms: C_13  and  C_14 
ROOT
HETATM    1  C   UNL     1      41.910 -15.687   1.271  1.00  0.00     0.238 C 
HETATM    2  N   UNL     1      41.802 -15.604  -0.102  1.00  0.00    -0.267 N 
HETATM    3  O   UNL     1      42.416 -14.791   1.947  1.00  0.00    -0.272 OA
HETATM    4  H   UNL     1      41.223 -16.241  -0.651  1.00  0.00     0.190 HD
ENDROOT
BRANCH   1   5
HETATM    5  C   UNL     1      41.407 -16.996   1.834  1.00  0.00     0.134 C 
BRANCH   5   6
HETATM    6  C   UNL     1      42.083 -17.333   3.175  1.00  0.00     0.129 C 
BRANCH   6   7
HETATM    7  C   UNL     1      42.961 -18.580   3.104  1.00  0.00    -0.013 A 
HETATM    8  C   UNL     1      42.817 -19.486   2.034  1.00  0.00     0.011 A 
HETATM    9  C   UNL     1      43.606 -20.636   1.938  1.00  0.00     0.001 A 
HETATM   10  C   UNL     1      44.560 -20.908   2.910  1.00  0.00     0.002 A 
HETATM   11  C   UNL     1      44.718 -20.034   3.983  1.00  0.00     0.024 A 
HETATM   12  C   UNL     1      43.924 -18.884   4.086  1.00  0.00     0.042 A 
HETATM   13 CL   UNL     1      44.199 -17.880   5.469  1.00  0.00    -0.084 Cl
ENDBRANCH   6   7
BRANCH   6  14
HETATM   14  N   UNL     1      41.173 -17.389   4.321  1.00  0.00    -0.339 N 
HETATM   15  C   UNL     1      40.966 -16.376   5.203  1.00  0.00     0.292 C 
HETATM   16  N   UNL     1      40.114 -16.734   6.196  1.00  0.00    -0.254 NA
HETATM   17  O   UNL     1      41.469 -15.263   5.169  1.00  0.00    -0.254 OA
HETATM   18  H   UNL     1      39.346 -17.335   5.932  1.00  0.00     0.128 HD
HETATM   19  H   UNL     1      39.858 -15.962   6.799  1.00  0.00     0.128 HD
HETATM   20  H   UNL     1      41.071 -18.307   4.732  1.00  0.00     0.164 HD
ENDBRANCH   6  14
ENDBRANCH   5   6
ENDBRANCH   1   5
BRANCH   2  21
HETATM   21  N   UNL     1      42.106 -14.381  -0.704  1.00  0.00    -0.263 N 
HETATM   22  C   UNL     1      41.264 -13.904  -1.685  1.00  0.00     0.270 C 
HETATM   23  O   UNL     1      40.270 -14.518  -2.063  1.00  0.00    -0.266 OA
HETATM   24  H   UNL     1      42.986 -13.951  -0.428  1.00  0.00     0.190 HD
BRANCH  22  25
HETATM   25  C   UNL     1      41.631 -12.599  -2.298  1.00  0.00     0.036 A 
HETATM   26  C   UNL     1      41.762 -11.431  -1.532  1.00  0.00     0.057 A 
HETATM   27  C   UNL     1      42.100 -10.269  -2.194  1.00  0.00     0.106 A 
HETATM   28  C   UNL     1      42.300 -10.233  -3.554  1.00  0.00     0.105 A 
HETATM   29  O   UNL     1      42.267  -9.051  -1.612  1.00  0.00    -0.323 OA
HETATM   30  O   UNL     1      42.622  -8.988  -3.997  1.00  0.00    -0.323 OA
HETATM   31  C   UNL     1      42.168 -11.358  -4.336  1.00  0.00     0.041 A 
HETATM   32  C   UNL     1      42.595  -8.243  -2.762  1.00  0.00     0.352 A 
HETATM   33  C   UNL     1      41.823 -12.554  -3.698  1.00  0.00     0.020 A 
ENDBRANCH  22  25
ENDBRANCH   2  21
TORSDOF 6
ENDMDL
