MODEL 1
REMARK VINA RESULT:      -8.9      0.000      0.000
REMARK  6 active torsions:
REMARK  status: ('A' for Active; 'I' for Inactive)
REMARK    1  A    between atoms: C_2  and  O_3 
REMARK    2  A    between atoms: C_2  and  C_4 
REMARK    3  A    between atoms: C_7  and  N_8 
REMARK       I    between atoms: N_8  and  C_9 
REMARK    4  A    between atoms: C_9  and  C_10 
REMARK    5  A    between atoms: C_13  and  C_14 
REMARK    6  A    between atoms: C_19  and  C_20 
ROOT
HETATM    1  C   UNL     1      41.461 -14.952   0.799  1.00  0.00     0.096 C 
HETATM    2  C   UNL     1      41.538 -14.734  -0.564  1.00  0.00     0.138 C 
HETATM    3  N   UNL     1      41.437 -13.370  -0.732  1.00  0.00    -0.240 N 
HETATM    4  C   UNL     1      41.434 -12.695  -2.020  1.00  0.00     0.221 C 
HETATM    5  C   UNL     1      41.878 -13.660  -3.137  1.00  0.00     0.068 C 
HETATM    6  C   UNL     1      41.245 -15.047  -2.962  1.00  0.00     0.143 C 
HETATM    7  N   UNL     1      41.644 -15.567  -1.638  1.00  0.00    -0.363 N 
HETATM    8  N   UNL     1      41.127 -12.717   0.398  1.00  0.00    -0.181 NA
HETATM    9  C   UNL     1      41.171 -13.672   1.330  1.00  0.00     0.160 C 
HETATM   10  H   UNL     1      41.348 -16.539  -1.517  1.00  0.00     0.162 HD
ENDROOT
BRANCH   1  11
HETATM   11  C   UNL     1      41.587 -16.188   1.551  1.00  0.00     0.261 C 
HETATM   12  N   UNL     1      42.899 -16.572   1.760  1.00  0.00    -0.323 N 
HETATM   13  H   UNL     1      43.602 -15.908   1.453  1.00  0.00     0.169 HD
HETATM   14  O   UNL     1      40.589 -16.757   1.978  1.00  0.00    -0.267 OA
BRANCH  12  15
HETATM   15  C   UNL     1      43.358 -17.687   2.489  1.00  0.00     0.035 A 
HETATM   16  C   UNL     1      43.625 -17.663   3.858  1.00  0.00     0.030 A 
HETATM   17  C   UNL     1      44.110 -18.805   4.508  1.00  0.00     0.012 A 
HETATM   18  C   UNL     1      44.338 -19.994   3.804  1.00  0.00    -0.030 A 
HETATM   19  C   UNL     1      44.055 -20.017   2.433  1.00  0.00     0.012 A 
HETATM   20  C   UNL     1      43.561 -18.879   1.785  1.00  0.00     0.030 A 
BRANCH  18  21
HETATM   21  C   UNL     1      44.921 -21.192   4.523  1.00  0.00     0.147 C 
HETATM   22  C   UNL     1      44.605 -22.488   3.786  1.00  0.00     0.044 C 
BRANCH  21  23
HETATM   23  O   UNL     1      44.408 -21.275   5.852  1.00  0.00    -0.391 OA
HETATM   24  H   UNL     1      43.699 -20.614   5.923  1.00  0.00     0.210 HD
ENDBRANCH  21  23
ENDBRANCH  18  21
ENDBRANCH  12  15
ENDBRANCH   1  11
BRANCH   4  25
HETATM   25  C   UNL     1      42.339 -11.483  -2.011  1.00  0.00     0.409 C 
HETATM   26  F   UNL     1      43.468 -11.692  -1.295  1.00  0.00    -0.169 F 
HETATM   27  F   UNL     1      42.737 -11.200  -3.281  1.00  0.00    -0.169 F 
HETATM   28  F   UNL     1      41.747 -10.365  -1.547  1.00  0.00    -0.169 F 
ENDBRANCH   4  25
BRANCH   6  29
HETATM   29  C   UNL     1      39.766 -15.014  -3.215  1.00  0.00     0.075 A 
HETATM   30  O   UNL     1      39.325 -15.705  -4.309  1.00  0.00    -0.325 OA
HETATM   31  C   UNL     1      37.980 -15.530  -4.375  1.00  0.00     0.142 A 
HETATM   32  C   UNL     1      37.546 -14.741  -3.338  1.00  0.00     0.027 A 
HETATM   33  C   UNL     1      38.697 -14.409  -2.586  1.00  0.00     0.037 A 
ENDBRANCH   6  29
TORSDOF 6
ENDMDL
MODEL 2
REMARK VINA RESULT:      -8.7      3.396      8.728
REMARK  6 active torsions:
REMARK  status: ('A' for Active; 'I' for Inactive)
REMARK    1  A    between atoms: C_2  and  O_3 
REMARK    2  A    between atoms: C_2  and  C_4 
REMARK    3  A    between atoms: C_7  and  N_8 
REMARK       I    between atoms: N_8  and  C_9 
REMARK    4  A    between atoms: C_9  and  C_10 
REMARK    5  A    between atoms: C_13  and  C_14 
REMARK    6  A    between atoms: C_19  and  C_20 
ROOT
HETATM    1  C   UNL     1      41.934 -15.135   2.819  1.00  0.00     0.096 C 
HETATM    2  C   UNL     1      42.104 -15.869   3.977  1.00  0.00     0.138 C 
HETATM    3  N   UNL     1      43.208 -15.333   4.604  1.00  0.00    -0.240 N 
HETATM    4  C   UNL     1      43.773 -15.826   5.849  1.00  0.00     0.221 C 
HETATM    5  C   UNL     1      42.799 -16.805   6.533  1.00  0.00     0.068 C 
HETATM    6  C   UNL     1      42.156 -17.758   5.515  1.00  0.00     0.143 C 
HETATM    7  N   UNL     1      41.449 -16.940   4.509  1.00  0.00    -0.363 N 
HETATM    8  N   UNL     1      43.858 -14.431   3.852  1.00  0.00    -0.181 NA
HETATM    9  C   UNL     1      43.070 -14.291   2.784  1.00  0.00     0.160 C 
HETATM   10  H   UNL     1      40.902 -17.527   3.873  1.00  0.00     0.162 HD
ENDROOT
BRANCH   1  11
HETATM   11  C   UNL     1      40.887 -15.211   1.815  1.00  0.00     0.261 C 
HETATM   12  N   UNL     1      41.263 -14.697   0.589  1.00  0.00    -0.323 N 
HETATM   13  H   UNL     1      42.237 -14.424   0.511  1.00  0.00     0.169 HD
HETATM   14  O   UNL     1      39.814 -15.742   2.080  1.00  0.00    -0.267 OA
BRANCH  12  15
HETATM   15  C   UNL     1      40.502 -14.668  -0.597  1.00  0.00     0.035 A 
HETATM   16  C   UNL     1      39.326 -13.933  -0.747  1.00  0.00     0.030 A 
HETATM   17  C   UNL     1      38.606 -13.980  -1.947  1.00  0.00     0.012 A 
HETATM   18  C   UNL     1      39.047 -14.761  -3.023  1.00  0.00    -0.030 A 
HETATM   19  C   UNL     1      40.235 -15.486  -2.872  1.00  0.00     0.012 A 
HETATM   20  C   UNL     1      40.960 -15.432  -1.676  1.00  0.00     0.030 A 
BRANCH  18  21
HETATM   21  C   UNL     1      38.214 -14.839  -4.285  1.00  0.00     0.147 C 
HETATM   22  C   UNL     1      36.724 -14.832  -3.965  1.00  0.00     0.044 C 
BRANCH  21  23
HETATM   23  O   UNL     1      38.528 -16.022  -5.018  1.00  0.00    -0.391 OA
HETATM   24  H   UNL     1      39.403 -16.318  -4.716  1.00  0.00     0.210 HD
ENDBRANCH  21  23
ENDBRANCH  18  21
ENDBRANCH  12  15
ENDBRANCH   1  11
BRANCH   4  25
HETATM   25  C   UNL     1      44.097 -14.693   6.796  1.00  0.00     0.409 C 
HETATM   26  F   UNL     1      44.006 -15.066   8.093  1.00  0.00    -0.169 F 
HETATM   27  F   UNL     1      45.382 -14.289   6.602  1.00  0.00    -0.169 F 
HETATM   28  F   UNL     1      43.330 -13.598   6.618  1.00  0.00    -0.169 F 
ENDBRANCH   4  25
BRANCH   6  29
HETATM   29  C   UNL     1      43.158 -18.728   4.960  1.00  0.00     0.075 A 
HETATM   30  O   UNL     1      43.763 -19.555   5.864  1.00  0.00    -0.325 OA
HETATM   31  C   UNL     1      44.641 -20.327   5.173  1.00  0.00     0.142 A 
HETATM   32  C   UNL     1      44.608 -20.014   3.835  1.00  0.00     0.027 A 
HETATM   33  C   UNL     1      43.648 -18.984   3.695  1.00  0.00     0.037 A 
ENDBRANCH   6  29
TORSDOF 6
ENDMDL
MODEL 3
REMARK VINA RESULT:      -8.3      2.556      3.891
REMARK  6 active torsions:
REMARK  status: ('A' for Active; 'I' for Inactive)
REMARK    1  A    between atoms: C_2  and  O_3 
REMARK    2  A    between atoms: C_2  and  C_4 
REMARK    3  A    between atoms: C_7  and  N_8 
REMARK       I    between atoms: N_8  and  C_9 
REMARK    4  A    between atoms: C_9  and  C_10 
REMARK    5  A    between atoms: C_13  and  C_14 
REMARK    6  A    between atoms: C_19  and  C_20 
ROOT
HETATM    1  C   UNL     1      40.997 -15.629   0.674  1.00  0.00     0.096 C 
HETATM    2  C   UNL     1      39.824 -14.922   0.492  1.00  0.00     0.138 C 
HETATM    3  N   UNL     1      40.053 -14.080  -0.574  1.00  0.00    -0.240 N 
HETATM    4  C   UNL     1      39.091 -13.121  -1.091  1.00  0.00     0.221 C 
HETATM    5  C   UNL     1      37.690 -13.393  -0.508  1.00  0.00     0.068 C 
HETATM    6  C   UNL     1      37.762 -13.723   0.989  1.00  0.00     0.143 C 
HETATM    7  N   UNL     1      38.632 -14.906   1.155  1.00  0.00    -0.363 N 
HETATM    8  N   UNL     1      41.334 -14.068  -0.975  1.00  0.00    -0.181 NA
HETATM    9  C   UNL     1      41.898 -15.027  -0.238  1.00  0.00     0.160 C 
HETATM   10  H   UNL     1      38.620 -15.242   2.121  1.00  0.00     0.162 HD
ENDROOT
BRANCH   1  11
HETATM   11  C   UNL     1      41.301 -16.704   1.602  1.00  0.00     0.261 C 
HETATM   12  N   UNL     1      42.567 -17.234   1.433  1.00  0.00    -0.323 N 
HETATM   13  H   UNL     1      43.154 -16.753   0.760  1.00  0.00     0.169 HD
HETATM   14  O   UNL     1      40.490 -17.025   2.463  1.00  0.00    -0.267 OA
BRANCH  12  15
HETATM   15  C   UNL     1      43.180 -18.245   2.199  1.00  0.00     0.035 A 
HETATM   16  C   UNL     1      43.400 -19.543   1.739  1.00  0.00     0.030 A 
HETATM   17  C   UNL     1      43.987 -20.504   2.572  1.00  0.00     0.012 A 
HETATM   18  C   UNL     1      44.368 -20.187   3.882  1.00  0.00    -0.030 A 
HETATM   19  C   UNL     1      44.158 -18.879   4.335  1.00  0.00     0.012 A 
HETATM   20  C   UNL     1      43.580 -17.916   3.500  1.00  0.00     0.030 A 
BRANCH  18  21
HETATM   21  C   UNL     1      44.943 -21.264   4.777  1.00  0.00     0.147 C 
HETATM   22  C   UNL     1      44.721 -22.651   4.186  1.00  0.00     0.044 C 
BRANCH  21  23
HETATM   23  O   UNL     1      44.346 -21.208   6.072  1.00  0.00    -0.391 OA
HETATM   24  H   UNL     1      43.967 -20.318   6.171  1.00  0.00     0.210 HD
ENDBRANCH  21  23
ENDBRANCH  18  21
ENDBRANCH  12  15
ENDBRANCH   1  11
BRANCH   4  25
HETATM   25  C   UNL     1      39.025 -13.163  -2.601  1.00  0.00     0.409 C 
HETATM   26  F   UNL     1      39.136 -14.422  -3.085  1.00  0.00    -0.169 F 
HETATM   27  F   UNL     1      37.818 -12.696  -3.020  1.00  0.00    -0.169 F 
HETATM   28  F   UNL     1      39.953 -12.396  -3.208  1.00  0.00    -0.169 F 
ENDBRANCH   4  25
BRANCH   6  29
HETATM   29  C   UNL     1      38.156 -12.523   1.800  1.00  0.00     0.075 A 
HETATM   30  O   UNL     1      37.405 -11.396   1.615  1.00  0.00    -0.325 OA
HETATM   31  C   UNL     1      37.933 -10.430   2.410  1.00  0.00     0.142 A 
HETATM   32  C   UNL     1      39.010 -10.918   3.110  1.00  0.00     0.027 A 
HETATM   33  C   UNL     1      39.154 -12.270   2.720  1.00  0.00     0.037 A 
ENDBRANCH   6  29
TORSDOF 6
ENDMDL
MODEL 4
REMARK VINA RESULT:      -8.0      2.570      3.945
REMARK  6 active torsions:
REMARK  status: ('A' for Active; 'I' for Inactive)
REMARK    1  A    between atoms: C_2  and  O_3 
REMARK    2  A    between atoms: C_2  and  C_4 
REMARK    3  A    between atoms: C_7  and  N_8 
REMARK       I    between atoms: N_8  and  C_9 
REMARK    4  A    between atoms: C_9  and  C_10 
REMARK    5  A    between atoms: C_13  and  C_14 
REMARK    6  A    between atoms: C_19  and  C_20 
ROOT
HETATM    1  C   UNL     1      41.461 -15.208   0.128  1.00  0.00     0.096 C 
HETATM    2  C   UNL     1      40.860 -13.977  -0.057  1.00  0.00     0.138 C 
HETATM    3  N   UNL     1      40.239 -14.043  -1.285  1.00  0.00    -0.240 N 
HETATM    4  C   UNL     1      39.510 -12.946  -1.901  1.00  0.00     0.221 C 
HETATM    5  C   UNL     1      39.250 -11.826  -0.876  1.00  0.00     0.068 C 
HETATM    6  C   UNL     1      40.486 -11.571  -0.001  1.00  0.00     0.143 C 
HETATM    7  N   UNL     1      40.828 -12.833   0.685  1.00  0.00    -0.363 N 
HETATM    8  N   UNL     1      40.542 -15.153  -1.974  1.00  0.00    -0.181 NA
HETATM    9  C   UNL     1      41.258 -15.871  -1.106  1.00  0.00     0.160 C 
HETATM   10  H   UNL     1      41.572 -12.691   1.373  1.00  0.00     0.162 HD
ENDROOT
BRANCH   1  11
HETATM   11  C   UNL     1      42.186 -15.726   1.276  1.00  0.00     0.261 C 
HETATM   12  N   UNL     1      42.195 -17.107   1.341  1.00  0.00    -0.323 N 
HETATM   13  H   UNL     1      41.786 -17.584   0.544  1.00  0.00     0.169 HD
HETATM   14  O   UNL     1      42.757 -14.960   2.043  1.00  0.00    -0.267 OA
BRANCH  12  15
HETATM   15  C   UNL     1      42.848 -17.913   2.295  1.00  0.00     0.035 A 
HETATM   16  C   UNL     1      43.825 -18.856   1.977  1.00  0.00     0.030 A 
HETATM   17  C   UNL     1      44.406 -19.644   2.978  1.00  0.00     0.012 A 
HETATM   18  C   UNL     1      44.024 -19.506   4.318  1.00  0.00    -0.030 A 
HETATM   19  C   UNL     1      43.052 -18.548   4.634  1.00  0.00     0.012 A 
HETATM   20  C   UNL     1      42.478 -17.754   3.635  1.00  0.00     0.030 A 
BRANCH  18  21
HETATM   21  C   UNL     1      44.626 -20.415   5.368  1.00  0.00     0.147 C 
HETATM   22  C   UNL     1      44.822 -21.828   4.830  1.00  0.00     0.044 C 
BRANCH  21  23
HETATM   23  O   UNL     1      43.788 -20.468   6.522  1.00  0.00    -0.391 OA
HETATM   24  H   UNL     1      44.088 -19.763   7.121  1.00  0.00     0.210 HD
ENDBRANCH  21  23
ENDBRANCH  18  21
ENDBRANCH  12  15
ENDBRANCH   1  11
BRANCH   4  25
HETATM   25  C   UNL     1      38.194 -13.415  -2.481  1.00  0.00     0.409 C 
HETATM   26  F   UNL     1      37.596 -14.350  -1.707  1.00  0.00    -0.169 F 
HETATM   27  F   UNL     1      37.329 -12.367  -2.555  1.00  0.00    -0.169 F 
HETATM   28  F   UNL     1      38.295 -13.905  -3.733  1.00  0.00    -0.169 F 
ENDBRANCH   4  25
BRANCH   6  29
HETATM   29  C   UNL     1      41.602 -10.951  -0.791  1.00  0.00     0.075 A 
HETATM   30  O   UNL     1      42.865 -11.143  -0.305  1.00  0.00    -0.325 OA
HETATM   31  C   UNL     1      43.716 -10.490  -1.138  1.00  0.00     0.142 A 
HETATM   32  C   UNL     1      43.021  -9.883  -2.156  1.00  0.00     0.027 A 
HETATM   33  C   UNL     1      41.656 -10.182  -1.936  1.00  0.00     0.037 A 
ENDBRANCH   6  29
TORSDOF 6
ENDMDL
MODEL 5
REMARK VINA RESULT:      -8.0      3.902      9.100
REMARK  6 active torsions:
REMARK  status: ('A' for Active; 'I' for Inactive)
REMARK    1  A    between atoms: C_2  and  O_3 
REMARK    2  A    between atoms: C_2  and  C_4 
REMARK    3  A    between atoms: C_7  and  N_8 
REMARK       I    between atoms: N_8  and  C_9 
REMARK    4  A    between atoms: C_9  and  C_10 
REMARK    5  A    between atoms: C_13  and  C_14 
REMARK    6  A    between atoms: C_19  and  C_20 
ROOT
HETATM    1  C   UNL     1      41.920 -15.542   0.665  1.00  0.00     0.096 C 
HETATM    2  C   UNL     1      42.543 -16.066   1.782  1.00  0.00     0.138 C 
HETATM    3  N   UNL     1      42.275 -17.417   1.761  1.00  0.00    -0.240 N 
HETATM    4  C   UNL     1      42.710 -18.361   2.778  1.00  0.00     0.221 C 
HETATM    5  C   UNL     1      43.768 -17.718   3.696  1.00  0.00     0.068 C 
HETATM    6  C   UNL     1      43.391 -16.274   4.056  1.00  0.00     0.143 C 
HETATM    7  N   UNL     1      43.260 -15.509   2.799  1.00  0.00    -0.363 N 
HETATM    8  N   UNL     1      41.387 -17.769   0.818  1.00  0.00    -0.181 NA
HETATM    9  C   UNL     1      41.195 -16.637   0.137  1.00  0.00     0.160 C 
HETATM   10  H   UNL     1      43.127 -14.512   2.985  1.00  0.00     0.162 HD
ENDROOT
BRANCH   1  11
HETATM   11  C   UNL     1      41.931 -14.185   0.146  1.00  0.00     0.261 C 
HETATM   12  N   UNL     1      42.233 -14.116  -1.201  1.00  0.00    -0.323 N 
HETATM   13  H   UNL     1      42.313 -15.009  -1.676  1.00  0.00     0.169 HD
HETATM   14  O   UNL     1      41.638 -13.243   0.872  1.00  0.00    -0.267 OA
BRANCH  12  15
HETATM   15  C   UNL     1      42.275 -12.962  -2.010  1.00  0.00     0.035 A 
HETATM   16  C   UNL     1      42.904 -11.775  -1.638  1.00  0.00     0.030 A 
HETATM   17  C   UNL     1      42.876 -10.659  -2.484  1.00  0.00     0.012 A 
HETATM   18  C   UNL     1      42.219 -10.707  -3.720  1.00  0.00    -0.030 A 
HETATM   19  C   UNL     1      41.601 -11.906  -4.096  1.00  0.00     0.012 A 
HETATM   20  C   UNL     1      41.638 -13.025  -3.255  1.00  0.00     0.030 A 
BRANCH  18  21
HETATM   21  C   UNL     1      42.153  -9.466  -4.584  1.00  0.00     0.147 C 
HETATM   22  C   UNL     1      40.727  -9.187  -5.044  1.00  0.00     0.044 C 
BRANCH  21  23
HETATM   23  O   UNL     1      42.993  -9.609  -5.728  1.00  0.00    -0.391 OA
HETATM   24  H   UNL     1      42.512  -9.227  -6.482  1.00  0.00     0.210 HD
ENDBRANCH  21  23
ENDBRANCH  18  21
ENDBRANCH  12  15
ENDBRANCH   1  11
BRANCH   4  25
HETATM   25  C   UNL     1      43.278 -19.619   2.158  1.00  0.00     0.409 C 
HETATM   26  F   UNL     1      44.065 -19.353   1.089  1.00  0.00    -0.169 F 
HETATM   27  F   UNL     1      44.065 -20.260   3.064  1.00  0.00    -0.169 F 
HETATM   28  F   UNL     1      42.341 -20.511   1.779  1.00  0.00    -0.169 F 
ENDBRANCH   4  25
BRANCH   6  29
HETATM   29  C   UNL     1      42.194 -16.226   4.961  1.00  0.00     0.075 A 
HETATM   30  O   UNL     1      41.487 -15.056   4.966  1.00  0.00    -0.325 OA
HETATM   31  C   UNL     1      40.473 -15.207   5.856  1.00  0.00     0.142 A 
HETATM   32  C   UNL     1      40.511 -16.459   6.422  1.00  0.00     0.027 A 
HETATM   33  C   UNL     1      41.620 -17.120   5.842  1.00  0.00     0.037 A 
ENDBRANCH   6  29
TORSDOF 6
ENDMDL
MODEL 6
REMARK VINA RESULT:      -7.9      3.100      8.783
REMARK  6 active torsions:
REMARK  status: ('A' for Active; 'I' for Inactive)
REMARK    1  A    between atoms: C_2  and  O_3 
REMARK    2  A    between atoms: C_2  and  C_4 
REMARK    3  A    between atoms: C_7  and  N_8 
REMARK       I    between atoms: N_8  and  C_9 
REMARK    4  A    between atoms: C_9  and  C_10 
REMARK    5  A    between atoms: C_13  and  C_14 
REMARK    6  A    between atoms: C_19  and  C_20 
ROOT
HETATM    1  C   UNL     1      41.010 -13.938   0.118  1.00  0.00     0.096 C 
HETATM    2  C   UNL     1      40.900 -14.758   1.224  1.00  0.00     0.138 C 
HETATM    3  N   UNL     1      41.640 -14.154   2.216  1.00  0.00    -0.240 N 
HETATM    4  C   UNL     1      41.833 -14.697   3.551  1.00  0.00     0.221 C 
HETATM    5  C   UNL     1      40.851 -15.856   3.810  1.00  0.00     0.068 C 
HETATM    6  C   UNL     1      40.732 -16.772   2.585  1.00  0.00     0.143 C 
HETATM    7  N   UNL     1      40.278 -15.952   1.443  1.00  0.00    -0.363 N 
HETATM    8  N   UNL     1      42.356 -13.105   1.780  1.00  0.00    -0.181 NA
HETATM    9  C   UNL     1      41.950 -12.958   0.516  1.00  0.00     0.160 C 
HETATM   10  H   UNL     1      40.067 -16.535   0.629  1.00  0.00     0.162 HD
ENDROOT
BRANCH   1  11
HETATM   11  C   UNL     1      40.374 -14.042  -1.184  1.00  0.00     0.261 C 
HETATM   12  N   UNL     1      39.014 -13.798  -1.153  1.00  0.00    -0.323 N 
HETATM   13  H   UNL     1      38.648 -13.485  -0.259  1.00  0.00     0.169 HD
HETATM   14  O   UNL     1      41.046 -14.274  -2.183  1.00  0.00    -0.267 OA
BRANCH  12  15
HETATM   15  C   UNL     1      38.124 -13.771  -2.245  1.00  0.00     0.035 A 
HETATM   16  C   UNL     1      37.815 -14.887  -3.022  1.00  0.00     0.030 A 
HETATM   17  C   UNL     1      36.944 -14.776  -4.114  1.00  0.00     0.012 A 
HETATM   18  C   UNL     1      36.364 -13.546  -4.450  1.00  0.00    -0.030 A 
HETATM   19  C   UNL     1      36.666 -12.432  -3.658  1.00  0.00     0.012 A 
HETATM   20  C   UNL     1      37.529 -12.545  -2.562  1.00  0.00     0.030 A 
BRANCH  18  21
HETATM   21  C   UNL     1      35.476 -13.445  -5.672  1.00  0.00     0.147 C 
HETATM   22  C   UNL     1      34.388 -12.395  -5.480  1.00  0.00     0.044 C 
BRANCH  21  23
HETATM   23  O   UNL     1      34.865 -14.704  -5.951  1.00  0.00    -0.391 OA
HETATM   24  H   UNL     1      34.644 -15.107  -5.094  1.00  0.00     0.210 HD
ENDBRANCH  21  23
ENDBRANCH  18  21
ENDBRANCH  12  15
ENDBRANCH   1  11
BRANCH   4  25
HETATM   25  C   UNL     1      41.651 -13.634   4.611  1.00  0.00     0.409 C 
HETATM   26  F   UNL     1      42.753 -12.863   4.760  1.00  0.00    -0.169 F 
HETATM   27  F   UNL     1      40.642 -12.796   4.250  1.00  0.00    -0.169 F 
HETATM   28  F   UNL     1      41.314 -14.125   5.821  1.00  0.00    -0.169 F 
ENDBRANCH   4  25
BRANCH   6  29
HETATM   29  C   UNL     1      41.996 -17.547   2.351  1.00  0.00     0.075 A 
HETATM   30  O   UNL     1      42.431 -18.321   3.390  1.00  0.00    -0.325 OA
HETATM   31  C   UNL     1      43.587 -18.912   2.991  1.00  0.00     0.142 A 
HETATM   32  C   UNL     1      43.902 -18.534   1.709  1.00  0.00     0.027 A 
HETATM   33  C   UNL     1      42.875 -17.655   1.292  1.00  0.00     0.037 A 
ENDBRANCH   6  29
TORSDOF 6
ENDMDL
MODEL 7
REMARK VINA RESULT:      -7.9      3.204      8.630
REMARK  6 active torsions:
REMARK  status: ('A' for Active; 'I' for Inactive)
REMARK    1  A    between atoms: C_2  and  O_3 
REMARK    2  A    between atoms: C_2  and  C_4 
REMARK    3  A    between atoms: C_7  and  N_8 
REMARK       I    between atoms: N_8  and  C_9 
REMARK    4  A    between atoms: C_9  and  C_10 
REMARK    5  A    between atoms: C_13  and  C_14 
REMARK    6  A    between atoms: C_19  and  C_20 
ROOT
HETATM    1  C   UNL     1      40.695 -14.265   1.514  1.00  0.00     0.096 C 
HETATM    2  C   UNL     1      41.010 -15.067   2.595  1.00  0.00     0.138 C 
HETATM    3  N   UNL     1      42.181 -14.559   3.111  1.00  0.00    -0.240 N 
HETATM    4  C   UNL     1      42.898 -15.122   4.244  1.00  0.00     0.221 C 
HETATM    5  C   UNL     1      42.019 -16.151   4.982  1.00  0.00     0.068 C 
HETATM    6  C   UNL     1      41.258 -17.046   3.994  1.00  0.00     0.143 C 
HETATM    7  N   UNL     1      40.428 -16.176   3.135  1.00  0.00    -0.363 N 
HETATM    8  N   UNL     1      42.731 -13.606   2.343  1.00  0.00    -0.181 NA
HETATM    9  C   UNL     1      41.815 -13.409   1.391  1.00  0.00     0.160 C 
HETATM   10  H   UNL     1      39.809 -16.728   2.537  1.00  0.00     0.162 HD
ENDROOT
BRANCH   1  11
HETATM   11  C   UNL     1      39.531 -14.291   0.645  1.00  0.00     0.261 C 
HETATM   12  N   UNL     1      39.798 -13.869  -0.643  1.00  0.00    -0.323 N 
HETATM   13  H   UNL     1      40.775 -13.689  -0.849  1.00  0.00     0.169 HD
HETATM   14  O   UNL     1      38.457 -14.709   1.062  1.00  0.00    -0.267 OA
BRANCH  12  15
HETATM   15  C   UNL     1      38.904 -13.824  -1.732  1.00  0.00     0.035 A 
HETATM   16  C   UNL     1      38.003 -12.783  -1.954  1.00  0.00     0.030 A 
HETATM   17  C   UNL     1      37.122 -12.824  -3.042  1.00  0.00     0.012 A 
HETATM   18  C   UNL     1      37.124 -13.907  -3.931  1.00  0.00    -0.030 A 
HETATM   19  C   UNL     1      38.040 -14.942  -3.712  1.00  0.00     0.012 A 
HETATM   20  C   UNL     1      38.928 -14.897  -2.630  1.00  0.00     0.030 A 
BRANCH  18  21
HETATM   21  C   UNL     1      36.118 -13.951  -5.061  1.00  0.00     0.147 C 
HETATM   22  C   UNL     1      35.637 -12.552  -5.429  1.00  0.00     0.044 C 
BRANCH  21  23
HETATM   23  O   UNL     1      34.993 -14.750  -4.697  1.00  0.00    -0.391 OA
HETATM   24  H   UNL     1      34.921 -14.711  -3.728  1.00  0.00     0.210 HD
ENDBRANCH  21  23
ENDBRANCH  18  21
ENDBRANCH  12  15
ENDBRANCH   1  11
BRANCH   4  25
HETATM   25  C   UNL     1      43.334 -14.045   5.212  1.00  0.00     0.409 C 
HETATM   26  F   UNL     1      43.317 -14.472   6.496  1.00  0.00    -0.169 F 
HETATM   27  F   UNL     1      44.619 -13.684   4.945  1.00  0.00    -0.169 F 
HETATM   28  F   UNL     1      42.604 -12.914   5.134  1.00  0.00    -0.169 F 
ENDBRANCH   4  25
BRANCH   6  29
HETATM   29  C   UNL     1      42.185 -17.970   3.259  1.00  0.00     0.075 A 
HETATM   30  O   UNL     1      43.056 -18.689   4.028  1.00  0.00    -0.325 OA
HETATM   31  C   UNL     1      43.814 -19.434   3.183  1.00  0.00     0.142 A 
HETATM   32  C   UNL     1      43.442 -19.210   1.880  1.00  0.00     0.027 A 
HETATM   33  C   UNL     1      42.388 -18.268   1.926  1.00  0.00     0.037 A 
ENDBRANCH   6  29
TORSDOF 6
ENDMDL
MODEL 8
REMARK VINA RESULT:      -7.9      2.183      2.622
REMARK  6 active torsions:
REMARK  status: ('A' for Active; 'I' for Inactive)
REMARK    1  A    between atoms: C_2  and  O_3 
REMARK    2  A    between atoms: C_2  and  C_4 
REMARK    3  A    between atoms: C_7  and  N_8 
REMARK       I    between atoms: N_8  and  C_9 
REMARK    4  A    between atoms: C_9  and  C_10 
REMARK    5  A    between atoms: C_13  and  C_14 
REMARK    6  A    between atoms: C_19  and  C_20 
ROOT
HETATM    1  C   UNL     1      41.353 -14.445   0.159  1.00  0.00     0.096 C 
HETATM    2  C   UNL     1      40.360 -14.108  -0.741  1.00  0.00     0.138 C 
HETATM    3  N   UNL     1      40.796 -12.964  -1.372  1.00  0.00    -0.240 N 
HETATM    4  C   UNL     1      40.041 -12.236  -2.379  1.00  0.00     0.221 C 
HETATM    5  C   UNL     1      38.850 -13.079  -2.875  1.00  0.00     0.068 C 
HETATM    6  C   UNL     1      38.148 -13.794  -1.712  1.00  0.00     0.143 C 
HETATM    7  N   UNL     1      39.143 -14.649  -1.034  1.00  0.00    -0.363 N 
HETATM    8  N   UNL     1      41.907 -12.446  -0.824  1.00  0.00    -0.181 NA
HETATM    9  C   UNL     1      42.259 -13.359   0.084  1.00  0.00     0.160 C 
HETATM   10  H   UNL     1      38.702 -15.240  -0.325  1.00  0.00     0.162 HD
ENDROOT
BRANCH   1  11
HETATM   11  C   UNL     1      41.462 -15.598   1.035  1.00  0.00     0.261 C 
HETATM   12  N   UNL     1      42.768 -15.974   1.288  1.00  0.00    -0.323 N 
HETATM   13  H   UNL     1      43.480 -15.353   0.917  1.00  0.00     0.169 HD
HETATM   14  O   UNL     1      40.456 -16.108   1.514  1.00  0.00    -0.267 OA
BRANCH  12  15
HETATM   15  C   UNL     1      43.211 -17.013   2.131  1.00  0.00     0.035 A 
HETATM   16  C   UNL     1      43.331 -16.893   3.515  1.00  0.00     0.030 A 
HETATM   17  C   UNL     1      43.810 -17.962   4.283  1.00  0.00     0.012 A 
HETATM   18  C   UNL     1      44.178 -19.173   3.684  1.00  0.00    -0.030 A 
HETATM   19  C   UNL     1      44.043 -19.294   2.296  1.00  0.00     0.012 A 
HETATM   20  C   UNL     1      43.555 -18.229   1.528  1.00  0.00     0.030 A 
BRANCH  18  21
HETATM   21  C   UNL     1      44.751 -20.287   4.534  1.00  0.00     0.147 C 
HETATM   22  C   UNL     1      44.622 -21.637   3.837  1.00  0.00     0.044 C 
BRANCH  21  23
HETATM   23  O   UNL     1      44.083 -20.347   5.794  1.00  0.00    -0.391 OA
HETATM   24  H   UNL     1      44.772 -20.353   6.479  1.00  0.00     0.210 HD
ENDBRANCH  21  23
ENDBRANCH  18  21
ENDBRANCH  12  15
ENDBRANCH   1  11
BRANCH   4  25
HETATM   25  C   UNL     1      40.913 -11.853  -3.554  1.00  0.00     0.409 C 
HETATM   26  F   UNL     1      41.742 -10.824  -3.264  1.00  0.00    -0.169 F 
HETATM   27  F   UNL     1      41.709 -12.903  -3.893  1.00  0.00    -0.169 F 
HETATM   28  F   UNL     1      40.219 -11.536  -4.665  1.00  0.00    -0.169 F 
ENDBRANCH   4  25
BRANCH   6  29
HETATM   29  C   UNL     1      37.429 -12.822  -0.821  1.00  0.00     0.075 A 
HETATM   30  O   UNL     1      36.791 -11.788  -1.446  1.00  0.00    -0.325 OA
HETATM   31  C   UNL     1      36.233 -11.019  -0.476  1.00  0.00     0.142 A 
HETATM   32  C   UNL     1      36.497 -11.545   0.766  1.00  0.00     0.027 A 
HETATM   33  C   UNL     1      37.267 -12.711   0.545  1.00  0.00     0.037 A 
ENDBRANCH   6  29
TORSDOF 6
ENDMDL
MODEL 9
REMARK VINA RESULT:      -7.6      4.476      5.400
REMARK  6 active torsions:
REMARK  status: ('A' for Active; 'I' for Inactive)
REMARK    1  A    between atoms: C_2  and  O_3 
REMARK    2  A    between atoms: C_2  and  C_4 
REMARK    3  A    between atoms: C_7  and  N_8 
REMARK       I    between atoms: N_8  and  C_9 
REMARK    4  A    between atoms: C_9  and  C_10 
REMARK    5  A    between atoms: C_13  and  C_14 
REMARK    6  A    between atoms: C_19  and  C_20 
ROOT
HETATM    1  C   UNL     1      41.951 -13.860   4.412  1.00  0.00     0.096 C 
HETATM    2  C   UNL     1      41.566 -12.633   3.906  1.00  0.00     0.138 C 
HETATM    3  N   UNL     1      40.868 -12.011   4.918  1.00  0.00    -0.240 N 
HETATM    4  C   UNL     1      40.243 -10.703   4.808  1.00  0.00     0.221 C 
HETATM    5  C   UNL     1      40.733  -9.975   3.541  1.00  0.00     0.068 C 
HETATM    6  C   UNL     1      40.805 -10.929   2.341  1.00  0.00     0.143 C 
HETATM    7  N   UNL     1      41.719 -12.035   2.690  1.00  0.00    -0.363 N 
HETATM    8  N   UNL     1      40.626 -12.813   5.967  1.00  0.00    -0.181 NA
HETATM    9  C   UNL     1      41.308 -13.923   5.672  1.00  0.00     0.160 C 
HETATM   10  H   UNL     1      41.897 -12.637   1.883  1.00  0.00     0.162 HD
ENDROOT
BRANCH   1  11
HETATM   11  C   UNL     1      42.774 -14.896   3.813  1.00  0.00     0.261 C 
HETATM   12  N   UNL     1      42.440 -16.171   4.230  1.00  0.00    -0.323 N 
HETATM   13  H   UNL     1      41.616 -16.236   4.818  1.00  0.00     0.169 HD
HETATM   14  O   UNL     1      43.627 -14.606   2.983  1.00  0.00    -0.267 OA
BRANCH  12  15
HETATM   15  C   UNL     1      43.009 -17.387   3.802  1.00  0.00     0.035 A 
HETATM   16  C   UNL     1      42.955 -17.850   2.487  1.00  0.00     0.030 A 
HETATM   17  C   UNL     1      43.516 -19.086   2.144  1.00  0.00     0.012 A 
HETATM   18  C   UNL     1      44.144 -19.886   3.107  1.00  0.00    -0.030 A 
HETATM   19  C   UNL     1      44.208 -19.411   4.423  1.00  0.00     0.012 A 
HETATM   20  C   UNL     1      43.656 -18.171   4.764  1.00  0.00     0.030 A 
BRANCH  18  21
HETATM   21  C   UNL     1      44.686 -21.244   2.717  1.00  0.00     0.147 C 
HETATM   22  C   UNL     1      43.857 -21.871   1.602  1.00  0.00     0.044 C 
BRANCH  21  23
HETATM   23  O   UNL     1      44.694 -22.121   3.843  1.00  0.00    -0.391 OA
HETATM   24  H   UNL     1      44.838 -23.019   3.500  1.00  0.00     0.210 HD
ENDBRANCH  21  23
ENDBRANCH  18  21
ENDBRANCH  12  15
ENDBRANCH   1  11
BRANCH   4  25
HETATM   25  C   UNL     1      40.530  -9.850   6.024  1.00  0.00     0.409 C 
HETATM   26  F   UNL     1      39.722 -10.153   7.065  1.00  0.00    -0.169 F 
HETATM   27  F   UNL     1      41.804 -10.073   6.448  1.00  0.00    -0.169 F 
HETATM   28  F   UNL     1      40.441  -8.525   5.792  1.00  0.00    -0.169 F 
ENDBRANCH   4  25
BRANCH   6  29
HETATM   29  C   UNL     1      39.437 -11.350   1.889  1.00  0.00     0.075 A 
HETATM   30  O   UNL     1      39.312 -12.643   1.466  1.00  0.00    -0.325 OA
HETATM   31  C   UNL     1      38.021 -12.813   1.080  1.00  0.00     0.142 A 
HETATM   32  C   UNL     1      37.310 -11.651   1.253  1.00  0.00     0.027 A 
HETATM   33  C   UNL     1      38.221 -10.705   1.778  1.00  0.00     0.037 A 
ENDBRANCH   6  29
TORSDOF 6
ENDMDL
MODEL 10
REMARK VINA RESULT:      -7.6      5.265      9.153
REMARK  6 active torsions:
REMARK  status: ('A' for Active; 'I' for Inactive)
REMARK    1  A    between atoms: C_2  and  O_3 
REMARK    2  A    between atoms: C_2  and  C_4 
REMARK    3  A    between atoms: C_7  and  N_8 
REMARK       I    between atoms: N_8  and  C_9 
REMARK    4  A    between atoms: C_9  and  C_10 
REMARK    5  A    between atoms: C_13  and  C_14 
REMARK    6  A    between atoms: C_19  and  C_20 
ROOT
HETATM    1  C   UNL     1      41.382 -14.492   5.053  1.00  0.00     0.096 C 
HETATM    2  C   UNL     1      41.613 -15.854   5.012  1.00  0.00     0.138 C 
HETATM    3  N   UNL     1      42.813 -16.051   5.659  1.00  0.00    -0.240 N 
HETATM    4  C   UNL     1      43.464 -17.341   5.820  1.00  0.00     0.221 C 
HETATM    5  C   UNL     1      42.493 -18.484   5.462  1.00  0.00     0.068 C 
HETATM    6  C   UNL     1      41.678 -18.151   4.205  1.00  0.00     0.143 C 
HETATM    7  N   UNL     1      40.935 -16.900   4.459  1.00  0.00    -0.363 N 
HETATM    8  N   UNL     1      43.451 -14.907   5.956  1.00  0.00    -0.181 NA
HETATM    9  C   UNL     1      42.570 -13.964   5.614  1.00  0.00     0.160 C 
HETATM   10  H   UNL     1      40.283 -16.695   3.698  1.00  0.00     0.162 HD
ENDROOT
BRANCH   1  11
HETATM   11  C   UNL     1      40.234 -13.730   4.594  1.00  0.00     0.261 C 
HETATM   12  N   UNL     1      40.129 -13.673   3.217  1.00  0.00    -0.323 N 
HETATM   13  H   UNL     1      40.797 -14.240   2.705  1.00  0.00     0.169 HD
HETATM   14  O   UNL     1      39.444 -13.255   5.401  1.00  0.00    -0.267 OA
BRANCH  12  15
HETATM   15  C   UNL     1      39.109 -13.059   2.461  1.00  0.00     0.035 A 
HETATM   16  C   UNL     1      38.721 -11.729   2.617  1.00  0.00     0.030 A 
HETATM   17  C   UNL     1      37.676 -11.198   1.850  1.00  0.00     0.012 A 
HETATM   18  C   UNL     1      36.998 -11.986   0.911  1.00  0.00    -0.030 A 
HETATM   19  C   UNL     1      37.401 -13.317   0.748  1.00  0.00     0.012 A 
HETATM   20  C   UNL     1      38.452 -13.845   1.508  1.00  0.00     0.030 A 
BRANCH  18  21
HETATM   21  C   UNL     1      35.832 -11.401   0.143  1.00  0.00     0.147 C 
HETATM   22  C   UNL     1      36.215 -10.084  -0.524  1.00  0.00     0.044 C 
BRANCH  21  23
HETATM   23  O   UNL     1      34.722 -11.179   1.011  1.00  0.00    -0.391 OA
HETATM   24  H   UNL     1      34.635 -10.216   1.118  1.00  0.00     0.210 HD
ENDBRANCH  21  23
ENDBRANCH  18  21
ENDBRANCH  12  15
ENDBRANCH   1  11
BRANCH   4  25
HETATM   25  C   UNL     1      43.970 -17.533   7.232  1.00  0.00     0.409 C 
HETATM   26  F   UNL     1      43.324 -16.744   8.120  1.00  0.00    -0.169 F 
HETATM   27  F   UNL     1      43.748 -18.816   7.626  1.00  0.00    -0.169 F 
HETATM   28  F   UNL     1      45.295 -17.324   7.368  1.00  0.00    -0.169 F 
ENDBRANCH   4  25
BRANCH   6  29
HETATM   29  C   UNL     1      42.539 -18.143   2.975  1.00  0.00     0.075 A 
HETATM   30  O   UNL     1      42.215 -17.225   2.016  1.00  0.00    -0.325 OA
HETATM   31  C   UNL     1      43.086 -17.397   0.989  1.00  0.00     0.142 A 
HETATM   32  C   UNL     1      43.971 -18.409   1.273  1.00  0.00     0.027 A 
HETATM   33  C   UNL     1      43.621 -18.891   2.556  1.00  0.00     0.037 A 
ENDBRANCH   6  29
TORSDOF 6
ENDMDL
