MODEL 1
REMARK VINA RESULT:      -9.3      0.000      0.000
REMARK  2 active torsions:
REMARK  status: ('A' for Active; 'I' for Inactive)
REMARK    1  A    between atoms: C_4  and  C_5 
REMARK    2  A    between atoms: C_11  and  C_12 
ROOT
HETATM    1  C   UNL     1      41.677 -16.601   4.713  1.00  0.00     0.098 A 
HETATM    2  N   UNL     1      40.525 -16.489   5.407  1.00  0.00    -0.172 NA
HETATM    3  N   UNL     1      40.831 -16.867   6.656  1.00  0.00    -0.261 N 
HETATM    4  H   UNL     1      40.096 -16.866   7.354  1.00  0.00     0.191 HD
HETATM    5  C   UNL     1      42.132 -17.225   6.791  1.00  0.00     0.133 A 
HETATM    6  C   UNL     1      42.728 -17.053   5.568  1.00  0.00     0.028 A 
HETATM    7  C   UNL     1      44.161 -17.393   5.367  1.00  0.00     0.067 C 
HETATM    8  C   UNL     1      44.900 -17.546   6.709  1.00  0.00     0.117 C 
HETATM    9  C   UNL     1      44.063 -18.057   7.879  1.00  0.00     0.224 C 
HETATM   10  O   UNL     1      44.578 -18.643   8.831  1.00  0.00    -0.273 OA
HETATM   11  N   UNL     1      42.729 -17.729   7.913  1.00  0.00    -0.312 N 
HETATM   12  H   UNL     1      42.211 -17.979   8.747  1.00  0.00     0.170 HD
ENDROOT
BRANCH   7  13
HETATM   13  C   UNL     1      44.253 -18.644   4.506  1.00  0.00    -0.046 A 
HETATM   14  C   UNL     1      44.557 -19.863   5.149  1.00  0.00     0.047 A 
HETATM   15  C   UNL     1      44.604 -21.017   4.396  1.00  0.00     0.105 A 
HETATM   16  C   UNL     1      44.367 -21.010   3.044  1.00  0.00     0.105 A 
HETATM   17  O   UNL     1      44.871 -22.263   4.872  1.00  0.00    -0.323 OA
HETATM   18  O   UNL     1      44.462 -22.249   2.494  1.00  0.00    -0.323 OA
HETATM   19  C   UNL     1      44.060 -19.849   2.373  1.00  0.00     0.040 A 
HETATM   20  C   UNL     1      44.770 -23.040   3.660  1.00  0.00     0.352 A 
HETATM   21  C   UNL     1      43.990 -18.662   3.113  1.00  0.00     0.011 A 
ENDBRANCH   7  13
BRANCH   1  22
HETATM   22  C   UNL     1      41.698 -16.333   3.273  1.00  0.00    -0.005 A 
HETATM   23  C   UNL     1      42.440 -15.278   2.728  1.00  0.00     0.014 A 
HETATM   24  C   UNL     1      42.461 -15.065   1.346  1.00  0.00     0.001 A 
HETATM   25  C   UNL     1      41.731 -15.895   0.496  1.00  0.00     0.000 A 
HETATM   26  C   UNL     1      40.975 -16.936   1.026  1.00  0.00     0.001 A 
HETATM   27  C   UNL     1      40.958 -17.152   2.405  1.00  0.00     0.014 A 
ENDBRANCH   1  22
TORSDOF 2
ENDMDL
MODEL 2
REMARK VINA RESULT:      -8.5      2.643      4.661
REMARK  2 active torsions:
REMARK  status: ('A' for Active; 'I' for Inactive)
REMARK    1  A    between atoms: C_4  and  C_5 
REMARK    2  A    between atoms: C_11  and  C_12 
ROOT
HETATM    1  C   UNL     1      43.712 -17.806   6.714  1.00  0.00     0.098 A 
HETATM    2  N   UNL     1      43.188 -18.345   7.834  1.00  0.00    -0.172 NA
HETATM    3  N   UNL     1      43.367 -19.667   7.703  1.00  0.00    -0.261 N 
HETATM    4  H   UNL     1      43.033 -20.275   8.442  1.00  0.00     0.191 HD
HETATM    5  C   UNL     1      43.978 -20.000   6.539  1.00  0.00     0.133 A 
HETATM    6  C   UNL     1      44.240 -18.831   5.871  1.00  0.00     0.028 A 
HETATM    7  C   UNL     1      44.882 -18.850   4.530  1.00  0.00     0.067 C 
HETATM    8  C   UNL     1      45.526 -20.216   4.230  1.00  0.00     0.117 C 
HETATM    9  C   UNL     1      44.848 -21.429   4.863  1.00  0.00     0.224 C 
HETATM   10  O   UNL     1      44.949 -22.553   4.372  1.00  0.00    -0.273 OA
HETATM   11  N   UNL     1      44.228 -21.263   6.078  1.00  0.00    -0.312 N 
HETATM   12  H   UNL     1      43.879 -22.095   6.539  1.00  0.00     0.170 HD
ENDROOT
BRANCH   7  13
HETATM   13  C   UNL     1      43.849 -18.452   3.486  1.00  0.00    -0.046 A 
HETATM   14  C   UNL     1      43.750 -17.086   3.147  1.00  0.00     0.047 A 
HETATM   15  C   UNL     1      42.850 -16.706   2.174  1.00  0.00     0.105 A 
HETATM   16  C   UNL     1      42.052 -17.619   1.531  1.00  0.00     0.105 A 
HETATM   17  O   UNL     1      42.649 -15.436   1.733  1.00  0.00    -0.323 OA
HETATM   18  O   UNL     1      41.239 -17.039   0.608  1.00  0.00    -0.323 OA
HETATM   19  C   UNL     1      42.116 -18.963   1.820  1.00  0.00     0.040 A 
HETATM   20  C   UNL     1      41.632 -15.656   0.733  1.00  0.00     0.352 A 
HETATM   21  C   UNL     1      43.031 -19.381   2.795  1.00  0.00     0.011 A 
ENDBRANCH   7  13
BRANCH   1  22
HETATM   22  C   UNL     1      43.627 -16.362   6.481  1.00  0.00    -0.005 A 
HETATM   23  C   UNL     1      44.708 -15.508   6.728  1.00  0.00     0.014 A 
HETATM   24  C   UNL     1      44.603 -14.137   6.471  1.00  0.00     0.001 A 
HETATM   25  C   UNL     1      43.413 -13.605   5.976  1.00  0.00     0.000 A 
HETATM   26  C   UNL     1      42.324 -14.440   5.744  1.00  0.00     0.001 A 
HETATM   27  C   UNL     1      42.431 -15.809   5.996  1.00  0.00     0.014 A 
ENDBRANCH   1  22
TORSDOF 2
ENDMDL
MODEL 3
REMARK VINA RESULT:      -8.4      3.945      6.268
REMARK  2 active torsions:
REMARK  status: ('A' for Active; 'I' for Inactive)
REMARK    1  A    between atoms: C_4  and  C_5 
REMARK    2  A    between atoms: C_11  and  C_12 
ROOT
HETATM    1  C   UNL     1      42.901 -16.104   4.712  1.00  0.00     0.098 A 
HETATM    2  N   UNL     1      43.736 -15.878   5.747  1.00  0.00    -0.172 NA
HETATM    3  N   UNL     1      43.161 -14.892   6.451  1.00  0.00    -0.261 N 
HETATM    4  H   UNL     1      43.633 -14.554   7.281  1.00  0.00     0.191 HD
HETATM    5  C   UNL     1      41.993 -14.471   5.905  1.00  0.00     0.133 A 
HETATM    6  C   UNL     1      41.770 -15.236   4.789  1.00  0.00     0.028 A 
HETATM    7  C   UNL     1      40.575 -15.002   3.934  1.00  0.00     0.067 C 
HETATM    8  C   UNL     1      39.521 -14.144   4.658  1.00  0.00     0.117 C 
HETATM    9  C   UNL     1      40.060 -13.126   5.661  1.00  0.00     0.224 C 
HETATM   10  O   UNL     1      39.427 -12.112   5.952  1.00  0.00    -0.273 OA
HETATM   11  N   UNL     1      41.214 -13.435   6.339  1.00  0.00    -0.312 N 
HETATM   12  H   UNL     1      41.501 -12.805   7.079  1.00  0.00     0.170 HD
ENDROOT
BRANCH   7  13
HETATM   13  C   UNL     1      41.027 -14.382   2.619  1.00  0.00    -0.046 A 
HETATM   14  C   UNL     1      40.602 -14.997   1.423  1.00  0.00     0.047 A 
HETATM   15  C   UNL     1      40.964 -14.430   0.220  1.00  0.00     0.105 A 
HETATM   16  C   UNL     1      41.724 -13.289   0.157  1.00  0.00     0.105 A 
HETATM   17  O   UNL     1      40.623 -14.897  -1.011  1.00  0.00    -0.323 OA
HETATM   18  O   UNL     1      41.967 -12.896  -1.122  1.00  0.00    -0.323 OA
HETATM   19  C   UNL     1      42.157 -12.647   1.295  1.00  0.00     0.040 A 
HETATM   20  C   UNL     1      41.256 -13.913  -1.856  1.00  0.00     0.352 A 
HETATM   21  C   UNL     1      41.793 -13.192   2.534  1.00  0.00     0.011 A 
ENDBRANCH   7  13
BRANCH   1  22
HETATM   22  C   UNL     1      43.253 -17.085   3.681  1.00  0.00    -0.005 A 
HETATM   23  C   UNL     1      43.168 -18.463   3.911  1.00  0.00     0.014 A 
HETATM   24  C   UNL     1      43.486 -19.373   2.898  1.00  0.00     0.001 A 
HETATM   25  C   UNL     1      43.905 -18.915   1.649  1.00  0.00     0.000 A 
HETATM   26  C   UNL     1      44.012 -17.547   1.413  1.00  0.00     0.001 A 
HETATM   27  C   UNL     1      43.689 -16.639   2.423  1.00  0.00     0.014 A 
ENDBRANCH   1  22
TORSDOF 2
ENDMDL
MODEL 4
REMARK VINA RESULT:      -8.3      1.852      2.482
REMARK  2 active torsions:
REMARK  status: ('A' for Active; 'I' for Inactive)
REMARK    1  A    between atoms: C_4  and  C_5 
REMARK    2  A    between atoms: C_11  and  C_12 
ROOT
HETATM    1  C   UNL     1      40.925 -14.650   3.249  1.00  0.00     0.098 A 
HETATM    2  N   UNL     1      39.680 -14.576   3.763  1.00  0.00    -0.172 NA
HETATM    3  N   UNL     1      39.811 -14.935   5.048  1.00  0.00    -0.261 N 
HETATM    4  H   UNL     1      38.981 -14.957   5.630  1.00  0.00     0.191 HD
HETATM    5  C   UNL     1      41.089 -15.244   5.379  1.00  0.00     0.133 A 
HETATM    6  C   UNL     1      41.853 -15.058   4.255  1.00  0.00     0.028 A 
HETATM    7  C   UNL     1      43.312 -15.345   4.272  1.00  0.00     0.067 C 
HETATM    8  C   UNL     1      43.848 -15.463   5.710  1.00  0.00     0.117 C 
HETATM    9  C   UNL     1      42.866 -15.998   6.749  1.00  0.00     0.224 C 
HETATM   10  O   UNL     1      43.254 -16.559   7.774  1.00  0.00    -0.273 OA
HETATM   11  N   UNL     1      41.531 -15.719   6.582  1.00  0.00    -0.312 N 
HETATM   12  H   UNL     1      40.904 -15.983   7.332  1.00  0.00     0.170 HD
ENDROOT
BRANCH   7  13
HETATM   13  C   UNL     1      43.575 -16.598   3.448  1.00  0.00    -0.046 A 
HETATM   14  C   UNL     1      43.699 -17.823   4.137  1.00  0.00     0.047 A 
HETATM   15  C   UNL     1      43.896 -18.977   3.409  1.00  0.00     0.105 A 
HETATM   16  C   UNL     1      43.975 -18.964   2.039  1.00  0.00     0.105 A 
HETATM   17  O   UNL     1      44.023 -20.228   3.927  1.00  0.00    -0.323 OA
HETATM   18  O   UNL     1      44.170 -20.205   1.519  1.00  0.00    -0.323 OA
HETATM   19  C   UNL     1      43.853 -17.797   1.321  1.00  0.00     0.040 A 
HETATM   20  C   UNL     1      44.187 -21.003   2.720  1.00  0.00     0.352 A 
HETATM   21  C   UNL     1      43.637 -16.609   2.032  1.00  0.00     0.011 A 
ENDBRANCH   7  13
BRANCH   1  22
HETATM   22  C   UNL     1      41.151 -14.389   1.825  1.00  0.00    -0.005 A 
HETATM   23  C   UNL     1      41.845 -13.258   1.380  1.00  0.00     0.014 A 
HETATM   24  C   UNL     1      42.066 -13.052   0.015  1.00  0.00     0.001 A 
HETATM   25  C   UNL     1      41.586 -13.967  -0.920  1.00  0.00     0.000 A 
HETATM   26  C   UNL     1      40.877 -15.087  -0.494  1.00  0.00     0.001 A 
HETATM   27  C   UNL     1      40.660 -15.295   0.870  1.00  0.00     0.014 A 
ENDBRANCH   1  22
TORSDOF 2
ENDMDL
MODEL 5
REMARK VINA RESULT:      -8.1      3.556      5.852
REMARK  2 active torsions:
REMARK  status: ('A' for Active; 'I' for Inactive)
REMARK    1  A    between atoms: C_4  and  C_5 
REMARK    2  A    between atoms: C_11  and  C_12 
ROOT
HETATM    1  C   UNL     1      43.386 -16.049   5.828  1.00  0.00     0.098 A 
HETATM    2  N   UNL     1      44.352 -15.286   6.380  1.00  0.00    -0.172 NA
HETATM    3  N   UNL     1      43.773 -14.099   6.607  1.00  0.00    -0.261 N 
HETATM    4  H   UNL     1      44.332 -13.360   7.018  1.00  0.00     0.191 HD
HETATM    5  C   UNL     1      42.476 -14.065   6.214  1.00  0.00     0.133 A 
HETATM    6  C   UNL     1      42.170 -15.307   5.720  1.00  0.00     0.028 A 
HETATM    7  C   UNL     1      40.819 -15.595   5.170  1.00  0.00     0.067 C 
HETATM    8  C   UNL     1      39.797 -14.522   5.590  1.00  0.00     0.117 C 
HETATM    9  C   UNL     1      40.350 -13.113   5.787  1.00  0.00     0.224 C 
HETATM   10  O   UNL     1      39.635 -12.118   5.668  1.00  0.00    -0.273 OA
HETATM   11  N   UNL     1      41.641 -12.981   6.237  1.00  0.00    -0.312 N 
HETATM   12  H   UNL     1      41.960 -12.048   6.470  1.00  0.00     0.170 HD
ENDROOT
BRANCH   7  13
HETATM   13  C   UNL     1      40.924 -15.739   3.659  1.00  0.00    -0.046 A 
HETATM   14  C   UNL     1      41.227 -14.584   2.909  1.00  0.00     0.047 A 
HETATM   15  C   UNL     1      41.368 -14.698   1.542  1.00  0.00     0.105 A 
HETATM   16  C   UNL     1      41.222 -15.900   0.897  1.00  0.00     0.105 A 
HETATM   17  O   UNL     1      41.669 -13.682   0.689  1.00  0.00    -0.323 OA
HETATM   18  O   UNL     1      41.403 -15.794  -0.447  1.00  0.00    -0.323 OA
HETATM   19  C   UNL     1      40.934 -17.057   1.585  1.00  0.00     0.040 A 
HETATM   20  C   UNL     1      41.698 -14.387  -0.569  1.00  0.00     0.352 A 
HETATM   21  C   UNL     1      40.799 -16.975   2.977  1.00  0.00     0.011 A 
ENDBRANCH   7  13
BRANCH   1  22
HETATM   22  C   UNL     1      43.688 -17.411   5.380  1.00  0.00    -0.005 A 
HETATM   23  C   UNL     1      43.773 -18.483   6.275  1.00  0.00     0.014 A 
HETATM   24  C   UNL     1      44.037 -19.776   5.812  1.00  0.00     0.001 A 
HETATM   25  C   UNL     1      44.231 -20.008   4.451  1.00  0.00     0.000 A 
HETATM   26  C   UNL     1      44.167 -18.949   3.551  1.00  0.00     0.001 A 
HETATM   27  C   UNL     1      43.898 -17.659   4.013  1.00  0.00     0.014 A 
ENDBRANCH   1  22
TORSDOF 2
ENDMDL
MODEL 6
REMARK VINA RESULT:      -8.1      3.343      5.880
REMARK  2 active torsions:
REMARK  status: ('A' for Active; 'I' for Inactive)
REMARK    1  A    between atoms: C_4  and  C_5 
REMARK    2  A    between atoms: C_11  and  C_12 
ROOT
HETATM    1  C   UNL     1      43.642 -17.295   5.595  1.00  0.00     0.098 A 
HETATM    2  N   UNL     1      43.539 -18.226   6.567  1.00  0.00    -0.172 NA
HETATM    3  N   UNL     1      43.603 -19.404   5.930  1.00  0.00    -0.261 N 
HETATM    4  H   UNL     1      43.536 -20.253   6.480  1.00  0.00     0.191 HD
HETATM    5  C   UNL     1      43.735 -19.269   4.588  1.00  0.00     0.133 A 
HETATM    6  C   UNL     1      43.785 -17.924   4.321  1.00  0.00     0.028 A 
HETATM    7  C   UNL     1      43.894 -17.431   2.922  1.00  0.00     0.067 C 
HETATM    8  C   UNL     1      44.328 -18.552   1.960  1.00  0.00     0.117 C 
HETATM    9  C   UNL     1      43.876 -19.963   2.329  1.00  0.00     0.224 C 
HETATM   10  O   UNL     1      43.746 -20.841   1.476  1.00  0.00    -0.273 OA
HETATM   11  N   UNL     1      43.748 -20.274   3.661  1.00  0.00    -0.312 N 
HETATM   12  H   UNL     1      43.557 -21.240   3.897  1.00  0.00     0.170 HD
ENDROOT
BRANCH   7  13
HETATM   13  C   UNL     1      42.570 -16.798   2.519  1.00  0.00    -0.046 A 
HETATM   14  C   UNL     1      42.610 -15.549   1.866  1.00  0.00     0.047 A 
HETATM   15  C   UNL     1      41.426 -14.976   1.455  1.00  0.00     0.105 A 
HETATM   16  C   UNL     1      40.215 -15.586   1.666  1.00  0.00     0.105 A 
HETATM   17  O   UNL     1      41.304 -13.787   0.805  1.00  0.00    -0.323 OA
HETATM   18  O   UNL     1      39.174 -14.856   1.184  1.00  0.00    -0.323 OA
HETATM   19  C   UNL     1      40.123 -16.808   2.292  1.00  0.00     0.040 A 
HETATM   20  C   UNL     1      39.873 -13.723   0.628  1.00  0.00     0.352 A 
HETATM   21  C   UNL     1      41.311 -17.422   2.708  1.00  0.00     0.011 A 
ENDBRANCH   7  13
BRANCH   1  22
HETATM   22  C   UNL     1      43.539 -15.871   5.924  1.00  0.00    -0.005 A 
HETATM   23  C   UNL     1      42.486 -15.077   5.455  1.00  0.00     0.014 A 
HETATM   24  C   UNL     1      42.402 -13.727   5.809  1.00  0.00     0.001 A 
HETATM   25  C   UNL     1      43.375 -13.154   6.626  1.00  0.00     0.000 A 
HETATM   26  C   UNL     1      44.438 -13.927   7.086  1.00  0.00     0.001 A 
HETATM   27  C   UNL     1      44.519 -15.276   6.735  1.00  0.00     0.014 A 
ENDBRANCH   1  22
TORSDOF 2
ENDMDL
MODEL 7
REMARK VINA RESULT:      -8.0      3.760      6.723
REMARK  2 active torsions:
REMARK  status: ('A' for Active; 'I' for Inactive)
REMARK    1  A    between atoms: C_4  and  C_5 
REMARK    2  A    between atoms: C_11  and  C_12 
ROOT
HETATM    1  C   UNL     1      41.150 -16.526   2.502  1.00  0.00     0.098 A 
HETATM    2  N   UNL     1      39.909 -16.992   2.248  1.00  0.00    -0.172 NA
HETATM    3  N   UNL     1      39.237 -15.942   1.754  1.00  0.00    -0.261 N 
HETATM    4  H   UNL     1      38.264 -16.070   1.498  1.00  0.00     0.191 HD
HETATM    5  C   UNL     1      39.993 -14.819   1.688  1.00  0.00     0.133 A 
HETATM    6  C   UNL     1      41.245 -15.147   2.143  1.00  0.00     0.028 A 
HETATM    7  C   UNL     1      42.315 -14.119   2.231  1.00  0.00     0.067 C 
HETATM    8  C   UNL     1      41.960 -12.861   1.417  1.00  0.00     0.117 C 
HETATM    9  C   UNL     1      40.473 -12.531   1.310  1.00  0.00     0.224 C 
HETATM   10  O   UNL     1      40.081 -11.382   1.110  1.00  0.00    -0.273 OA
HETATM   11  N   UNL     1      39.577 -13.573   1.308  1.00  0.00    -0.312 N 
HETATM   12  H   UNL     1      38.606 -13.351   1.125  1.00  0.00     0.170 HD
ENDROOT
BRANCH   7  13
HETATM   13  C   UNL     1      42.577 -13.808   3.698  1.00  0.00    -0.046 A 
HETATM   14  C   UNL     1      43.820 -14.198   4.240  1.00  0.00     0.047 A 
HETATM   15  C   UNL     1      44.096 -13.890   5.555  1.00  0.00     0.105 A 
HETATM   16  C   UNL     1      43.198 -13.220   6.346  1.00  0.00     0.105 A 
HETATM   17  O   UNL     1      45.249 -14.188   6.213  1.00  0.00    -0.323 OA
HETATM   18  O   UNL     1      43.665 -13.016   7.606  1.00  0.00    -0.323 OA
HETATM   19  C   UNL     1      41.976 -12.811   5.862  1.00  0.00     0.040 A 
HETATM   20  C   UNL     1      44.971 -13.621   7.511  1.00  0.00     0.352 A 
HETATM   21  C   UNL     1      41.672 -13.097   4.524  1.00  0.00     0.011 A 
ENDBRANCH   7  13
BRANCH   1  22
HETATM   22  C   UNL     1      42.150 -17.397   3.125  1.00  0.00    -0.005 A 
HETATM   23  C   UNL     1      42.230 -17.558   4.513  1.00  0.00     0.014 A 
HETATM   24  C   UNL     1      43.180 -18.417   5.075  1.00  0.00     0.001 A 
HETATM   25  C   UNL     1      44.066 -19.115   4.257  1.00  0.00     0.000 A 
HETATM   26  C   UNL     1      44.010 -18.951   2.875  1.00  0.00     0.001 A 
HETATM   27  C   UNL     1      43.059 -18.096   2.314  1.00  0.00     0.014 A 
ENDBRANCH   1  22
TORSDOF 2
ENDMDL
MODEL 8
REMARK VINA RESULT:      -8.0      3.474      5.796
REMARK  2 active torsions:
REMARK  status: ('A' for Active; 'I' for Inactive)
REMARK    1  A    between atoms: C_4  and  C_5 
REMARK    2  A    between atoms: C_11  and  C_12 
ROOT
HETATM    1  C   UNL     1      42.131 -16.904   1.767  1.00  0.00     0.098 A 
HETATM    2  N   UNL     1      43.075 -17.324   0.899  1.00  0.00    -0.172 NA
HETATM    3  N   UNL     1      43.911 -18.075   1.630  1.00  0.00    -0.261 N 
HETATM    4  H   UNL     1      44.713 -18.491   1.169  1.00  0.00     0.191 HD
HETATM    5  C   UNL     1      43.548 -18.148   2.934  1.00  0.00     0.133 A 
HETATM    6  C   UNL     1      42.391 -17.423   3.072  1.00  0.00     0.028 A 
HETATM    7  C   UNL     1      41.742 -17.273   4.401  1.00  0.00     0.067 C 
HETATM    8  C   UNL     1      42.280 -18.303   5.412  1.00  0.00     0.117 C 
HETATM    9  C   UNL     1      43.732 -18.735   5.220  1.00  0.00     0.224 C 
HETATM   10  O   UNL     1      44.406 -19.160   6.157  1.00  0.00    -0.273 OA
HETATM   11  N   UNL     1      44.234 -18.766   3.942  1.00  0.00    -0.312 N 
HETATM   12  H   UNL     1      45.159 -19.158   3.815  1.00  0.00     0.170 HD
ENDROOT
BRANCH   7  13
HETATM   13  C   UNL     1      41.926 -15.840   4.879  1.00  0.00    -0.046 A 
HETATM   14  C   UNL     1      40.776 -15.130   5.285  1.00  0.00     0.047 A 
HETATM   15  C   UNL     1      40.922 -13.845   5.760  1.00  0.00     0.105 A 
HETATM   16  C   UNL     1      42.151 -13.240   5.845  1.00  0.00     0.105 A 
HETATM   17  O   UNL     1      39.915 -13.042   6.197  1.00  0.00    -0.323 OA
HETATM   18  O   UNL     1      42.075 -11.976   6.340  1.00  0.00    -0.323 OA
HETATM   19  C   UNL     1      43.303 -13.892   5.469  1.00  0.00     0.040 A 
HETATM   20  C   UNL     1      40.656 -11.862   6.572  1.00  0.00     0.352 A 
HETATM   21  C   UNL     1      43.188 -15.206   4.995  1.00  0.00     0.011 A 
ENDBRANCH   7  13
BRANCH   1  22
HETATM   22  C   UNL     1      41.076 -15.989   1.322  1.00  0.00    -0.005 A 
HETATM   23  C   UNL     1      39.833 -15.926   1.962  1.00  0.00     0.014 A 
HETATM   24  C   UNL     1      38.856 -15.023   1.530  1.00  0.00     0.001 A 
HETATM   25  C   UNL     1      39.108 -14.183   0.446  1.00  0.00     0.000 A 
HETATM   26  C   UNL     1      40.333 -14.249  -0.212  1.00  0.00     0.001 A 
HETATM   27  C   UNL     1      41.309 -15.147   0.223  1.00  0.00     0.014 A 
ENDBRANCH   1  22
TORSDOF 2
ENDMDL
MODEL 9
REMARK VINA RESULT:      -7.8      3.227      5.626
REMARK  2 active torsions:
REMARK  status: ('A' for Active; 'I' for Inactive)
REMARK    1  A    between atoms: C_4  and  C_5 
REMARK    2  A    between atoms: C_11  and  C_12 
ROOT
HETATM    1  C   UNL     1      41.053 -15.959   2.353  1.00  0.00     0.098 A 
HETATM    2  N   UNL     1      39.771 -16.281   2.079  1.00  0.00    -0.172 NA
HETATM    3  N   UNL     1      39.058 -15.201   2.427  1.00  0.00    -0.261 N 
HETATM    4  H   UNL     1      38.051 -15.230   2.311  1.00  0.00     0.191 HD
HETATM    5  C   UNL     1      39.828 -14.200   2.922  1.00  0.00     0.133 A 
HETATM    6  C   UNL     1      41.129 -14.632   2.878  1.00  0.00     0.028 A 
HETATM    7  C   UNL     1      42.232 -13.774   3.385  1.00  0.00     0.067 C 
HETATM    8  C   UNL     1      41.780 -12.312   3.553  1.00  0.00     0.117 C 
HETATM    9  C   UNL     1      40.310 -12.104   3.910  1.00  0.00     0.224 C 
HETATM   10  O   UNL     1      39.928 -11.095   4.503  1.00  0.00    -0.273 OA
HETATM   11  N   UNL     1      39.393 -13.010   3.434  1.00  0.00    -0.312 N 
HETATM   12  H   UNL     1      38.413 -12.801   3.583  1.00  0.00     0.170 HD
ENDROOT
BRANCH   7  13
HETATM   13  C   UNL     1      42.764 -14.372   4.679  1.00  0.00    -0.046 A 
HETATM   14  C   UNL     1      42.100 -15.502   5.202  1.00  0.00     0.047 A 
HETATM   15  C   UNL     1      42.588 -16.086   6.351  1.00  0.00     0.105 A 
HETATM   16  C   UNL     1      43.696 -15.597   6.998  1.00  0.00     0.105 A 
HETATM   17  O   UNL     1      42.067 -17.181   6.967  1.00  0.00    -0.323 OA
HETATM   18  O   UNL     1      44.010 -16.317   8.107  1.00  0.00    -0.323 OA
HETATM   19  C   UNL     1      44.383 -14.503   6.523  1.00  0.00     0.040 A 
HETATM   20  C   UNL     1      42.981 -17.327   8.075  1.00  0.00     0.352 A 
HETATM   21  C   UNL     1      43.919 -13.896   5.349  1.00  0.00     0.011 A 
ENDBRANCH   7  13
BRANCH   1  22
HETATM   22  C   UNL     1      42.118 -16.946   2.159  1.00  0.00    -0.005 A 
HETATM   23  C   UNL     1      42.015 -18.252   2.649  1.00  0.00     0.014 A 
HETATM   24  C   UNL     1      43.039 -19.178   2.424  1.00  0.00     0.001 A 
HETATM   25  C   UNL     1      44.181 -18.804   1.718  1.00  0.00     0.000 A 
HETATM   26  C   UNL     1      44.305 -17.503   1.241  1.00  0.00     0.001 A 
HETATM   27  C   UNL     1      43.281 -16.580   1.461  1.00  0.00     0.014 A 
ENDBRANCH   1  22
TORSDOF 2
ENDMDL
MODEL 10
REMARK VINA RESULT:      -7.7      4.148      6.942
REMARK  2 active torsions:
REMARK  status: ('A' for Active; 'I' for Inactive)
REMARK    1  A    between atoms: C_4  and  C_5 
REMARK    2  A    between atoms: C_11  and  C_12 
ROOT
HETATM    1  C   UNL     1      41.738 -16.327   5.725  1.00  0.00     0.098 A 
HETATM    2  N   UNL     1      40.564 -16.815   6.177  1.00  0.00    -0.172 NA
HETATM    3  N   UNL     1      39.709 -15.785   6.112  1.00  0.00    -0.261 N 
HETATM    4  H   UNL     1      38.754 -15.932   6.417  1.00  0.00     0.191 HD
HETATM    5  C   UNL     1      40.288 -14.652   5.644  1.00  0.00     0.133 A 
HETATM    6  C   UNL     1      41.596 -14.953   5.361  1.00  0.00     0.028 A 
HETATM    7  C   UNL     1      42.524 -13.908   4.856  1.00  0.00     0.067 C 
HETATM    8  C   UNL     1      41.761 -12.670   4.350  1.00  0.00     0.117 C 
HETATM    9  C   UNL     1      40.440 -12.365   5.052  1.00  0.00     0.224 C 
HETATM   10  O   UNL     1      39.977 -11.225   5.084  1.00  0.00    -0.273 OA
HETATM   11  N   UNL     1      39.705 -13.420   5.536  1.00  0.00    -0.312 N 
HETATM   12  H   UNL     1      38.782 -13.215   5.900  1.00  0.00     0.170 HD
ENDROOT
BRANCH   7  13
HETATM   13  C   UNL     1      43.523 -13.567   5.953  1.00  0.00    -0.046 A 
HETATM   14  C   UNL     1      43.078 -12.755   7.017  1.00  0.00     0.047 A 
HETATM   15  C   UNL     1      43.952 -12.467   8.043  1.00  0.00     0.105 A 
HETATM   16  C   UNL     1      45.238 -12.946   8.055  1.00  0.00     0.105 A 
HETATM   17  O   UNL     1      43.668 -11.712   9.138  1.00  0.00    -0.323 OA
HETATM   18  O   UNL     1      45.932 -12.547   9.154  1.00  0.00    -0.323 OA
HETATM   19  C   UNL     1      45.718 -13.747   7.044  1.00  0.00     0.040 A 
HETATM   20  C   UNL     1      44.926 -11.775   9.842  1.00  0.00     0.352 A 
HETATM   21  C   UNL     1      44.847 -14.069   5.994  1.00  0.00     0.011 A 
ENDBRANCH   7  13
BRANCH   1  22
HETATM   22  C   UNL     1      42.936 -17.171   5.723  1.00  0.00    -0.005 A 
HETATM   23  C   UNL     1      43.807 -17.224   6.817  1.00  0.00     0.014 A 
HETATM   24  C   UNL     1      44.927 -18.061   6.794  1.00  0.00     0.001 A 
HETATM   25  C   UNL     1      45.195 -18.843   5.672  1.00  0.00     0.000 A 
HETATM   26  C   UNL     1      44.348 -18.787   4.569  1.00  0.00     0.001 A 
HETATM   27  C   UNL     1      43.227 -17.956   4.594  1.00  0.00     0.014 A 
ENDBRANCH   1  22
TORSDOF 2
ENDMDL
