MODEL 1
REMARK VINA RESULT:      -8.8      0.000      0.000
REMARK  4 active torsions:
REMARK  status: ('A' for Active; 'I' for Inactive)
REMARK    1  A    between atoms: O_2  and  C_3 
REMARK    2  A    between atoms: C_6  and  C_7 
REMARK    3  A    between atoms: C_11  and  C_12 
REMARK       I    between atoms: C_12  and  N_13 
REMARK    4  A    between atoms: N_13  and  N_14 
ROOT
HETATM    1  C   UNL     1      43.012 -14.433   2.911  1.00  0.00     0.289 C 
HETATM    2  N   UNL     1      42.588 -15.561   3.595  1.00  0.00    -0.241 N 
HETATM    3  O   UNL     1      43.975 -13.740   3.220  1.00  0.00    -0.264 OA
HETATM    4  H   UNL     1      41.677 -15.939   3.383  1.00  0.00     0.192 HD
ENDROOT
BRANCH   1   5
HETATM    5  C   UNL     1      42.214 -14.139   1.743  1.00  0.00     0.121 A 
HETATM    6  N   UNL     1      42.118 -12.878   1.227  1.00  0.00    -0.272 N 
HETATM    7  N   UNL     1      41.351 -12.792   0.126  1.00  0.00    -0.174 NA
HETATM    8  H   UNL     1      42.563 -12.037   1.586  1.00  0.00     0.189 HD
HETATM    9  C   UNL     1      40.948 -14.051  -0.106  1.00  0.00     0.089 A 
HETATM   10  C   UNL     1      41.449 -14.920   0.901  1.00  0.00     0.071 A 
BRANCH   9  11
HETATM   11  C   UNL     1      40.104 -14.411  -1.249  1.00  0.00    -0.005 A 
HETATM   12  C   UNL     1      38.772 -13.980  -1.321  1.00  0.00     0.016 A 
HETATM   13  C   UNL     1      37.978 -14.301  -2.426  1.00  0.00     0.037 A 
HETATM   14  C   UNL     1      38.497 -15.054  -3.479  1.00  0.00     0.068 A 
HETATM   15  C   UNL     1      39.814 -15.506  -3.408  1.00  0.00     0.037 A 
HETATM   16  C   UNL     1      40.609 -15.188  -2.299  1.00  0.00     0.016 A 
BRANCH  14  17
HETATM   17  O   UNL     1      37.619 -15.281  -4.501  1.00  0.00    -0.356 OA
HETATM   18  C   UNL     1      36.460 -14.457  -4.542  1.00  0.00     0.210 C 
ENDBRANCH  14  17
ENDBRANCH   9  11
ENDBRANCH   1   5
BRANCH   2  19
HETATM   19  N   UNL     1      43.176 -15.957   4.757  1.00  0.00    -0.165 NA
HETATM   20  C   UNL     1      43.636 -17.168   4.827  1.00  0.00     0.157 A 
HETATM   21  C   UNL     1      44.115 -17.775   6.163  1.00  0.00     0.277 A 
HETATM   22  C   UNL     1      43.805 -18.235   3.826  1.00  0.00     0.027 A 
HETATM   23  O   UNL     1      44.192 -17.209   7.230  1.00  0.00    -0.266 OA
HETATM   24  N   UNL     1      44.407 -19.091   5.881  1.00  0.00    -0.321 N 
HETATM   25  C   UNL     1      44.237 -19.363   4.530  1.00  0.00     0.048 A 
HETATM   26  H   UNL     1      44.747 -19.733   6.582  1.00  0.00     0.169 HD
HETATM   27  C   UNL     1      44.489 -20.565   3.899  1.00  0.00     0.030 A 
HETATM   28  C   UNL     1      44.315 -20.619   2.515  1.00  0.00     0.002 A 
HETATM   29  C   UNL     1      43.921 -19.478   1.794  1.00  0.00     0.001 A 
HETATM   30  C   UNL     1      43.674 -18.266   2.448  1.00  0.00     0.016 A 
ENDBRANCH   2  19
TORSDOF 4
ENDMDL
MODEL 2
REMARK VINA RESULT:      -8.8      5.379      8.860
REMARK  4 active torsions:
REMARK  status: ('A' for Active; 'I' for Inactive)
REMARK    1  A    between atoms: O_2  and  C_3 
REMARK    2  A    between atoms: C_6  and  C_7 
REMARK    3  A    between atoms: C_11  and  C_12 
REMARK       I    between atoms: C_12  and  N_13 
REMARK    4  A    between atoms: N_13  and  N_14 
ROOT
HETATM    1  C   UNL     1      41.601 -13.379   5.800  1.00  0.00     0.289 C 
HETATM    2  N   UNL     1      42.193 -12.461   6.652  1.00  0.00    -0.241 N 
HETATM    3  O   UNL     1      40.549 -13.205   5.194  1.00  0.00    -0.264 OA
HETATM    4  H   UNL     1      42.940 -12.774   7.253  1.00  0.00     0.192 HD
ENDROOT
BRANCH   1   5
HETATM    5  C   UNL     1      42.362 -14.598   5.654  1.00  0.00     0.121 A 
HETATM    6  N   UNL     1      43.218 -15.041   6.623  1.00  0.00    -0.272 N 
HETATM    7  N   UNL     1      43.828 -16.202   6.328  1.00  0.00    -0.174 NA
HETATM    8  H   UNL     1      43.420 -14.588   7.510  1.00  0.00     0.189 HD
HETATM    9  C   UNL     1      43.334 -16.551   5.131  1.00  0.00     0.089 A 
HETATM   10  C   UNL     1      42.430 -15.558   4.665  1.00  0.00     0.071 A 
BRANCH   9  11
HETATM   11  C   UNL     1      43.718 -17.790   4.449  1.00  0.00    -0.005 A 
HETATM   12  C   UNL     1      44.454 -18.777   5.117  1.00  0.00     0.016 A 
HETATM   13  C   UNL     1      44.795 -19.970   4.473  1.00  0.00     0.037 A 
HETATM   14  C   UNL     1      44.406 -20.202   3.154  1.00  0.00     0.068 A 
HETATM   15  C   UNL     1      43.691 -19.218   2.472  1.00  0.00     0.037 A 
HETATM   16  C   UNL     1      43.353 -18.020   3.116  1.00  0.00     0.016 A 
BRANCH  14  17
HETATM   17  O   UNL     1      44.791 -21.414   2.653  1.00  0.00    -0.356 OA
HETATM   18  C   UNL     1      44.040 -21.918   1.556  1.00  0.00     0.210 C 
ENDBRANCH  14  17
ENDBRANCH   9  11
ENDBRANCH   1   5
BRANCH   2  19
HETATM   19  N   UNL     1      41.589 -11.282   6.965  1.00  0.00    -0.165 NA
HETATM   20  C   UNL     1      41.937 -10.691   8.067  1.00  0.00     0.157 A 
HETATM   21  C   UNL     1      41.158  -9.476   8.612  1.00  0.00     0.277 A 
HETATM   22  C   UNL     1      43.004 -10.949   9.048  1.00  0.00     0.027 A 
HETATM   23  O   UNL     1      40.234  -8.907   8.077  1.00  0.00    -0.266 OA
HETATM   24  N   UNL     1      41.724  -9.201   9.838  1.00  0.00    -0.321 N 
HETATM   25  C   UNL     1      42.798 -10.045  10.093  1.00  0.00     0.048 A 
HETATM   26  H   UNL     1      41.406  -8.445  10.425  1.00  0.00     0.169 HD
HETATM   27  C   UNL     1      43.617 -10.012  11.204  1.00  0.00     0.030 A 
HETATM   28  C   UNL     1      44.687 -10.909  11.246  1.00  0.00     0.002 A 
HETATM   29  C   UNL     1      44.927 -11.793  10.179  1.00  0.00     0.001 A 
HETATM   30  C   UNL     1      44.088 -11.810   9.059  1.00  0.00     0.016 A 
ENDBRANCH   2  19
TORSDOF 4
ENDMDL
MODEL 3
REMARK VINA RESULT:      -8.6      5.023      9.179
REMARK  4 active torsions:
REMARK  status: ('A' for Active; 'I' for Inactive)
REMARK    1  A    between atoms: O_2  and  C_3 
REMARK    2  A    between atoms: C_6  and  C_7 
REMARK    3  A    between atoms: C_11  and  C_12 
REMARK       I    between atoms: C_12  and  N_13 
REMARK    4  A    between atoms: N_13  and  N_14 
ROOT
HETATM    1  C   UNL     1      43.441 -14.318   4.461  1.00  0.00     0.289 C 
HETATM    2  N   UNL     1      42.513 -15.340   4.589  1.00  0.00    -0.241 N 
HETATM    3  O   UNL     1      43.818 -13.836   3.399  1.00  0.00    -0.264 OA
HETATM    4  H   UNL     1      42.424 -15.800   5.482  1.00  0.00     0.192 HD
ENDROOT
BRANCH   1   5
HETATM    5  C   UNL     1      43.929 -13.828   5.728  1.00  0.00     0.121 A 
HETATM    6  N   UNL     1      45.177 -14.134   6.194  1.00  0.00    -0.272 N 
HETATM    7  N   UNL     1      45.472 -13.575   7.381  1.00  0.00    -0.174 NA
HETATM    8  H   UNL     1      45.871 -14.719   5.737  1.00  0.00     0.189 HD
HETATM    9  C   UNL     1      44.387 -12.851   7.695  1.00  0.00     0.089 A 
HETATM   10  C   UNL     1      43.389 -13.004   6.695  1.00  0.00     0.071 A 
BRANCH   9  11
HETATM   11  C   UNL     1      44.303 -12.045   8.916  1.00  0.00    -0.005 A 
HETATM   12  C   UNL     1      43.173 -11.260   9.181  1.00  0.00     0.016 A 
HETATM   13  C   UNL     1      43.083 -10.514  10.360  1.00  0.00     0.037 A 
HETATM   14  C   UNL     1      44.115 -10.540  11.297  1.00  0.00     0.068 A 
HETATM   15  C   UNL     1      45.255 -11.300  11.034  1.00  0.00     0.037 A 
HETATM   16  C   UNL     1      45.347 -12.045   9.851  1.00  0.00     0.016 A 
BRANCH  14  17
HETATM   17  O   UNL     1      43.891  -9.779  12.410  1.00  0.00    -0.356 OA
HETATM   18  C   UNL     1      42.852 -10.211  13.279  1.00  0.00     0.210 C 
ENDBRANCH  14  17
ENDBRANCH   9  11
ENDBRANCH   1   5
BRANCH   2  19
HETATM   19  N   UNL     1      41.991 -15.973   3.503  1.00  0.00    -0.165 NA
HETATM   20  C   UNL     1      42.456 -17.146   3.197  1.00  0.00     0.157 A 
HETATM   21  C   UNL     1      42.088 -17.839   1.869  1.00  0.00     0.277 A 
HETATM   22  C   UNL     1      43.378 -18.067   3.882  1.00  0.00     0.027 A 
HETATM   23  O   UNL     1      41.309 -17.440   1.034  1.00  0.00    -0.266 OA
HETATM   24  N   UNL     1      42.853 -18.985   1.832  1.00  0.00    -0.321 N 
HETATM   25  C   UNL     1      43.596 -19.127   2.997  1.00  0.00     0.048 A 
HETATM   26  H   UNL     1      42.814 -19.638   1.065  1.00  0.00     0.169 HD
HETATM   27  C   UNL     1      44.429 -20.183   3.312  1.00  0.00     0.030 A 
HETATM   28  C   UNL     1      45.042 -20.171   4.567  1.00  0.00     0.002 A 
HETATM   29  C   UNL     1      44.795 -19.130   5.479  1.00  0.00     0.001 A 
HETATM   30  C   UNL     1      43.945 -18.070   5.145  1.00  0.00     0.016 A 
ENDBRANCH   2  19
TORSDOF 4
ENDMDL
MODEL 4
REMARK VINA RESULT:      -8.4      2.126      2.242
REMARK  4 active torsions:
REMARK  status: ('A' for Active; 'I' for Inactive)
REMARK    1  A    between atoms: O_2  and  C_3 
REMARK    2  A    between atoms: C_6  and  C_7 
REMARK    3  A    between atoms: C_11  and  C_12 
REMARK       I    between atoms: C_12  and  N_13 
REMARK    4  A    between atoms: N_13  and  N_14 
ROOT
HETATM    1  C   UNL     1      41.470 -16.219   4.155  1.00  0.00     0.289 C 
HETATM    2  N   UNL     1      42.850 -16.301   4.056  1.00  0.00    -0.241 N 
HETATM    3  O   UNL     1      40.813 -16.532   5.142  1.00  0.00    -0.264 OA
HETATM    4  H   UNL     1      43.273 -16.214   3.144  1.00  0.00     0.192 HD
ENDROOT
BRANCH   1   5
HETATM    5  C   UNL     1      40.842 -15.690   2.967  1.00  0.00     0.121 A 
HETATM    6  N   UNL     1      39.490 -15.510   2.878  1.00  0.00    -0.272 N 
HETATM    7  N   UNL     1      39.081 -14.990   1.708  1.00  0.00    -0.174 NA
HETATM    8  H   UNL     1      38.799 -15.724   3.592  1.00  0.00     0.189 HD
HETATM    9  C   UNL     1      40.210 -14.793   1.011  1.00  0.00     0.089 A 
HETATM   10  C   UNL     1      41.333 -15.243   1.758  1.00  0.00     0.071 A 
BRANCH   9  11
HETATM   11  C   UNL     1      40.216 -14.202  -0.330  1.00  0.00    -0.005 A 
HETATM   12  C   UNL     1      39.628 -12.952  -0.566  1.00  0.00     0.016 A 
HETATM   13  C   UNL     1      39.661 -12.378  -1.841  1.00  0.00     0.037 A 
HETATM   14  C   UNL     1      40.282 -13.037  -2.901  1.00  0.00     0.068 A 
HETATM   15  C   UNL     1      40.851 -14.291  -2.684  1.00  0.00     0.037 A 
HETATM   16  C   UNL     1      40.816 -14.869  -1.407  1.00  0.00     0.016 A 
BRANCH  14  17
HETATM   17  O   UNL     1      40.255 -12.357  -4.086  1.00  0.00    -0.356 OA
HETATM   18  C   UNL     1      39.514 -11.144  -4.108  1.00  0.00     0.210 C 
ENDBRANCH  14  17
ENDBRANCH   9  11
ENDBRANCH   1   5
BRANCH   2  19
HETATM   19  N   UNL     1      43.609 -16.836   5.051  1.00  0.00    -0.165 NA
HETATM   20  C   UNL     1      44.018 -18.060   4.915  1.00  0.00     0.157 A 
HETATM   21  C   UNL     1      44.689 -18.821   6.078  1.00  0.00     0.277 A 
HETATM   22  C   UNL     1      43.963 -19.017   3.797  1.00  0.00     0.027 A 
HETATM   23  O   UNL     1      44.974 -18.376   7.167  1.00  0.00    -0.266 OA
HETATM   24  N   UNL     1      44.868 -20.106   5.617  1.00  0.00    -0.321 N 
HETATM   25  C   UNL     1      44.457 -20.225   4.296  1.00  0.00     0.048 A 
HETATM   26  H   UNL     1      45.292 -20.829   6.178  1.00  0.00     0.169 HD
HETATM   27  C   UNL     1      44.541 -21.359   3.512  1.00  0.00     0.030 A 
HETATM   28  C   UNL     1      44.130 -21.258   2.181  1.00  0.00     0.002 A 
HETATM   29  C   UNL     1      43.672 -20.035   1.660  1.00  0.00     0.001 A 
HETATM   30  C   UNL     1      43.597 -18.894   2.468  1.00  0.00     0.016 A 
ENDBRANCH   2  19
TORSDOF 4
ENDMDL
MODEL 5
REMARK VINA RESULT:      -8.3      1.776      2.216
REMARK  4 active torsions:
REMARK  status: ('A' for Active; 'I' for Inactive)
REMARK    1  A    between atoms: O_2  and  C_3 
REMARK    2  A    between atoms: C_6  and  C_7 
REMARK    3  A    between atoms: C_11  and  C_12 
REMARK       I    between atoms: C_12  and  N_13 
REMARK    4  A    between atoms: N_13  and  N_14 
ROOT
HETATM    1  C   UNL     1      41.235 -14.334   5.002  1.00  0.00     0.289 C 
HETATM    2  N   UNL     1      42.027 -15.465   5.128  1.00  0.00    -0.241 N 
HETATM    3  O   UNL     1      40.998 -13.535   5.901  1.00  0.00    -0.264 OA
HETATM    4  H   UNL     1      41.994 -16.158   4.396  1.00  0.00     0.192 HD
ENDROOT
BRANCH   1   5
HETATM    5  C   UNL     1      40.711 -14.147   3.669  1.00  0.00     0.121 A 
HETATM    6  N   UNL     1      39.795 -13.176   3.377  1.00  0.00    -0.272 N 
HETATM    7  N   UNL     1      39.434 -13.134   2.083  1.00  0.00    -0.174 NA
HETATM    8  H   UNL     1      39.386 -12.511   4.027  1.00  0.00     0.189 HD
HETATM    9  C   UNL     1      40.161 -14.096   1.495  1.00  0.00     0.089 A 
HETATM   10  C   UNL     1      40.956 -14.770   2.462  1.00  0.00     0.071 A 
BRANCH   9  11
HETATM   11  C   UNL     1      40.093 -14.369   0.057  1.00  0.00    -0.005 A 
HETATM   12  C   UNL     1      41.016 -15.229  -0.554  1.00  0.00     0.016 A 
HETATM   13  C   UNL     1      40.931 -15.510  -1.921  1.00  0.00     0.037 A 
HETATM   14  C   UNL     1      39.924 -14.943  -2.702  1.00  0.00     0.068 A 
HETATM   15  C   UNL     1      39.013 -14.069  -2.109  1.00  0.00     0.037 A 
HETATM   16  C   UNL     1      39.100 -13.784  -0.739  1.00  0.00     0.016 A 
BRANCH  14  17
HETATM   17  O   UNL     1      39.948 -15.315  -4.017  1.00  0.00    -0.356 OA
HETATM   18  C   UNL     1      38.933 -16.213  -4.444  1.00  0.00     0.210 C 
ENDBRANCH  14  17
ENDBRANCH   9  11
ENDBRANCH   1   5
BRANCH   2  19
HETATM   19  N   UNL     1      42.554 -15.840   6.325  1.00  0.00    -0.165 NA
HETATM   20  C   UNL     1      43.169 -16.981   6.389  1.00  0.00     0.157 A 
HETATM   21  C   UNL     1      43.602 -17.590   7.740  1.00  0.00     0.277 A 
HETATM   22  C   UNL     1      43.576 -17.960   5.367  1.00  0.00     0.027 A 
HETATM   23  O   UNL     1      43.501 -17.078   8.832  1.00  0.00    -0.266 OA
HETATM   24  N   UNL     1      44.099 -18.838   7.434  1.00  0.00    -0.321 N 
HETATM   25  C   UNL     1      44.093 -19.056   6.063  1.00  0.00     0.048 A 
HETATM   26  H   UNL     1      44.458 -19.465   8.138  1.00  0.00     0.169 HD
HETATM   27  C   UNL     1      44.566 -20.178   5.411  1.00  0.00     0.030 A 
HETATM   28  C   UNL     1      44.530 -20.179   4.015  1.00  0.00     0.002 A 
HETATM   29  C   UNL     1      44.050 -19.063   3.306  1.00  0.00     0.001 A 
HETATM   30  C   UNL     1      43.578 -17.932   3.983  1.00  0.00     0.016 A 
ENDBRANCH   2  19
TORSDOF 4
ENDMDL
MODEL 6
REMARK VINA RESULT:      -8.2      6.129      8.807
REMARK  4 active torsions:
REMARK  status: ('A' for Active; 'I' for Inactive)
REMARK    1  A    between atoms: O_2  and  C_3 
REMARK    2  A    between atoms: C_6  and  C_7 
REMARK    3  A    between atoms: C_11  and  C_12 
REMARK       I    between atoms: C_12  and  N_13 
REMARK    4  A    between atoms: N_13  and  N_14 
ROOT
HETATM    1  C   UNL     1      40.113 -12.235   6.488  1.00  0.00     0.289 C 
HETATM    2  N   UNL     1      40.746 -11.646   7.572  1.00  0.00    -0.241 N 
HETATM    3  O   UNL     1      38.923 -12.117   6.217  1.00  0.00    -0.264 OA
HETATM    4  H   UNL     1      41.670 -11.966   7.820  1.00  0.00     0.192 HD
ENDROOT
BRANCH   1   5
HETATM    5  C   UNL     1      41.004 -13.009   5.656  1.00  0.00     0.121 A 
HETATM    6  N   UNL     1      42.038 -12.437   4.970  1.00  0.00    -0.272 N 
HETATM    7  N   UNL     1      42.777 -13.309   4.263  1.00  0.00    -0.174 NA
HETATM    8  H   UNL     1      42.287 -11.452   4.954  1.00  0.00     0.189 HD
HETATM    9  C   UNL     1      42.224 -14.505   4.515  1.00  0.00     0.089 A 
HETATM   10  C   UNL     1      41.095 -14.355   5.365  1.00  0.00     0.071 A 
BRANCH   9  11
HETATM   11  C   UNL     1      42.753 -15.752   3.955  1.00  0.00    -0.005 A 
HETATM   12  C   UNL     1      43.325 -15.779   2.676  1.00  0.00     0.016 A 
HETATM   13  C   UNL     1      43.854 -16.964   2.156  1.00  0.00     0.037 A 
HETATM   14  C   UNL     1      43.825 -18.142   2.902  1.00  0.00     0.068 A 
HETATM   15  C   UNL     1      43.239 -18.133   4.167  1.00  0.00     0.037 A 
HETATM   16  C   UNL     1      42.705 -16.946   4.687  1.00  0.00     0.016 A 
BRANCH  14  17
HETATM   17  O   UNL     1      44.390 -19.221   2.282  1.00  0.00    -0.356 OA
HETATM   18  C   UNL     1      44.515 -20.408   3.054  1.00  0.00     0.210 C 
ENDBRANCH  14  17
ENDBRANCH   9  11
ENDBRANCH   1   5
BRANCH   2  19
HETATM   19  N   UNL     1      40.056 -10.934   8.504  1.00  0.00    -0.165 NA
HETATM   20  C   UNL     1      40.682 -10.575   9.583  1.00  0.00     0.157 A 
HETATM   21  C   UNL     1      39.932  -9.963  10.785  1.00  0.00     0.277 A 
HETATM   22  C   UNL     1      42.094 -10.644   9.993  1.00  0.00     0.027 A 
HETATM   23  O   UNL     1      38.756  -9.684  10.840  1.00  0.00    -0.266 OA
HETATM   24  N   UNL     1      40.880  -9.828  11.775  1.00  0.00    -0.321 N 
HETATM   25  C   UNL     1      42.135 -10.214  11.321  1.00  0.00     0.048 A 
HETATM   26  H   UNL     1      40.664  -9.448  12.684  1.00  0.00     0.169 HD
HETATM   27  C   UNL     1      43.315 -10.160  12.037  1.00  0.00     0.030 A 
HETATM   28  C   UNL     1      44.488 -10.535  11.379  1.00  0.00     0.002 A 
HETATM   29  C   UNL     1      44.462 -10.929  10.029  1.00  0.00     0.001 A 
HETATM   30  C   UNL     1      43.257 -10.974   9.318  1.00  0.00     0.016 A 
ENDBRANCH   2  19
TORSDOF 4
ENDMDL
MODEL 7
REMARK VINA RESULT:      -8.0      3.213      3.584
REMARK  4 active torsions:
REMARK  status: ('A' for Active; 'I' for Inactive)
REMARK    1  A    between atoms: O_2  and  C_3 
REMARK    2  A    between atoms: C_6  and  C_7 
REMARK    3  A    between atoms: C_11  and  C_12 
REMARK       I    between atoms: C_12  and  N_13 
REMARK    4  A    between atoms: N_13  and  N_14 
ROOT
HETATM    1  C   UNL     1      41.303 -15.950   4.798  1.00  0.00     0.289 C 
HETATM    2  N   UNL     1      42.647 -15.983   4.458  1.00  0.00    -0.241 N 
HETATM    3  O   UNL     1      40.832 -16.359   5.854  1.00  0.00    -0.264 OA
HETATM    4  H   UNL     1      42.904 -15.813   3.497  1.00  0.00     0.192 HD
ENDROOT
BRANCH   1   5
HETATM    5  C   UNL     1      40.470 -15.350   3.782  1.00  0.00     0.121 A 
HETATM    6  N   UNL     1      39.996 -16.063   2.716  1.00  0.00    -0.272 N 
HETATM    7  N   UNL     1      39.220 -15.350   1.881  1.00  0.00    -0.174 NA
HETATM    8  H   UNL     1      40.169 -17.043   2.514  1.00  0.00     0.189 HD
HETATM    9  C   UNL     1      39.160 -14.128   2.433  1.00  0.00     0.089 A 
HETATM   10  C   UNL     1      39.950 -14.083   3.613  1.00  0.00     0.071 A 
BRANCH   9  11
HETATM   11  C   UNL     1      38.377 -13.036   1.847  1.00  0.00    -0.005 A 
HETATM   12  C   UNL     1      38.446 -11.740   2.377  1.00  0.00     0.016 A 
HETATM   13  C   UNL     1      37.720 -10.695   1.799  1.00  0.00     0.037 A 
HETATM   14  C   UNL     1      36.916 -10.920   0.682  1.00  0.00     0.068 A 
HETATM   15  C   UNL     1      36.823 -12.210   0.159  1.00  0.00     0.037 A 
HETATM   16  C   UNL     1      37.547 -13.260   0.741  1.00  0.00     0.016 A 
BRANCH  14  17
HETATM   17  O   UNL     1      36.276  -9.809   0.209  1.00  0.00    -0.356 OA
HETATM   18  C   UNL     1      36.334  -9.589  -1.194  1.00  0.00     0.210 C 
ENDBRANCH  14  17
ENDBRANCH   9  11
ENDBRANCH   1   5
BRANCH   2  19
HETATM   19  N   UNL     1      43.575 -16.570   5.261  1.00  0.00    -0.165 NA
HETATM   20  C   UNL     1      43.995 -17.756   4.942  1.00  0.00     0.157 A 
HETATM   21  C   UNL     1      44.871 -18.587   5.903  1.00  0.00     0.277 A 
HETATM   22  C   UNL     1      43.789 -18.608   3.759  1.00  0.00     0.027 A 
HETATM   23  O   UNL     1      45.316 -18.232   6.971  1.00  0.00    -0.266 OA
HETATM   24  N   UNL     1      45.014 -19.815   5.295  1.00  0.00    -0.321 N 
HETATM   25  C   UNL     1      44.396 -19.832   4.051  1.00  0.00     0.048 A 
HETATM   26  H   UNL     1      45.547 -20.566   5.708  1.00  0.00     0.169 HD
HETATM   27  C   UNL     1      44.387 -20.884   3.156  1.00  0.00     0.030 A 
HETATM   28  C   UNL     1      43.762 -20.680   1.924  1.00  0.00     0.002 A 
HETATM   29  C   UNL     1      43.186 -19.437   1.606  1.00  0.00     0.001 A 
HETATM   30  C   UNL     1      43.207 -18.381   2.523  1.00  0.00     0.016 A 
ENDBRANCH   2  19
TORSDOF 4
ENDMDL
MODEL 8
REMARK VINA RESULT:      -8.0      3.085      8.936
REMARK  4 active torsions:
REMARK  status: ('A' for Active; 'I' for Inactive)
REMARK    1  A    between atoms: O_2  and  C_3 
REMARK    2  A    between atoms: C_6  and  C_7 
REMARK    3  A    between atoms: C_11  and  C_12 
REMARK       I    between atoms: C_12  and  N_13 
REMARK    4  A    between atoms: N_13  and  N_14 
ROOT
HETATM    1  C   UNL     1      39.702 -14.870   1.594  1.00  0.00     0.289 C 
HETATM    2  N   UNL     1      39.263 -14.624   0.303  1.00  0.00    -0.241 N 
HETATM    3  O   UNL     1      39.439 -14.181   2.573  1.00  0.00    -0.264 OA
HETATM    4  H   UNL     1      39.696 -15.126  -0.457  1.00  0.00     0.192 HD
ENDROOT
BRANCH   1   5
HETATM    5  C   UNL     1      40.507 -16.064   1.706  1.00  0.00     0.121 A 
HETATM    6  N   UNL     1      40.596 -16.979   0.694  1.00  0.00    -0.272 N 
HETATM    7  N   UNL     1      41.405 -18.018   0.963  1.00  0.00    -0.174 NA
HETATM    8  H   UNL     1      40.126 -16.938  -0.206  1.00  0.00     0.189 HD
HETATM    9  C   UNL     1      41.889 -17.764   2.189  1.00  0.00     0.089 A 
HETATM   10  C   UNL     1      41.330 -16.560   2.697  1.00  0.00     0.071 A 
BRANCH   9  11
HETATM   11  C   UNL     1      42.849 -18.647   2.857  1.00  0.00    -0.005 A 
HETATM   12  C   UNL     1      43.145 -18.486   4.217  1.00  0.00     0.016 A 
HETATM   13  C   UNL     1      44.040 -19.347   4.858  1.00  0.00     0.037 A 
HETATM   14  C   UNL     1      44.652 -20.387   4.158  1.00  0.00     0.068 A 
HETATM   15  C   UNL     1      44.380 -20.544   2.799  1.00  0.00     0.037 A 
HETATM   16  C   UNL     1      43.487 -19.678   2.155  1.00  0.00     0.016 A 
BRANCH  14  17
HETATM   17  O   UNL     1      45.489 -21.162   4.909  1.00  0.00    -0.356 OA
HETATM   18  C   UNL     1      45.096 -22.513   5.114  1.00  0.00     0.210 C 
ENDBRANCH  14  17
ENDBRANCH   9  11
ENDBRANCH   1   5
BRANCH   2  19
HETATM   19  N   UNL     1      38.548 -13.509  -0.010  1.00  0.00    -0.165 NA
HETATM   20  C   UNL     1      39.094 -12.634  -0.798  1.00  0.00     0.157 A 
HETATM   21  C   UNL     1      38.458 -11.247  -1.030  1.00  0.00     0.277 A 
HETATM   22  C   UNL     1      40.332 -12.639  -1.595  1.00  0.00     0.027 A 
HETATM   23  O   UNL     1      37.398 -10.854  -0.598  1.00  0.00    -0.266 OA
HETATM   24  N   UNL     1      39.363 -10.557  -1.806  1.00  0.00    -0.321 N 
HETATM   25  C   UNL     1      40.446 -11.358  -2.143  1.00  0.00     0.048 A 
HETATM   26  H   UNL     1      39.202  -9.609  -2.113  1.00  0.00     0.169 HD
HETATM   27  C   UNL     1      41.509 -11.000  -2.948  1.00  0.00     0.030 A 
HETATM   28  C   UNL     1      42.472 -11.974  -3.220  1.00  0.00     0.002 A 
HETATM   29  C   UNL     1      42.343 -13.277  -2.707  1.00  0.00     0.001 A 
HETATM   30  C   UNL     1      41.257 -13.624  -1.895  1.00  0.00     0.016 A 
ENDBRANCH   2  19
TORSDOF 4
ENDMDL
MODEL 9
REMARK VINA RESULT:      -7.8      3.822      8.411
REMARK  4 active torsions:
REMARK  status: ('A' for Active; 'I' for Inactive)
REMARK    1  A    between atoms: O_2  and  C_3 
REMARK    2  A    between atoms: C_6  and  C_7 
REMARK    3  A    between atoms: C_11  and  C_12 
REMARK       I    between atoms: C_12  and  N_13 
REMARK    4  A    between atoms: N_13  and  N_14 
ROOT
HETATM    1  C   UNL     1      39.304 -14.805   1.743  1.00  0.00     0.289 C 
HETATM    2  N   UNL     1      39.875 -13.556   1.929  1.00  0.00    -0.241 N 
HETATM    3  O   UNL     1      38.109 -15.016   1.567  1.00  0.00    -0.264 OA
HETATM    4  H   UNL     1      40.825 -13.507   2.265  1.00  0.00     0.192 HD
ENDROOT
BRANCH   1   5
HETATM    5  C   UNL     1      40.267 -15.881   1.746  1.00  0.00     0.121 A 
HETATM    6  N   UNL     1      40.711 -16.463   0.592  1.00  0.00    -0.272 N 
HETATM    7  N   UNL     1      41.621 -17.434   0.782  1.00  0.00    -0.174 NA
HETATM    8  H   UNL     1      40.427 -16.231  -0.355  1.00  0.00     0.189 HD
HETATM    9  C   UNL     1      41.804 -17.473   2.111  1.00  0.00     0.089 A 
HETATM   10  C   UNL     1      40.954 -16.531   2.751  1.00  0.00     0.071 A 
BRANCH   9  11
HETATM   11  C   UNL     1      42.754 -18.388   2.750  1.00  0.00    -0.005 A 
HETATM   12  C   UNL     1      43.014 -18.307   4.125  1.00  0.00     0.016 A 
HETATM   13  C   UNL     1      43.899 -19.199   4.737  1.00  0.00     0.037 A 
HETATM   14  C   UNL     1      44.539 -20.189   3.991  1.00  0.00     0.068 A 
HETATM   15  C   UNL     1      44.306 -20.265   2.618  1.00  0.00     0.037 A 
HETATM   16  C   UNL     1      43.421 -19.369   2.004  1.00  0.00     0.016 A 
BRANCH  14  17
HETATM   17  O   UNL     1      45.364 -21.002   4.716  1.00  0.00    -0.356 OA
HETATM   18  C   UNL     1      44.888 -22.313   4.990  1.00  0.00     0.210 C 
ENDBRANCH  14  17
ENDBRANCH   9  11
ENDBRANCH   1   5
BRANCH   2  19
HETATM   19  N   UNL     1      39.118 -12.429   2.021  1.00  0.00    -0.165 NA
HETATM   20  C   UNL     1      39.191 -11.732   3.113  1.00  0.00     0.157 A 
HETATM   21  C   UNL     1      38.214 -10.572   3.398  1.00  0.00     0.277 A 
HETATM   22  C   UNL     1      40.066 -11.809   4.295  1.00  0.00     0.027 A 
HETATM   23  O   UNL     1      37.363 -10.141   2.653  1.00  0.00    -0.266 OA
HETATM   24  N   UNL     1      38.504 -10.157   4.679  1.00  0.00    -0.321 N 
HETATM   25  C   UNL     1      39.580 -10.864   5.201  1.00  0.00     0.048 A 
HETATM   26  H   UNL     1      38.011  -9.401   5.129  1.00  0.00     0.169 HD
HETATM   27  C   UNL     1      40.162 -10.670   6.438  1.00  0.00     0.030 A 
HETATM   28  C   UNL     1      41.281 -11.444   6.755  1.00  0.00     0.002 A 
HETATM   29  C   UNL     1      41.803 -12.368   5.832  1.00  0.00     0.001 A 
HETATM   30  C   UNL     1      41.202 -12.548   4.581  1.00  0.00     0.016 A 
ENDBRANCH   2  19
TORSDOF 4
ENDMDL
MODEL 10
REMARK VINA RESULT:      -7.8      7.031     10.141
REMARK  4 active torsions:
REMARK  status: ('A' for Active; 'I' for Inactive)
REMARK    1  A    between atoms: O_2  and  C_3 
REMARK    2  A    between atoms: C_6  and  C_7 
REMARK    3  A    between atoms: C_11  and  C_12 
REMARK       I    between atoms: C_12  and  N_13 
REMARK    4  A    between atoms: N_13  and  N_14 
ROOT
HETATM    1  C   UNL     1      45.127 -11.474   9.670  1.00  0.00     0.289 C 
HETATM    2  N   UNL     1      44.295 -11.857  10.711  1.00  0.00    -0.241 N 
HETATM    3  O   UNL     1      45.825 -10.466   9.658  1.00  0.00    -0.264 OA
HETATM    4  H   UNL     1      43.616 -12.584  10.542  1.00  0.00     0.192 HD
ENDROOT
BRANCH   1   5
HETATM    5  C   UNL     1      45.126 -12.405   8.566  1.00  0.00     0.121 A 
HETATM    6  N   UNL     1      46.182 -12.512   7.705  1.00  0.00    -0.272 N 
HETATM    7  N   UNL     1      46.018 -13.443   6.749  1.00  0.00    -0.174 NA
HETATM    8  H   UNL     1      47.044 -11.975   7.728  1.00  0.00     0.189 HD
HETATM    9  C   UNL     1      44.820 -13.989   7.007  1.00  0.00     0.089 A 
HETATM   10  C   UNL     1      44.219 -13.347   8.124  1.00  0.00     0.071 A 
BRANCH   9  11
HETATM   11  C   UNL     1      44.262 -15.083   6.207  1.00  0.00    -0.005 A 
HETATM   12  C   UNL     1      43.521 -14.818   5.048  1.00  0.00     0.016 A 
HETATM   13  C   UNL     1      43.014 -15.865   4.272  1.00  0.00     0.037 A 
HETATM   14  C   UNL     1      43.239 -17.192   4.634  1.00  0.00     0.068 A 
HETATM   15  C   UNL     1      43.958 -17.468   5.798  1.00  0.00     0.037 A 
HETATM   16  C   UNL     1      44.463 -16.419   6.578  1.00  0.00     0.016 A 
BRANCH  14  17
HETATM   17  O   UNL     1      42.703 -18.114   3.780  1.00  0.00    -0.356 OA
HETATM   18  C   UNL     1      43.598 -19.072   3.231  1.00  0.00     0.210 C 
ENDBRANCH  14  17
ENDBRANCH   9  11
ENDBRANCH   1   5
BRANCH   2  19
HETATM   19  N   UNL     1      44.115 -11.073  11.808  1.00  0.00    -0.165 NA
HETATM   20  C   UNL     1      43.164 -10.190  11.778  1.00  0.00     0.157 A 
HETATM   21  C   UNL     1      43.026  -9.115  12.876  1.00  0.00     0.277 A 
HETATM   22  C   UNL     1      42.077  -9.920  10.822  1.00  0.00     0.027 A 
HETATM   23  O   UNL     1      43.693  -9.014  13.881  1.00  0.00    -0.266 OA
HETATM   24  N   UNL     1      42.004  -8.292  12.453  1.00  0.00    -0.321 N 
HETATM   25  C   UNL     1      41.446  -8.756  11.269  1.00  0.00     0.048 A 
HETATM   26  H   UNL     1      41.696  -7.493  12.986  1.00  0.00     0.169 HD
HETATM   27  C   UNL     1      40.375  -8.201  10.597  1.00  0.00     0.030 A 
HETATM   28  C   UNL     1      39.920  -8.856   9.451  1.00  0.00     0.002 A 
HETATM   29  C   UNL     1      40.522 -10.051   9.018  1.00  0.00     0.001 A 
HETATM   30  C   UNL     1      41.605 -10.602   9.714  1.00  0.00     0.016 A 
ENDBRANCH   2  19
TORSDOF 4
ENDMDL
