MODEL 1
REMARK VINA RESULT:      -9.0      0.000      0.000
REMARK  5 active torsions:
REMARK  status: ('A' for Active; 'I' for Inactive)
REMARK    1  A    between atoms: C_2  and  C_3 
REMARK       I    between atoms: C_3  and  N_4 
REMARK    2  A    between atoms: N_4  and  N_5 
REMARK       I    between atoms: N_5  and  C_6 
REMARK       I    between atoms: C_6  and  N_7 
REMARK    3  A    between atoms: N_7  and  C_8 
REMARK    4  A    between atoms: C_18  and  N_19 
REMARK       I    between atoms: N_19  and  C_20 
REMARK       I    between atoms: C_20  and  N_21 
REMARK    5  A    between atoms: N_21  and  C_22 
ROOT
HETATM    1  C   UNL     1      41.670 -14.389   4.424  1.00  0.00     0.019 A 
HETATM    2  C   UNL     1      42.222 -15.557   4.961  1.00  0.00     0.033 A 
HETATM    3  C   UNL     1      42.065 -16.764   4.274  1.00  0.00     0.019 A 
HETATM    4  C   UNL     1      41.377 -16.795   3.051  1.00  0.00     0.030 A 
HETATM    5  C   UNL     1      40.853 -15.622   2.500  1.00  0.00     0.036 A 
HETATM    6  C   UNL     1      40.992 -14.422   3.205  1.00  0.00     0.030 A 
ENDROOT
BRANCH   2   7
HETATM    7  C   UNL     1      43.015 -15.436   6.215  1.00  0.00     0.270 C 
HETATM    8  N   UNL     1      43.402 -14.163   6.604  1.00  0.00    -0.262 N 
HETATM    9  H   UNL     1      43.508 -13.438   5.900  1.00  0.00     0.190 HD
HETATM   10  O   UNL     1      43.328 -16.444   6.845  1.00  0.00    -0.266 OA
BRANCH   8  11
HETATM   11  N   UNL     1      44.320 -14.119   7.668  1.00  0.00    -0.249 N 
HETATM   12  C   UNL     1      44.492 -13.031   8.484  1.00  0.00     0.335 C 
HETATM   13  N   UNL     1      43.515 -12.084   8.349  1.00  0.00    -0.337 N 
HETATM   14  O   UNL     1      45.455 -12.963   9.233  1.00  0.00    -0.246 OA
HETATM   15  H   UNL     1      42.642 -12.499   8.054  1.00  0.00     0.164 HD
HETATM   16  H   UNL     1      45.002 -14.875   7.721  1.00  0.00     0.192 HD
BRANCH  13  17
HETATM   17  C   UNL     1      43.401 -10.840   9.109  1.00  0.00     0.086 C 
HETATM   18  C   UNL     1      41.952 -10.401   9.356  1.00  0.00     0.025 C 
HETATM   19  C   UNL     1      41.346 -10.902  10.661  1.00  0.00     0.002 C 
HETATM   20  C   UNL     1      42.251 -10.617  11.852  1.00  0.00     0.000 C 
HETATM   21  C   UNL     1      43.641 -11.211  11.665  1.00  0.00     0.002 C 
HETATM   22  C   UNL     1      44.295 -10.772  10.357  1.00  0.00     0.025 C 
ENDBRANCH  13  17
ENDBRANCH   8  11
ENDBRANCH   2   7
BRANCH   5  23
HETATM   23  N   UNL     1      40.256 -15.547   1.228  1.00  0.00    -0.309 N 
HETATM   24  C   UNL     1      40.753 -14.939   0.093  1.00  0.00     0.321 C 
HETATM   25  N   UNL     1      39.746 -14.773  -0.838  1.00  0.00    -0.338 N 
HETATM   26  O   UNL     1      41.899 -14.546  -0.070  1.00  0.00    -0.247 OA
HETATM   27  H   UNL     1      39.001 -15.449  -0.785  1.00  0.00     0.164 HD
HETATM   28  H   UNL     1      39.343 -15.963   1.142  1.00  0.00     0.170 HD
BRANCH  25  29
HETATM   29  C   UNL     1      39.937 -14.156  -2.153  1.00  0.00     0.086 C 
HETATM   30  C   UNL     1      40.673 -15.151  -3.070  1.00  0.00     0.025 C 
HETATM   31  C   UNL     1      39.793 -16.346  -3.447  1.00  0.00     0.002 C 
HETATM   32  C   UNL     1      38.474 -15.905  -4.075  1.00  0.00     0.000 C 
HETATM   33  C   UNL     1      37.737 -14.891  -3.205  1.00  0.00     0.002 C 
HETATM   34  C   UNL     1      38.635 -13.712  -2.839  1.00  0.00     0.025 C 
ENDBRANCH  25  29
ENDBRANCH   5  23
TORSDOF 5
ENDMDL
MODEL 2
REMARK VINA RESULT:      -9.0      2.126     10.758
REMARK  5 active torsions:
REMARK  status: ('A' for Active; 'I' for Inactive)
REMARK    1  A    between atoms: C_2  and  C_3 
REMARK       I    between atoms: C_3  and  N_4 
REMARK    2  A    between atoms: N_4  and  N_5 
REMARK       I    between atoms: N_5  and  C_6 
REMARK       I    between atoms: C_6  and  N_7 
REMARK    3  A    between atoms: N_7  and  C_8 
REMARK    4  A    between atoms: C_18  and  N_19 
REMARK       I    between atoms: N_19  and  C_20 
REMARK       I    between atoms: C_20  and  N_21 
REMARK    5  A    between atoms: N_21  and  C_22 
ROOT
HETATM    1  C   UNL     1      43.380 -14.184   3.330  1.00  0.00     0.019 A 
HETATM    2  C   UNL     1      43.124 -15.557   3.238  1.00  0.00     0.033 A 
HETATM    3  C   UNL     1      43.041 -16.316   4.410  1.00  0.00     0.019 A 
HETATM    4  C   UNL     1      43.196 -15.699   5.661  1.00  0.00     0.030 A 
HETATM    5  C   UNL     1      43.421 -14.323   5.753  1.00  0.00     0.036 A 
HETATM    6  C   UNL     1      43.527 -13.574   4.576  1.00  0.00     0.030 A 
ENDROOT
BRANCH   2   7
HETATM    7  C   UNL     1      42.882 -16.127   1.885  1.00  0.00     0.270 C 
HETATM    8  N   UNL     1      41.952 -15.487   1.080  1.00  0.00    -0.262 N 
HETATM    9  H   UNL     1      41.206 -14.950   1.513  1.00  0.00     0.190 HD
HETATM   10  O   UNL     1      43.473 -17.146   1.532  1.00  0.00    -0.266 OA
BRANCH   8  11
HETATM   11  N   UNL     1      41.605 -16.178  -0.094  1.00  0.00    -0.249 N 
HETATM   12  C   UNL     1      41.382 -15.569  -1.302  1.00  0.00     0.335 C 
HETATM   13  N   UNL     1      41.782 -14.262  -1.338  1.00  0.00    -0.337 N 
HETATM   14  O   UNL     1      40.860 -16.183  -2.220  1.00  0.00    -0.246 OA
HETATM   15  H   UNL     1      42.545 -14.095  -0.697  1.00  0.00     0.164 HD
HETATM   16  H   UNL     1      41.345 -17.158   0.007  1.00  0.00     0.192 HD
BRANCH  13  17
HETATM   17  C   UNL     1      41.716 -13.366  -2.492  1.00  0.00     0.086 C 
HETATM   18  C   UNL     1      40.362 -12.659  -2.644  1.00  0.00     0.025 C 
HETATM   19  C   UNL     1      40.270 -11.300  -1.962  1.00  0.00     0.002 C 
HETATM   20  C   UNL     1      41.441 -10.400  -2.333  1.00  0.00     0.000 C 
HETATM   21  C   UNL     1      42.781 -11.049  -2.014  1.00  0.00     0.002 C 
HETATM   22  C   UNL     1      42.927 -12.432  -2.645  1.00  0.00     0.025 C 
ENDBRANCH  13  17
ENDBRANCH   8  11
ENDBRANCH   2   7
BRANCH   5  23
HETATM   23  N   UNL     1      43.469 -13.611   6.967  1.00  0.00    -0.309 N 
HETATM   24  C   UNL     1      44.583 -13.287   7.715  1.00  0.00     0.321 C 
HETATM   25  N   UNL     1      44.205 -12.904   8.987  1.00  0.00    -0.338 N 
HETATM   26  O   UNL     1      45.745 -13.368   7.348  1.00  0.00    -0.247 OA
HETATM   27  H   UNL     1      43.285 -12.500   9.055  1.00  0.00     0.164 HD
HETATM   28  H   UNL     1      42.582 -13.329   7.350  1.00  0.00     0.170 HD
BRANCH  25  29
HETATM   29  C   UNL     1      45.145 -12.498  10.035  1.00  0.00     0.086 C 
HETATM   30  C   UNL     1      45.459 -10.999   9.872  1.00  0.00     0.025 C 
HETATM   31  C   UNL     1      44.255 -10.118  10.220  1.00  0.00     0.002 C 
HETATM   32  C   UNL     1      43.721 -10.410  11.619  1.00  0.00     0.000 C 
HETATM   33  C   UNL     1      43.433 -11.895  11.823  1.00  0.00     0.002 C 
HETATM   34  C   UNL     1      44.645 -12.752  11.467  1.00  0.00     0.025 C 
ENDBRANCH  25  29
ENDBRANCH   5  23
TORSDOF 5
ENDMDL
MODEL 3
REMARK VINA RESULT:      -9.0      4.339      6.069
REMARK  5 active torsions:
REMARK  status: ('A' for Active; 'I' for Inactive)
REMARK    1  A    between atoms: C_2  and  C_3 
REMARK       I    between atoms: C_3  and  N_4 
REMARK    2  A    between atoms: N_4  and  N_5 
REMARK       I    between atoms: N_5  and  C_6 
REMARK       I    between atoms: C_6  and  N_7 
REMARK    3  A    between atoms: N_7  and  C_8 
REMARK    4  A    between atoms: C_18  and  N_19 
REMARK       I    between atoms: N_19  and  C_20 
REMARK       I    between atoms: C_20  and  N_21 
REMARK    5  A    between atoms: N_21  and  C_22 
ROOT
HETATM    1  C   UNL     1      40.442 -14.604   4.095  1.00  0.00     0.019 A 
HETATM    2  C   UNL     1      40.155 -14.376   5.445  1.00  0.00     0.033 A 
HETATM    3  C   UNL     1      40.373 -15.400   6.372  1.00  0.00     0.019 A 
HETATM    4  C   UNL     1      40.891 -16.634   5.949  1.00  0.00     0.030 A 
HETATM    5  C   UNL     1      41.206 -16.850   4.605  1.00  0.00     0.036 A 
HETATM    6  C   UNL     1      40.963 -15.830   3.679  1.00  0.00     0.030 A 
ENDROOT
BRANCH   2   7
HETATM    7  C   UNL     1      39.694 -13.016   5.836  1.00  0.00     0.270 C 
HETATM    8  N   UNL     1      39.965 -12.597   7.129  1.00  0.00    -0.262 N 
HETATM    9  H   UNL     1      40.082 -13.291   7.862  1.00  0.00     0.190 HD
HETATM   10  O   UNL     1      39.071 -12.323   5.033  1.00  0.00    -0.266 OA
BRANCH   8  11
HETATM   11  N   UNL     1      39.331 -11.403   7.514  1.00  0.00    -0.249 N 
HETATM   12  C   UNL     1      39.777 -10.593   8.527  1.00  0.00     0.335 C 
HETATM   13  N   UNL     1      41.037 -10.900   8.959  1.00  0.00    -0.337 N 
HETATM   14  O   UNL     1      39.065  -9.704   8.969  1.00  0.00    -0.246 OA
HETATM   15  H   UNL     1      41.585 -11.320   8.222  1.00  0.00     0.164 HD
HETATM   16  H   UNL     1      38.404 -11.228   7.129  1.00  0.00     0.192 HD
BRANCH  13  17
HETATM   17  C   UNL     1      41.796 -10.194   9.991  1.00  0.00     0.086 C 
HETATM   18  C   UNL     1      41.131 -10.226  11.374  1.00  0.00     0.025 C 
HETATM   19  C   UNL     1      41.568 -11.382  12.266  1.00  0.00     0.002 C 
HETATM   20  C   UNL     1      43.085 -11.492  12.347  1.00  0.00     0.000 C 
HETATM   21  C   UNL     1      43.719 -11.635  10.970  1.00  0.00     0.002 C 
HETATM   22  C   UNL     1      43.297 -10.522  10.013  1.00  0.00     0.025 C 
ENDBRANCH  13  17
ENDBRANCH   8  11
ENDBRANCH   2   7
BRANCH   5  23
HETATM   23  N   UNL     1      41.837 -18.012   4.120  1.00  0.00    -0.309 N 
HETATM   24  C   UNL     1      43.188 -18.286   4.076  1.00  0.00     0.321 C 
HETATM   25  N   UNL     1      43.431 -19.349   3.227  1.00  0.00    -0.338 N 
HETATM   26  O   UNL     1      44.068 -17.663   4.651  1.00  0.00    -0.247 OA
HETATM   27  H   UNL     1      42.672 -20.005   3.139  1.00  0.00     0.164 HD
HETATM   28  H   UNL     1      41.230 -18.715   3.732  1.00  0.00     0.170 HD
BRANCH  25  29
HETATM   29  C   UNL     1      44.763 -19.894   2.953  1.00  0.00     0.086 C 
HETATM   30  C   UNL     1      45.376 -20.401   4.271  1.00  0.00     0.025 C 
HETATM   31  C   UNL     1      44.664 -21.653   4.794  1.00  0.00     0.002 C 
HETATM   32  C   UNL     1      44.629 -22.765   3.749  1.00  0.00     0.000 C 
HETATM   33  C   UNL     1      44.058 -22.283   2.419  1.00  0.00     0.002 C 
HETATM   34  C   UNL     1      44.781 -21.033   1.921  1.00  0.00     0.025 C 
ENDBRANCH  25  29
ENDBRANCH   5  23
TORSDOF 5
ENDMDL
MODEL 4
REMARK VINA RESULT:      -8.9      3.896      5.515
REMARK  5 active torsions:
REMARK  status: ('A' for Active; 'I' for Inactive)
REMARK    1  A    between atoms: C_2  and  C_3 
REMARK       I    between atoms: C_3  and  N_4 
REMARK    2  A    between atoms: N_4  and  N_5 
REMARK       I    between atoms: N_5  and  C_6 
REMARK       I    between atoms: C_6  and  N_7 
REMARK    3  A    between atoms: N_7  and  C_8 
REMARK    4  A    between atoms: C_18  and  N_19 
REMARK       I    between atoms: N_19  and  C_20 
REMARK       I    between atoms: C_20  and  N_21 
REMARK    5  A    between atoms: N_21  and  C_22 
ROOT
HETATM    1  C   UNL     1      41.182 -11.384   6.667  1.00  0.00     0.019 A 
HETATM    2  C   UNL     1      39.846 -11.618   7.010  1.00  0.00     0.033 A 
HETATM    3  C   UNL     1      39.203 -12.757   6.516  1.00  0.00     0.019 A 
HETATM    4  C   UNL     1      39.901 -13.661   5.699  1.00  0.00     0.030 A 
HETATM    5  C   UNL     1      41.244 -13.442   5.382  1.00  0.00     0.036 A 
HETATM    6  C   UNL     1      41.874 -12.288   5.860  1.00  0.00     0.030 A 
ENDROOT
BRANCH   2   7
HETATM    7  C   UNL     1      39.196 -10.666   7.952  1.00  0.00     0.270 C 
HETATM    8  N   UNL     1      39.056 -11.069   9.271  1.00  0.00    -0.262 N 
HETATM    9  H   UNL     1      39.008 -12.061   9.485  1.00  0.00     0.190 HD
HETATM   10  O   UNL     1      38.779  -9.584   7.543  1.00  0.00    -0.266 OA
BRANCH   8  11
HETATM   11  N   UNL     1      38.254 -10.233  10.067  1.00  0.00    -0.249 N 
HETATM   12  C   UNL     1      38.728  -9.503  11.127  1.00  0.00     0.335 C 
HETATM   13  N   UNL     1      40.092  -9.446  11.187  1.00  0.00    -0.337 N 
HETATM   14  O   UNL     1      37.954  -8.985  11.919  1.00  0.00    -0.246 OA
HETATM   15  H   UNL     1      40.503  -9.532  10.268  1.00  0.00     0.164 HD
HETATM   16  H   UNL     1      37.245 -10.311   9.948  1.00  0.00     0.192 HD
BRANCH  13  17
HETATM   17  C   UNL     1      40.888  -8.712  12.171  1.00  0.00     0.086 C 
HETATM   18  C   UNL     1      40.752  -9.256  13.600  1.00  0.00     0.025 C 
HETATM   19  C   UNL     1      41.788 -10.304  13.986  1.00  0.00     0.002 C 
HETATM   20  C   UNL     1      43.205  -9.841  13.672  1.00  0.00     0.000 C 
HETATM   21  C   UNL     1      43.369  -9.468  12.205  1.00  0.00     0.002 C 
HETATM   22  C   UNL     1      42.338  -8.441  11.743  1.00  0.00     0.025 C 
ENDBRANCH  13  17
ENDBRANCH   8  11
ENDBRANCH   2   7
BRANCH   5  23
HETATM   23  N   UNL     1      42.045 -14.356   4.670  1.00  0.00    -0.309 N 
HETATM   24  C   UNL     1      42.128 -14.523   3.303  1.00  0.00     0.321 C 
HETATM   25  N   UNL     1      42.740 -15.726   3.008  1.00  0.00    -0.338 N 
HETATM   26  O   UNL     1      41.687 -13.761   2.456  1.00  0.00    -0.247 OA
HETATM   27  H   UNL     1      43.388 -16.056   3.704  1.00  0.00     0.164 HD
HETATM   28  H   UNL     1      42.603 -14.982   5.227  1.00  0.00     0.170 HD
BRANCH  25  29
HETATM   29  C   UNL     1      42.983 -16.211   1.647  1.00  0.00     0.086 C 
HETATM   30  C   UNL     1      44.252 -17.084   1.646  1.00  0.00     0.025 C 
HETATM   31  C   UNL     1      44.039 -18.410   2.382  1.00  0.00     0.002 C 
HETATM   32  C   UNL     1      42.849 -19.185   1.825  1.00  0.00     0.000 C 
HETATM   33  C   UNL     1      41.582 -18.335   1.780  1.00  0.00     0.002 C 
HETATM   34  C   UNL     1      41.820 -17.018   1.045  1.00  0.00     0.025 C 
ENDBRANCH  25  29
ENDBRANCH   5  23
TORSDOF 5
ENDMDL
MODEL 5
REMARK VINA RESULT:      -8.8      3.533     10.519
REMARK  5 active torsions:
REMARK  status: ('A' for Active; 'I' for Inactive)
REMARK    1  A    between atoms: C_2  and  C_3 
REMARK       I    between atoms: C_3  and  N_4 
REMARK    2  A    between atoms: N_4  and  N_5 
REMARK       I    between atoms: N_5  and  C_6 
REMARK       I    between atoms: C_6  and  N_7 
REMARK    3  A    between atoms: N_7  and  C_8 
REMARK    4  A    between atoms: C_18  and  N_19 
REMARK       I    between atoms: N_19  and  C_20 
REMARK       I    between atoms: C_20  and  N_21 
REMARK    5  A    between atoms: N_21  and  C_22 
ROOT
HETATM    1  C   UNL     1      40.121 -14.020   5.326  1.00  0.00     0.019 A 
HETATM    2  C   UNL     1      39.715 -13.323   4.183  1.00  0.00     0.033 A 
HETATM    3  C   UNL     1      39.397 -11.965   4.289  1.00  0.00     0.019 A 
HETATM    4  C   UNL     1      39.505 -11.310   5.526  1.00  0.00     0.030 A 
HETATM    5  C   UNL     1      39.940 -12.001   6.660  1.00  0.00     0.036 A 
HETATM    6  C   UNL     1      40.232 -13.364   6.553  1.00  0.00     0.030 A 
ENDROOT
BRANCH   2   7
HETATM    7  C   UNL     1      39.710 -14.057   2.888  1.00  0.00     0.270 C 
HETATM    8  N   UNL     1      39.640 -15.440   2.940  1.00  0.00    -0.262 N 
HETATM    9  H   UNL     1      39.986 -15.925   3.763  1.00  0.00     0.190 HD
HETATM   10  O   UNL     1      39.797 -13.438   1.830  1.00  0.00    -0.266 OA
BRANCH   8  11
HETATM   11  N   UNL     1      39.850 -16.093   1.713  1.00  0.00    -0.249 N 
HETATM   12  C   UNL     1      41.051 -16.633   1.331  1.00  0.00     0.335 C 
HETATM   13  N   UNL     1      41.961 -16.719   2.347  1.00  0.00    -0.337 N 
HETATM   14  O   UNL     1      41.237 -16.975   0.172  1.00  0.00    -0.246 OA
HETATM   15  H   UNL     1      41.503 -16.813   3.242  1.00  0.00     0.164 HD
HETATM   16  H   UNL     1      39.114 -16.008   1.013  1.00  0.00     0.192 HD
BRANCH  13  17
HETATM   17  C   UNL     1      43.307 -17.285   2.260  1.00  0.00     0.086 C 
HETATM   18  C   UNL     1      43.979 -17.485   3.626  1.00  0.00     0.025 C 
HETATM   19  C   UNL     1      43.765 -18.859   4.248  1.00  0.00     0.002 C 
HETATM   20  C   UNL     1      44.090 -19.980   3.270  1.00  0.00     0.000 C 
HETATM   21  C   UNL     1      43.284 -19.864   1.983  1.00  0.00     0.002 C 
HETATM   22  C   UNL     1      43.430 -18.496   1.322  1.00  0.00     0.025 C 
ENDBRANCH  13  17
ENDBRANCH   8  11
ENDBRANCH   2   7
BRANCH   5  23
HETATM   23  N   UNL     1      40.187 -11.394   7.906  1.00  0.00    -0.309 N 
HETATM   24  C   UNL     1      41.250 -10.588   8.260  1.00  0.00     0.321 C 
HETATM   25  N   UNL     1      41.327 -10.478   9.635  1.00  0.00    -0.338 N 
HETATM   26  O   UNL     1      42.052 -10.077   7.493  1.00  0.00    -0.247 OA
HETATM   27  H   UNL     1      40.450 -10.579  10.120  1.00  0.00     0.164 HD
HETATM   28  H   UNL     1      39.523 -11.594   8.636  1.00  0.00     0.170 HD
BRANCH  25  29
HETATM   29  C   UNL     1      42.344  -9.695  10.340  1.00  0.00     0.086 C 
HETATM   30  C   UNL     1      41.729  -9.122  11.631  1.00  0.00     0.025 C 
HETATM   31  C   UNL     1      41.447 -10.213  12.668  1.00  0.00     0.002 C 
HETATM   32  C   UNL     1      42.694 -11.035  12.981  1.00  0.00     0.000 C 
HETATM   33  C   UNL     1      43.347 -11.588  11.718  1.00  0.00     0.002 C 
HETATM   34  C   UNL     1      43.615 -10.484  10.699  1.00  0.00     0.025 C 
ENDBRANCH  25  29
ENDBRANCH   5  23
TORSDOF 5
ENDMDL
MODEL 6
REMARK VINA RESULT:      -8.7      3.890     10.946
REMARK  5 active torsions:
REMARK  status: ('A' for Active; 'I' for Inactive)
REMARK    1  A    between atoms: C_2  and  C_3 
REMARK       I    between atoms: C_3  and  N_4 
REMARK    2  A    between atoms: N_4  and  N_5 
REMARK       I    between atoms: N_5  and  C_6 
REMARK       I    between atoms: C_6  and  N_7 
REMARK    3  A    between atoms: N_7  and  C_8 
REMARK    4  A    between atoms: C_18  and  N_19 
REMARK       I    between atoms: N_19  and  C_20 
REMARK       I    between atoms: C_20  and  N_21 
REMARK    5  A    between atoms: N_21  and  C_22 
ROOT
HETATM    1  C   UNL     1      39.426 -12.656   6.437  1.00  0.00     0.019 A 
HETATM    2  C   UNL     1      40.098 -12.458   5.226  1.00  0.00     0.033 A 
HETATM    3  C   UNL     1      41.014 -11.407   5.117  1.00  0.00     0.019 A 
HETATM    4  C   UNL     1      41.265 -10.575   6.219  1.00  0.00     0.030 A 
HETATM    5  C   UNL     1      40.616 -10.792   7.437  1.00  0.00     0.036 A 
HETATM    6  C   UNL     1      39.684 -11.830   7.532  1.00  0.00     0.030 A 
ENDROOT
BRANCH   2   7
HETATM    7  C   UNL     1      39.850 -13.432   4.128  1.00  0.00     0.270 C 
HETATM    8  N   UNL     1      39.856 -14.778   4.456  1.00  0.00    -0.262 N 
HETATM    9  H   UNL     1      40.392 -15.092   5.261  1.00  0.00     0.190 HD
HETATM   10  O   UNL     1      39.680 -13.032   2.978  1.00  0.00    -0.266 OA
BRANCH   8  11
HETATM   11  N   UNL     1      39.828 -15.659   3.361  1.00  0.00    -0.249 N 
HETATM   12  C   UNL     1      40.933 -16.311   2.876  1.00  0.00     0.335 C 
HETATM   13  N   UNL     1      42.017 -16.243   3.706  1.00  0.00    -0.337 N 
HETATM   14  O   UNL     1      40.896 -16.873   1.792  1.00  0.00    -0.246 OA
HETATM   15  H   UNL     1      41.734 -16.148   4.672  1.00  0.00     0.164 HD
HETATM   16  H   UNL     1      38.975 -15.676   2.804  1.00  0.00     0.192 HD
BRANCH  13  17
HETATM   17  C   UNL     1      43.320 -16.872   3.486  1.00  0.00     0.086 C 
HETATM   18  C   UNL     1      43.358 -18.356   3.871  1.00  0.00     0.025 C 
HETATM   19  C   UNL     1      43.036 -19.320   2.735  1.00  0.00     0.002 C 
HETATM   20  C   UNL     1      43.858 -19.020   1.489  1.00  0.00     0.000 C 
HETATM   21  C   UNL     1      43.673 -17.584   1.017  1.00  0.00     0.002 C 
HETATM   22  C   UNL     1      43.952 -16.565   2.119  1.00  0.00     0.025 C 
ENDBRANCH  13  17
ENDBRANCH   8  11
ENDBRANCH   2   7
BRANCH   5  23
HETATM   23  N   UNL     1      40.899 -10.081   8.619  1.00  0.00    -0.309 N 
HETATM   24  C   UNL     1      42.108  -9.974   9.274  1.00  0.00     0.321 C 
HETATM   25  N   UNL     1      41.914  -9.498  10.557  1.00  0.00    -0.338 N 
HETATM   26  O   UNL     1      43.200 -10.294   8.828  1.00  0.00    -0.247 OA
HETATM   27  H   UNL     1      41.101  -8.915  10.676  1.00  0.00     0.164 HD
HETATM   28  H   UNL     1      40.118  -9.619   9.054  1.00  0.00     0.170 HD
BRANCH  25  29
HETATM   29  C   UNL     1      42.993  -9.269  11.520  1.00  0.00     0.086 C 
HETATM   30  C   UNL     1      42.489  -8.315  12.619  1.00  0.00     0.025 C 
HETATM   31  C   UNL     1      41.445  -8.977  13.522  1.00  0.00     0.002 C 
HETATM   32  C   UNL     1      41.962 -10.278  14.130  1.00  0.00     0.000 C 
HETATM   33  C   UNL     1      42.501 -11.232  13.067  1.00  0.00     0.002 C 
HETATM   34  C   UNL     1      43.537 -10.548  12.178  1.00  0.00     0.025 C 
ENDBRANCH  25  29
ENDBRANCH   5  23
TORSDOF 5
ENDMDL
MODEL 7
REMARK VINA RESULT:      -8.4      3.566      5.639
REMARK  5 active torsions:
REMARK  status: ('A' for Active; 'I' for Inactive)
REMARK    1  A    between atoms: C_2  and  C_3 
REMARK       I    between atoms: C_3  and  N_4 
REMARK    2  A    between atoms: N_4  and  N_5 
REMARK       I    between atoms: N_5  and  C_6 
REMARK       I    between atoms: C_6  and  N_7 
REMARK    3  A    between atoms: N_7  and  C_8 
REMARK    4  A    between atoms: C_18  and  N_19 
REMARK       I    between atoms: N_19  and  C_20 
REMARK       I    between atoms: C_20  and  N_21 
REMARK    5  A    between atoms: N_21  and  C_22 
ROOT
HETATM    1  C   UNL     1      44.870 -13.406   7.896  1.00  0.00     0.019 A 
HETATM    2  C   UNL     1      44.077 -12.372   8.404  1.00  0.00     0.033 A 
HETATM    3  C   UNL     1      42.981 -11.923   7.659  1.00  0.00     0.019 A 
HETATM    4  C   UNL     1      42.675 -12.520   6.426  1.00  0.00     0.030 A 
HETATM    5  C   UNL     1      43.450 -13.574   5.935  1.00  0.00     0.036 A 
HETATM    6  C   UNL     1      44.559 -14.001   6.673  1.00  0.00     0.030 A 
ENDROOT
BRANCH   2   7
HETATM    7  C   UNL     1      44.405 -11.847   9.757  1.00  0.00     0.270 C 
HETATM    8  N   UNL     1      43.509 -12.115  10.780  1.00  0.00    -0.262 N 
HETATM    9  H   UNL     1      42.532 -12.278  10.555  1.00  0.00     0.190 HD
HETATM   10  O   UNL     1      45.423 -11.178   9.928  1.00  0.00    -0.266 OA
BRANCH   8  11
HETATM   11  N   UNL     1      43.752 -11.426  11.981  1.00  0.00    -0.249 N 
HETATM   12  C   UNL     1      43.127 -10.257  12.331  1.00  0.00     0.335 C 
HETATM   13  N   UNL     1      42.054  -9.951  11.541  1.00  0.00    -0.337 N 
HETATM   14  O   UNL     1      43.543  -9.586  13.264  1.00  0.00    -0.246 OA
HETATM   15  H   UNL     1      41.629 -10.786  11.163  1.00  0.00     0.164 HD
HETATM   16  H   UNL     1      44.555 -11.728  12.533  1.00  0.00     0.192 HD
BRANCH  13  17
HETATM   17  C   UNL     1      41.166  -8.798  11.692  1.00  0.00     0.086 C 
HETATM   18  C   UNL     1      40.691  -8.210  10.357  1.00  0.00     0.025 C 
HETATM   19  C   UNL     1      39.375  -8.778   9.840  1.00  0.00     0.002 C 
HETATM   20  C   UNL     1      38.290  -8.750  10.907  1.00  0.00     0.000 C 
HETATM   21  C   UNL     1      38.712  -9.491  12.168  1.00  0.00     0.002 C 
HETATM   22  C   UNL     1      40.044  -8.990  12.723  1.00  0.00     0.025 C 
ENDBRANCH  13  17
ENDBRANCH   8  11
ENDBRANCH   2   7
BRANCH   5  23
HETATM   23  N   UNL     1      43.142 -14.302   4.770  1.00  0.00    -0.309 N 
HETATM   24  C   UNL     1      42.384 -15.450   4.664  1.00  0.00     0.321 C 
HETATM   25  N   UNL     1      42.599 -16.051   3.439  1.00  0.00    -0.338 N 
HETATM   26  O   UNL     1      41.661 -15.917   5.531  1.00  0.00    -0.247 OA
HETATM   27  H   UNL     1      42.862 -15.422   2.697  1.00  0.00     0.164 HD
HETATM   28  H   UNL     1      43.548 -13.960   3.914  1.00  0.00     0.170 HD
BRANCH  25  29
HETATM   29  C   UNL     1      41.948 -17.290   3.007  1.00  0.00     0.086 C 
HETATM   30  C   UNL     1      42.071 -17.413   1.477  1.00  0.00     0.025 C 
HETATM   31  C   UNL     1      43.512 -17.685   1.034  1.00  0.00     0.002 C 
HETATM   32  C   UNL     1      44.096 -18.914   1.725  1.00  0.00     0.000 C 
HETATM   33  C   UNL     1      43.958 -18.838   3.242  1.00  0.00     0.002 C 
HETATM   34  C   UNL     1      42.515 -18.563   3.658  1.00  0.00     0.025 C 
ENDBRANCH  25  29
ENDBRANCH   5  23
TORSDOF 5
ENDMDL
MODEL 8
REMARK VINA RESULT:      -8.4      6.091      9.423
REMARK  5 active torsions:
REMARK  status: ('A' for Active; 'I' for Inactive)
REMARK    1  A    between atoms: C_2  and  C_3 
REMARK       I    between atoms: C_3  and  N_4 
REMARK    2  A    between atoms: N_4  and  N_5 
REMARK       I    between atoms: N_5  and  C_6 
REMARK       I    between atoms: C_6  and  N_7 
REMARK    3  A    between atoms: N_7  and  C_8 
REMARK    4  A    between atoms: C_18  and  N_19 
REMARK       I    between atoms: N_19  and  C_20 
REMARK       I    between atoms: C_20  and  N_21 
REMARK    5  A    between atoms: N_21  and  C_22 
ROOT
HETATM    1  C   UNL     1      37.868 -14.092   0.998  1.00  0.00     0.019 A 
HETATM    2  C   UNL     1      37.817 -12.744   1.370  1.00  0.00     0.033 A 
HETATM    3  C   UNL     1      38.667 -12.282   2.379  1.00  0.00     0.019 A 
HETATM    4  C   UNL     1      39.572 -13.160   2.996  1.00  0.00     0.030 A 
HETATM    5  C   UNL     1      39.644 -14.499   2.602  1.00  0.00     0.036 A 
HETATM    6  C   UNL     1      38.774 -14.961   1.609  1.00  0.00     0.030 A 
ENDROOT
BRANCH   2   7
HETATM    7  C   UNL     1      36.898 -11.851   0.613  1.00  0.00     0.270 C 
HETATM    8  N   UNL     1      35.664 -11.577   1.181  1.00  0.00    -0.262 N 
HETATM    9  H   UNL     1      35.255 -12.245   1.828  1.00  0.00     0.190 HD
HETATM   10  O   UNL     1      37.233 -11.412  -0.486  1.00  0.00    -0.266 OA
BRANCH   8  11
HETATM   11  N   UNL     1      34.757 -10.908   0.341  1.00  0.00    -0.249 N 
HETATM   12  C   UNL     1      33.550 -10.410   0.761  1.00  0.00     0.335 C 
HETATM   13  N   UNL     1      33.414 -10.381   2.121  1.00  0.00    -0.337 N 
HETATM   14  O   UNL     1      32.710 -10.051  -0.050  1.00  0.00    -0.246 OA
HETATM   15  H   UNL     1      34.310 -10.286   2.577  1.00  0.00     0.164 HD
HETATM   16  H   UNL     1      34.939 -10.949  -0.661  1.00  0.00     0.192 HD
BRANCH  13  17
HETATM   17  C   UNL     1      32.265  -9.867   2.867  1.00  0.00     0.086 C 
HETATM   18  C   UNL     1      32.048 -10.563   4.217  1.00  0.00     0.025 C 
HETATM   19  C   UNL     1      32.735  -9.893   5.400  1.00  0.00     0.002 C 
HETATM   20  C   UNL     1      32.433  -8.402   5.459  1.00  0.00     0.000 C 
HETATM   21  C   UNL     1      32.817  -7.692   4.168  1.00  0.00     0.002 C 
HETATM   22  C   UNL     1      32.184  -8.334   2.936  1.00  0.00     0.025 C 
ENDBRANCH  13  17
ENDBRANCH   8  11
ENDBRANCH   2   7
BRANCH   5  23
HETATM   23  N   UNL     1      40.600 -15.412   3.085  1.00  0.00    -0.309 N 
HETATM   24  C   UNL     1      41.942 -15.478   2.770  1.00  0.00     0.321 C 
HETATM   25  N   UNL     1      42.462 -16.697   3.159  1.00  0.00    -0.338 N 
HETATM   26  O   UNL     1      42.588 -14.620   2.188  1.00  0.00    -0.247 OA
HETATM   27  H   UNL     1      41.997 -17.129   3.940  1.00  0.00     0.164 HD
HETATM   28  H   UNL     1      40.258 -16.121   3.712  1.00  0.00     0.170 HD
BRANCH  25  29
HETATM   29  C   UNL     1      43.861 -17.092   2.969  1.00  0.00     0.086 C 
HETATM   30  C   UNL     1      44.290 -17.991   4.143  1.00  0.00     0.025 C 
HETATM   31  C   UNL     1      43.606 -19.360   4.100  1.00  0.00     0.002 C 
HETATM   32  C   UNL     1      43.830 -20.067   2.766  1.00  0.00     0.000 C 
HETATM   33  C   UNL     1      43.446 -19.186   1.581  1.00  0.00     0.002 C 
HETATM   34  C   UNL     1      44.137 -17.827   1.647  1.00  0.00     0.025 C 
ENDBRANCH  25  29
ENDBRANCH   5  23
TORSDOF 5
ENDMDL
MODEL 9
REMARK VINA RESULT:      -8.3      3.884      9.970
REMARK  5 active torsions:
REMARK  status: ('A' for Active; 'I' for Inactive)
REMARK    1  A    between atoms: C_2  and  C_3 
REMARK       I    between atoms: C_3  and  N_4 
REMARK    2  A    between atoms: N_4  and  N_5 
REMARK       I    between atoms: N_5  and  C_6 
REMARK       I    between atoms: C_6  and  N_7 
REMARK    3  A    between atoms: N_7  and  C_8 
REMARK    4  A    between atoms: C_18  and  N_19 
REMARK       I    between atoms: N_19  and  C_20 
REMARK       I    between atoms: C_20  and  N_21 
REMARK    5  A    between atoms: N_21  and  C_22 
ROOT
HETATM    1  C   UNL     1      40.931 -15.595   5.062  1.00  0.00     0.019 A 
HETATM    2  C   UNL     1      40.689 -15.143   3.761  1.00  0.00     0.033 A 
HETATM    3  C   UNL     1      40.013 -13.934   3.572  1.00  0.00     0.019 A 
HETATM    4  C   UNL     1      39.600 -13.178   4.680  1.00  0.00     0.030 A 
HETATM    5  C   UNL     1      39.868 -13.615   5.980  1.00  0.00     0.036 A 
HETATM    6  C   UNL     1      40.524 -14.838   6.161  1.00  0.00     0.030 A 
ENDROOT
BRANCH   2   7
HETATM    7  C   UNL     1      41.234 -15.950   2.634  1.00  0.00     0.270 C 
HETATM    8  N   UNL     1      41.153 -17.330   2.741  1.00  0.00    -0.262 N 
HETATM    9  H   UNL     1      41.120 -17.756   3.663  1.00  0.00     0.190 HD
HETATM   10  O   UNL     1      41.758 -15.391   1.673  1.00  0.00    -0.266 OA
BRANCH   8  11
HETATM   11  N   UNL     1      41.863 -18.046   1.762  1.00  0.00    -0.249 N 
HETATM   12  C   UNL     1      43.073 -18.651   1.985  1.00  0.00     0.335 C 
HETATM   13  N   UNL     1      43.411 -18.729   3.307  1.00  0.00    -0.337 N 
HETATM   14  O   UNL     1      43.749 -19.052   1.049  1.00  0.00    -0.246 OA
HETATM   15  H   UNL     1      42.589 -18.764   3.894  1.00  0.00     0.164 HD
HETATM   16  H   UNL     1      41.536 -17.962   0.800  1.00  0.00     0.192 HD
BRANCH  13  17
HETATM   17  C   UNL     1      44.612 -19.354   3.861  1.00  0.00     0.086 C 
HETATM   18  C   UNL     1      44.633 -19.394   5.395  1.00  0.00     0.025 C 
HETATM   19  C   UNL     1      44.054 -20.662   6.009  1.00  0.00     0.002 C 
HETATM   20  C   UNL     1      44.651 -21.916   5.386  1.00  0.00     0.000 C 
HETATM   21  C   UNL     1      44.468 -21.944   3.875  1.00  0.00     0.002 C 
HETATM   22  C   UNL     1      45.002 -20.684   3.197  1.00  0.00     0.025 C 
ENDBRANCH  13  17
ENDBRANCH   8  11
ENDBRANCH   2   7
BRANCH   5  23
HETATM   23  N   UNL     1      39.594 -12.863   7.138  1.00  0.00    -0.309 N 
HETATM   24  C   UNL     1      40.091 -11.621   7.477  1.00  0.00     0.321 C 
HETATM   25  N   UNL     1      39.875 -11.373   8.819  1.00  0.00    -0.338 N 
HETATM   26  O   UNL     1      40.685 -10.854   6.733  1.00  0.00    -0.247 OA
HETATM   27  H   UNL     1      39.076 -11.840   9.215  1.00  0.00     0.164 HD
HETATM   28  H   UNL     1      38.985 -13.294   7.812  1.00  0.00     0.170 HD
BRANCH  25  29
HETATM   29  C   UNL     1      40.283 -10.144   9.504  1.00  0.00     0.086 C 
HETATM   30  C   UNL     1      39.692 -10.143  10.925  1.00  0.00     0.025 C 
HETATM   31  C   UNL     1      40.350 -11.194  11.824  1.00  0.00     0.002 C 
HETATM   32  C   UNL     1      41.867 -11.034  11.868  1.00  0.00     0.000 C 
HETATM   33  C   UNL     1      42.480 -10.996  10.471  1.00  0.00     0.002 C 
HETATM   34  C   UNL     1      41.805  -9.944   9.594  1.00  0.00     0.025 C 
ENDBRANCH  25  29
ENDBRANCH   5  23
TORSDOF 5
ENDMDL
MODEL 10
REMARK VINA RESULT:      -8.3      2.920     10.663
REMARK  5 active torsions:
REMARK  status: ('A' for Active; 'I' for Inactive)
REMARK    1  A    between atoms: C_2  and  C_3 
REMARK       I    between atoms: C_3  and  N_4 
REMARK    2  A    between atoms: N_4  and  N_5 
REMARK       I    between atoms: N_5  and  C_6 
REMARK       I    between atoms: C_6  and  N_7 
REMARK    3  A    between atoms: N_7  and  C_8 
REMARK    4  A    between atoms: C_18  and  N_19 
REMARK       I    between atoms: N_19  and  C_20 
REMARK       I    between atoms: C_20  and  N_21 
REMARK    5  A    between atoms: N_21  and  C_22 
ROOT
HETATM    1  C   UNL     1      42.032 -13.195   4.487  1.00  0.00     0.019 A 
HETATM    2  C   UNL     1      41.241 -12.472   3.587  1.00  0.00     0.033 A 
HETATM    3  C   UNL     1      40.384 -11.481   4.075  1.00  0.00     0.019 A 
HETATM    4  C   UNL     1      40.336 -11.206   5.451  1.00  0.00     0.030 A 
HETATM    5  C   UNL     1      41.149 -11.908   6.345  1.00  0.00     0.036 A 
HETATM    6  C   UNL     1      41.986 -12.915   5.853  1.00  0.00     0.030 A 
ENDROOT
BRANCH   2   7
HETATM    7  C   UNL     1      41.409 -12.754   2.135  1.00  0.00     0.270 C 
HETATM    8  N   UNL     1      40.292 -13.185   1.436  1.00  0.00    -0.262 N 
HETATM    9  H   UNL     1      39.549 -13.668   1.934  1.00  0.00     0.190 HD
HETATM   10  O   UNL     1      42.513 -12.632   1.608  1.00  0.00    -0.266 OA
BRANCH   8  11
HETATM   11  N   UNL     1      40.545 -13.638   0.130  1.00  0.00    -0.249 N 
HETATM   12  C   UNL     1      41.129 -14.844  -0.162  1.00  0.00     0.335 C 
HETATM   13  N   UNL     1      41.205 -15.688   0.910  1.00  0.00    -0.337 N 
HETATM   14  O   UNL     1      41.534 -15.081  -1.290  1.00  0.00    -0.246 OA
HETATM   15  H   UNL     1      40.463 -15.509   1.571  1.00  0.00     0.164 HD
HETATM   16  H   UNL     1      40.440 -12.958  -0.623  1.00  0.00     0.192 HD
BRANCH  13  17
HETATM   17  C   UNL     1      41.734 -17.053   0.904  1.00  0.00     0.086 C 
HETATM   18  C   UNL     1      43.236 -17.128   0.602  1.00  0.00     0.025 C 
HETATM   19  C   UNL     1      44.137 -17.105   1.830  1.00  0.00     0.002 C 
HETATM   20  C   UNL     1      43.701 -18.127   2.872  1.00  0.00     0.000 C 
HETATM   21  C   UNL     1      42.250 -17.928   3.290  1.00  0.00     0.002 C 
HETATM   22  C   UNL     1      41.294 -17.911   2.100  1.00  0.00     0.025 C 
ENDBRANCH  13  17
ENDBRANCH   8  11
ENDBRANCH   2   7
BRANCH   5  23
HETATM   23  N   UNL     1      41.248 -11.613   7.718  1.00  0.00    -0.309 N 
HETATM   24  C   UNL     1      41.896 -10.550   8.312  1.00  0.00     0.321 C 
HETATM   25  N   UNL     1      42.068 -10.791   9.661  1.00  0.00    -0.338 N 
HETATM   26  O   UNL     1      42.313  -9.552   7.743  1.00  0.00    -0.247 OA
HETATM   27  H   UNL     1      41.377 -11.394  10.078  1.00  0.00     0.164 HD
HETATM   28  H   UNL     1      40.818 -12.274   8.344  1.00  0.00     0.170 HD
BRANCH  25  29
HETATM   29  C   UNL     1      42.723  -9.861  10.585  1.00  0.00     0.086 C 
HETATM   30  C   UNL     1      41.650  -9.172  11.447  1.00  0.00     0.025 C 
HETATM   31  C   UNL     1      40.999 -10.139  12.440  1.00  0.00     0.002 C 
HETATM   32  C   UNL     1      42.035 -10.834  13.319  1.00  0.00     0.000 C 
HETATM   33  C   UNL     1      43.133 -11.498  12.493  1.00  0.00     0.002 C 
HETATM   34  C   UNL     1      43.764 -10.515  11.509  1.00  0.00     0.025 C 
ENDBRANCH  25  29
ENDBRANCH   5  23
TORSDOF 5
ENDMDL
