MODEL 1
REMARK VINA RESULT:      -8.8      0.000      0.000
REMARK  8 active torsions:
REMARK  status: ('A' for Active; 'I' for Inactive)
REMARK    1  A    between atoms: O_2  and  C_3 
REMARK    2  A    between atoms: C_5  and  N_6 
REMARK       I    between atoms: N_6  and  C_7 
REMARK    3  A    between atoms: C_7  and  C_8 
REMARK    4  A    between atoms: C_8  and  N_9 
REMARK    5  A    between atoms: C_8  and  C_25 
REMARK    6  A    between atoms: N_9  and  C_12 
REMARK    7  A    between atoms: C_12  and  C_13 
REMARK    8  A    between atoms: C_16  and  N_17 
ROOT
HETATM    1  C   UNL     1      43.070 -17.602   3.228  1.00  0.00     0.310 C 
ENDROOT
BRANCH   1   2
HETATM    2  C   UNL     1      43.071 -16.782   1.912  1.00  0.00     0.257 C 
HETATM    3  N   UNL     1      41.858 -16.267   1.510  1.00  0.00    -0.325 N 
HETATM    4  H   UNL     1      41.041 -16.436   2.089  1.00  0.00     0.169 HD
HETATM    5  O   UNL     1      44.147 -16.709   1.311  1.00  0.00    -0.270 OA
BRANCH   3   6
HETATM    6  C   UNL     1      41.616 -15.469   0.367  1.00  0.00     0.037 A 
HETATM    7  C   UNL     1      41.727 -14.077   0.346  1.00  0.00     0.066 A 
HETATM    8  C   UNL     1      41.449 -13.346  -0.818  1.00  0.00     0.070 A 
HETATM    9  C   UNL     1      41.074 -14.018  -1.978  1.00  0.00     0.037 A 
HETATM   10  C   UNL     1      40.964 -15.410  -1.970  1.00  0.00     0.005 A 
HETATM   11  C   UNL     1      41.228 -16.130  -0.803  1.00  0.00     0.029 A 
BRANCH   8  12
HETATM   12  O   UNL     1      41.584 -11.992  -0.682  1.00  0.00    -0.356 OA
HETATM   13  C   UNL     1      42.853 -11.432  -1.002  1.00  0.00     0.210 C 
ENDBRANCH   8  12
ENDBRANCH   3   6
ENDBRANCH   1   2
BRANCH   1  14
HETATM   14  N   UNL     1      41.664 -17.568   3.782  1.00  0.00    -0.054 N 
HETATM   15  H   UNL     1      41.186 -16.799   3.279  1.00  0.00     0.278 HD
HETATM   16  H   UNL     1      41.151 -18.398   3.463  1.00  0.00     0.278 HD
BRANCH  14  17
HETATM   17  C   UNL     1      41.494 -17.400   5.241  1.00  0.00     0.272 C 
BRANCH  17  18
HETATM   18  C   UNL     1      42.486 -16.388   5.736  1.00  0.00    -0.033 A 
HETATM   19  C   UNL     1      43.507 -16.762   6.613  1.00  0.00     0.011 A 
HETATM   20  C   UNL     1      44.332 -15.792   7.197  1.00  0.00     0.030 A 
HETATM   21  C   UNL     1      44.161 -14.428   6.933  1.00  0.00     0.037 A 
HETATM   22  C   UNL     1      43.162 -14.070   6.017  1.00  0.00     0.030 A 
HETATM   23  C   UNL     1      42.331 -15.032   5.429  1.00  0.00     0.011 A 
BRANCH  21  24
HETATM   24  N   UNL     1      44.948 -13.434   7.576  1.00  0.00    -0.318 N 
HETATM   25  C   UNL     1      46.192 -12.951   7.137  1.00  0.00     0.224 C 
HETATM   26  O   UNL     1      46.810 -13.233   6.122  1.00  0.00    -0.273 OA
HETATM   27  C   UNL     1      46.742 -12.041   8.211  1.00  0.00     0.105 C 
HETATM   28  C   UNL     1      45.520 -11.702   9.040  1.00  0.00     0.029 C 
HETATM   29  C   UNL     1      44.647 -12.930   8.898  1.00  0.00     0.133 C 
ENDBRANCH  21  24
ENDBRANCH  17  18
ENDBRANCH  14  17
ENDBRANCH   1  14
BRANCH   1  30
HETATM   30  C   UNL     1      43.562 -19.021   3.071  1.00  0.00    -0.019 A 
HETATM   31  C   UNL     1      44.390 -19.590   4.053  1.00  0.00     0.010 A 
HETATM   32  C   UNL     1      44.832 -20.908   3.928  1.00  0.00     0.001 A 
HETATM   33  C   UNL     1      44.451 -21.671   2.828  1.00  0.00     0.000 A 
HETATM   34  C   UNL     1      43.627 -21.122   1.849  1.00  0.00     0.001 A 
HETATM   35  C   UNL     1      43.182 -19.806   1.967  1.00  0.00     0.010 A 
ENDBRANCH   1  30
TORSDOF 8
ENDMDL
MODEL 2
REMARK VINA RESULT:      -8.7      2.644      7.907
REMARK  8 active torsions:
REMARK  status: ('A' for Active; 'I' for Inactive)
REMARK    1  A    between atoms: O_2  and  C_3 
REMARK    2  A    between atoms: C_5  and  N_6 
REMARK       I    between atoms: N_6  and  C_7 
REMARK    3  A    between atoms: C_7  and  C_8 
REMARK    4  A    between atoms: C_8  and  N_9 
REMARK    5  A    between atoms: C_8  and  C_25 
REMARK    6  A    between atoms: N_9  and  C_12 
REMARK    7  A    between atoms: C_12  and  C_13 
REMARK    8  A    between atoms: C_16  and  N_17 
ROOT
HETATM    1  C   UNL     1      40.650 -14.341   1.841  1.00  0.00     0.310 C 
ENDROOT
BRANCH   1   2
HETATM    2  C   UNL     1      40.835 -14.829   3.301  1.00  0.00     0.257 C 
HETATM    3  N   UNL     1      42.084 -15.302   3.635  1.00  0.00    -0.325 N 
HETATM    4  H   UNL     1      42.812 -15.298   2.926  1.00  0.00     0.169 HD
HETATM    5  O   UNL     1      39.832 -14.803   4.021  1.00  0.00    -0.270 OA
BRANCH   3   6
HETATM    6  C   UNL     1      42.499 -15.773   4.903  1.00  0.00     0.037 A 
HETATM    7  C   UNL     1      43.268 -15.030   5.802  1.00  0.00     0.066 A 
HETATM    8  C   UNL     1      43.663 -15.568   7.034  1.00  0.00     0.070 A 
HETATM    9  C   UNL     1      43.269 -16.859   7.379  1.00  0.00     0.037 A 
HETATM   10  C   UNL     1      42.496 -17.609   6.490  1.00  0.00     0.005 A 
HETATM   11  C   UNL     1      42.118 -17.072   5.258  1.00  0.00     0.029 A 
BRANCH   8  12
HETATM   12  O   UNL     1      44.426 -14.730   7.800  1.00  0.00    -0.356 OA
HETATM   13  C   UNL     1      45.179 -13.735   7.115  1.00  0.00     0.210 C 
ENDBRANCH   8  12
ENDBRANCH   3   6
ENDBRANCH   1   2
BRANCH   1  14
HETATM   14  N   UNL     1      40.631 -15.563   0.952  1.00  0.00    -0.054 N 
HETATM   15  H   UNL     1      40.336 -16.346   1.564  1.00  0.00     0.278 HD
HETATM   16  H   UNL     1      39.850 -15.491   0.289  1.00  0.00     0.278 HD
BRANCH  14  17
HETATM   17  C   UNL     1      41.872 -15.922   0.235  1.00  0.00     0.272 C 
BRANCH  17  18
HETATM   18  C   UNL     1      42.462 -17.151   0.862  1.00  0.00    -0.033 A 
HETATM   19  C   UNL     1      41.637 -18.172   1.342  1.00  0.00     0.011 A 
HETATM   20  C   UNL     1      42.179 -19.241   2.066  1.00  0.00     0.030 A 
HETATM   21  C   UNL     1      43.550 -19.322   2.340  1.00  0.00     0.037 A 
HETATM   22  C   UNL     1      44.372 -18.315   1.815  1.00  0.00     0.030 A 
HETATM   23  C   UNL     1      43.839 -17.241   1.091  1.00  0.00     0.011 A 
BRANCH  21  24
HETATM   24  N   UNL     1      44.096 -20.366   3.134  1.00  0.00    -0.318 N 
HETATM   25  C   UNL     1      44.324 -21.689   2.720  1.00  0.00     0.224 C 
HETATM   26  O   UNL     1      44.157 -22.188   1.617  1.00  0.00    -0.273 OA
HETATM   27  C   UNL     1      44.746 -22.490   3.930  1.00  0.00     0.105 C 
HETATM   28  C   UNL     1      45.175 -21.425   4.919  1.00  0.00     0.029 C 
HETATM   29  C   UNL     1      44.306 -20.240   4.559  1.00  0.00     0.133 C 
ENDBRANCH  21  24
ENDBRANCH  17  18
ENDBRANCH  14  17
ENDBRANCH   1  14
BRANCH   1  30
HETATM   30  C   UNL     1      39.421 -13.489   1.626  1.00  0.00    -0.019 A 
HETATM   31  C   UNL     1      39.371 -12.184   2.143  1.00  0.00     0.010 A 
HETATM   32  C   UNL     1      38.249 -11.382   1.931  1.00  0.00     0.001 A 
HETATM   33  C   UNL     1      37.170 -11.870   1.199  1.00  0.00     0.000 A 
HETATM   34  C   UNL     1      37.207 -13.160   0.677  1.00  0.00     0.001 A 
HETATM   35  C   UNL     1      38.325 -13.967   0.885  1.00  0.00     0.010 A 
ENDBRANCH   1  30
TORSDOF 8
ENDMDL
MODEL 3
REMARK VINA RESULT:      -8.7      2.693      3.622
REMARK  8 active torsions:
REMARK  status: ('A' for Active; 'I' for Inactive)
REMARK    1  A    between atoms: O_2  and  C_3 
REMARK    2  A    between atoms: C_5  and  N_6 
REMARK       I    between atoms: N_6  and  C_7 
REMARK    3  A    between atoms: C_7  and  C_8 
REMARK    4  A    between atoms: C_8  and  N_9 
REMARK    5  A    between atoms: C_8  and  C_25 
REMARK    6  A    between atoms: N_9  and  C_12 
REMARK    7  A    between atoms: C_12  and  C_13 
REMARK    8  A    between atoms: C_16  and  N_17 
ROOT
HETATM    1  C   UNL     1      43.686 -18.130   3.775  1.00  0.00     0.310 C 
ENDROOT
BRANCH   1   2
HETATM    2  C   UNL     1      43.411 -17.170   2.589  1.00  0.00     0.257 C 
HETATM    3  N   UNL     1      42.112 -16.735   2.442  1.00  0.00    -0.325 N 
HETATM    4  H   UNL     1      41.415 -17.049   3.111  1.00  0.00     0.169 HD
HETATM    5  O   UNL     1      44.367 -16.924   1.847  1.00  0.00    -0.270 OA
BRANCH   3   6
HETATM    6  C   UNL     1      41.626 -15.841   1.459  1.00  0.00     0.037 A 
HETATM    7  C   UNL     1      41.471 -16.169   0.110  1.00  0.00     0.066 A 
HETATM    8  C   UNL     1      41.005 -15.225  -0.816  1.00  0.00     0.070 A 
HETATM    9  C   UNL     1      40.673 -13.943  -0.382  1.00  0.00     0.037 A 
HETATM   10  C   UNL     1      40.819 -13.606   0.964  1.00  0.00     0.005 A 
HETATM   11  C   UNL     1      41.298 -14.547   1.878  1.00  0.00     0.029 A 
BRANCH   8  12
HETATM   12  O   UNL     1      40.922 -15.685  -2.101  1.00  0.00    -0.356 OA
HETATM   13  C   UNL     1      41.280 -14.777  -3.137  1.00  0.00     0.210 C 
ENDBRANCH   8  12
ENDBRANCH   3   6
ENDBRANCH   1   2
BRANCH   1  14
HETATM   14  N   UNL     1      42.507 -18.039   4.716  1.00  0.00    -0.054 N 
HETATM   15  H   UNL     1      41.763 -17.556   4.182  1.00  0.00     0.278 HD
HETATM   16  H   UNL     1      42.110 -18.975   4.857  1.00  0.00     0.278 HD
BRANCH  14  17
HETATM   17  C   UNL     1      42.706 -17.373   6.020  1.00  0.00     0.272 C 
BRANCH  17  18
HETATM   18  C   UNL     1      42.134 -15.987   5.954  1.00  0.00    -0.033 A 
HETATM   19  C   UNL     1      40.764 -15.791   5.763  1.00  0.00     0.011 A 
HETATM   20  C   UNL     1      40.255 -14.504   5.544  1.00  0.00     0.030 A 
HETATM   21  C   UNL     1      41.091 -13.382   5.501  1.00  0.00     0.037 A 
HETATM   22  C   UNL     1      42.457 -13.587   5.738  1.00  0.00     0.030 A 
HETATM   23  C   UNL     1      42.976 -14.869   5.956  1.00  0.00     0.011 A 
BRANCH  21  24
HETATM   24  N   UNL     1      40.590 -12.084   5.209  1.00  0.00    -0.318 N 
HETATM   25  C   UNL     1      39.653 -11.367   5.971  1.00  0.00     0.224 C 
HETATM   26  O   UNL     1      39.131 -11.674   7.033  1.00  0.00    -0.273 OA
HETATM   27  C   UNL     1      39.283 -10.121   5.202  1.00  0.00     0.105 C 
HETATM   28  C   UNL     1      40.413  -9.980   4.203  1.00  0.00     0.029 C 
HETATM   29  C   UNL     1      40.844 -11.409   3.956  1.00  0.00     0.133 C 
ENDBRANCH  21  24
ENDBRANCH  17  18
ENDBRANCH  14  17
ENDBRANCH   1  14
BRANCH   1  30
HETATM   30  C   UNL     1      43.949 -19.559   3.364  1.00  0.00    -0.019 A 
HETATM   31  C   UNL     1      44.620 -20.430   4.239  1.00  0.00     0.010 A 
HETATM   32  C   UNL     1      44.848 -21.758   3.877  1.00  0.00     0.001 A 
HETATM   33  C   UNL     1      44.407 -22.233   2.645  1.00  0.00     0.000 A 
HETATM   34  C   UNL     1      43.738 -21.383   1.769  1.00  0.00     0.001 A 
HETATM   35  C   UNL     1      43.507 -20.054   2.124  1.00  0.00     0.010 A 
ENDBRANCH   1  30
TORSDOF 8
ENDMDL
MODEL 4
REMARK VINA RESULT:      -8.4      2.127      2.644
REMARK  8 active torsions:
REMARK  status: ('A' for Active; 'I' for Inactive)
REMARK    1  A    between atoms: O_2  and  C_3 
REMARK    2  A    between atoms: C_5  and  N_6 
REMARK       I    between atoms: N_6  and  C_7 
REMARK    3  A    between atoms: C_7  and  C_8 
REMARK    4  A    between atoms: C_8  and  N_9 
REMARK    5  A    between atoms: C_8  and  C_25 
REMARK    6  A    between atoms: N_9  and  C_12 
REMARK    7  A    between atoms: C_12  and  C_13 
REMARK    8  A    between atoms: C_16  and  N_17 
ROOT
HETATM    1  C   UNL     1      43.572 -18.071   3.582  1.00  0.00     0.310 C 
ENDROOT
BRANCH   1   2
HETATM    2  C   UNL     1      43.395 -17.165   2.336  1.00  0.00     0.257 C 
HETATM    3  N   UNL     1      42.131 -16.664   2.118  1.00  0.00    -0.325 N 
HETATM    4  H   UNL     1      41.394 -16.898   2.776  1.00  0.00     0.169 HD
HETATM    5  O   UNL     1      44.388 -17.018   1.618  1.00  0.00    -0.270 OA
BRANCH   3   6
HETATM    6  C   UNL     1      41.733 -15.800   1.070  1.00  0.00     0.037 A 
HETATM    7  C   UNL     1      41.577 -14.419   1.210  1.00  0.00     0.066 A 
HETATM    8  C   UNL     1      41.157 -13.625   0.134  1.00  0.00     0.070 A 
HETATM    9  C   UNL     1      40.909 -14.217  -1.101  1.00  0.00     0.037 A 
HETATM   10  C   UNL     1      41.066 -15.596  -1.254  1.00  0.00     0.005 A 
HETATM   11  C   UNL     1      41.470 -16.383  -0.174  1.00  0.00     0.029 A 
BRANCH   8  12
HETATM   12  O   UNL     1      41.033 -12.294   0.427  1.00  0.00    -0.356 OA
HETATM   13  C   UNL     1      42.218 -11.508   0.380  1.00  0.00     0.210 C 
ENDBRANCH   8  12
ENDBRANCH   3   6
ENDBRANCH   1   2
BRANCH   1  14
HETATM   14  N   UNL     1      42.312 -17.956   4.409  1.00  0.00    -0.054 N 
HETATM   15  H   UNL     1      41.652 -17.401   3.835  1.00  0.00     0.278 HD
HETATM   16  H   UNL     1      41.851 -18.872   4.458  1.00  0.00     0.278 HD
BRANCH  14  17
HETATM   17  C   UNL     1      42.418 -17.372   5.762  1.00  0.00     0.272 C 
BRANCH  17  18
HETATM   18  C   UNL     1      42.209 -15.888   5.673  1.00  0.00    -0.033 A 
HETATM   19  C   UNL     1      43.290 -15.009   5.775  1.00  0.00     0.011 A 
HETATM   20  C   UNL     1      43.076 -13.626   5.850  1.00  0.00     0.030 A 
HETATM   21  C   UNL     1      41.786 -13.082   5.835  1.00  0.00     0.037 A 
HETATM   22  C   UNL     1      40.713 -13.971   5.687  1.00  0.00     0.030 A 
HETATM   23  C   UNL     1      40.916 -15.355   5.613  1.00  0.00     0.011 A 
BRANCH  21  24
HETATM   24  N   UNL     1      41.559 -11.686   5.982  1.00  0.00    -0.318 N 
HETATM   25  C   UNL     1      41.277 -10.780   4.947  1.00  0.00     0.224 C 
HETATM   26  O   UNL     1      41.121 -10.999   3.755  1.00  0.00    -0.273 OA
HETATM   27  C   UNL     1      41.285  -9.387   5.534  1.00  0.00     0.105 C 
HETATM   28  C   UNL     1      41.129  -9.635   7.020  1.00  0.00     0.029 C 
HETATM   29  C   UNL     1      41.790 -10.981   7.223  1.00  0.00     0.133 C 
ENDBRANCH  21  24
ENDBRANCH  17  18
ENDBRANCH  14  17
ENDBRANCH   1  14
BRANCH   1  30
HETATM   30  C   UNL     1      43.883 -19.512   3.258  1.00  0.00    -0.019 A 
HETATM   31  C   UNL     1      44.594 -20.301   4.177  1.00  0.00     0.010 A 
HETATM   32  C   UNL     1      44.869 -21.641   3.896  1.00  0.00     0.001 A 
HETATM   33  C   UNL     1      44.434 -22.207   2.701  1.00  0.00     0.000 A 
HETATM   34  C   UNL     1      43.725 -21.439   1.782  1.00  0.00     0.001 A 
HETATM   35  C   UNL     1      43.448 -20.099   2.056  1.00  0.00     0.010 A 
ENDBRANCH   1  30
TORSDOF 8
ENDMDL
MODEL 5
REMARK VINA RESULT:      -8.4      2.501      3.382
REMARK  8 active torsions:
REMARK  status: ('A' for Active; 'I' for Inactive)
REMARK    1  A    between atoms: O_2  and  C_3 
REMARK    2  A    between atoms: C_5  and  N_6 
REMARK       I    between atoms: N_6  and  C_7 
REMARK    3  A    between atoms: C_7  and  C_8 
REMARK    4  A    between atoms: C_8  and  N_9 
REMARK    5  A    between atoms: C_8  and  C_25 
REMARK    6  A    between atoms: N_9  and  C_12 
REMARK    7  A    between atoms: C_12  and  C_13 
REMARK    8  A    between atoms: C_16  and  N_17 
ROOT
HETATM    1  C   UNL     1      43.557 -18.118   3.946  1.00  0.00     0.310 C 
ENDROOT
BRANCH   1   2
HETATM    2  C   UNL     1      43.105 -17.113   2.856  1.00  0.00     0.257 C 
HETATM    3  N   UNL     1      41.746 -16.964   2.684  1.00  0.00    -0.325 N 
HETATM    4  H   UNL     1      41.119 -17.502   3.276  1.00  0.00     0.169 HD
HETATM    5  O   UNL     1      44.001 -16.574   2.199  1.00  0.00    -0.270 OA
BRANCH   3   6
HETATM    6  C   UNL     1      41.098 -16.093   1.777  1.00  0.00     0.037 A 
HETATM    7  C   UNL     1      39.974 -15.327   2.093  1.00  0.00     0.066 A 
HETATM    8  C   UNL     1      39.368 -14.501   1.137  1.00  0.00     0.070 A 
HETATM    9  C   UNL     1      39.906 -14.426  -0.146  1.00  0.00     0.037 A 
HETATM   10  C   UNL     1      41.032 -15.183  -0.472  1.00  0.00     0.005 A 
HETATM   11  C   UNL     1      41.622 -16.016   0.481  1.00  0.00     0.029 A 
BRANCH   8  12
HETATM   12  O   UNL     1      38.267 -13.826   1.587  1.00  0.00    -0.356 OA
HETATM   13  C   UNL     1      38.354 -12.406   1.638  1.00  0.00     0.210 C 
ENDBRANCH   8  12
ENDBRANCH   3   6
ENDBRANCH   1   2
BRANCH   1  14
HETATM   14  N   UNL     1      42.478 -18.156   5.004  1.00  0.00    -0.054 N 
HETATM   15  H   UNL     1      41.629 -17.773   4.549  1.00  0.00     0.278 HD
HETATM   16  H   UNL     1      42.214 -19.131   5.188  1.00  0.00     0.278 HD
BRANCH  14  17
HETATM   17  C   UNL     1      42.728 -17.451   6.279  1.00  0.00     0.272 C 
BRANCH  17  18
HETATM   18  C   UNL     1      42.235 -16.038   6.162  1.00  0.00    -0.033 A 
HETATM   19  C   UNL     1      40.870 -15.768   6.040  1.00  0.00     0.011 A 
HETATM   20  C   UNL     1      40.424 -14.467   5.773  1.00  0.00     0.030 A 
HETATM   21  C   UNL     1      41.321 -13.403   5.612  1.00  0.00     0.037 A 
HETATM   22  C   UNL     1      42.685 -13.679   5.781  1.00  0.00     0.030 A 
HETATM   23  C   UNL     1      43.140 -14.977   6.046  1.00  0.00     0.011 A 
BRANCH  21  24
HETATM   24  N   UNL     1      40.880 -12.096   5.271  1.00  0.00    -0.318 N 
HETATM   25  C   UNL     1      41.040 -11.468   4.025  1.00  0.00     0.224 C 
HETATM   26  O   UNL     1      41.523 -11.915   2.996  1.00  0.00    -0.273 OA
HETATM   27  C   UNL     1      40.583 -10.034   4.165  1.00  0.00     0.105 C 
HETATM   28  C   UNL     1      39.744 -10.058   5.426  1.00  0.00     0.029 C 
HETATM   29  C   UNL     1      40.377 -11.157   6.249  1.00  0.00     0.133 C 
ENDBRANCH  21  24
ENDBRANCH  17  18
ENDBRANCH  14  17
ENDBRANCH   1  14
BRANCH   1  30
HETATM   30  C   UNL     1      43.857 -19.502   3.423  1.00  0.00    -0.019 A 
HETATM   31  C   UNL     1      44.593 -20.406   4.207  1.00  0.00     0.010 A 
HETATM   32  C   UNL     1      44.857 -21.694   3.741  1.00  0.00     0.001 A 
HETATM   33  C   UNL     1      44.389 -22.096   2.493  1.00  0.00     0.000 A 
HETATM   34  C   UNL     1      43.655 -21.213   1.706  1.00  0.00     0.001 A 
HETATM   35  C   UNL     1      43.387 -19.923   2.165  1.00  0.00     0.010 A 
ENDBRANCH   1  30
TORSDOF 8
ENDMDL
MODEL 6
REMARK VINA RESULT:      -8.3      3.449      7.113
REMARK  8 active torsions:
REMARK  status: ('A' for Active; 'I' for Inactive)
REMARK    1  A    between atoms: O_2  and  C_3 
REMARK    2  A    between atoms: C_5  and  N_6 
REMARK       I    between atoms: N_6  and  C_7 
REMARK    3  A    between atoms: C_7  and  C_8 
REMARK    4  A    between atoms: C_8  and  N_9 
REMARK    5  A    between atoms: C_8  and  C_25 
REMARK    6  A    between atoms: N_9  and  C_12 
REMARK    7  A    between atoms: C_12  and  C_13 
REMARK    8  A    between atoms: C_16  and  N_17 
ROOT
HETATM    1  C   UNL     1      43.012 -14.481   5.335  1.00  0.00     0.310 C 
ENDROOT
BRANCH   1   2
HETATM    2  C   UNL     1      42.359 -13.076   5.307  1.00  0.00     0.257 C 
HETATM    3  N   UNL     1      41.843 -12.616   6.498  1.00  0.00    -0.325 N 
HETATM    4  H   UNL     1      41.923 -13.203   7.323  1.00  0.00     0.169 HD
HETATM    5  O   UNL     1      42.308 -12.514   4.208  1.00  0.00    -0.270 OA
BRANCH   3   6
HETATM    6  C   UNL     1      41.227 -11.362   6.725  1.00  0.00     0.037 A 
HETATM    7  C   UNL     1      40.025 -10.962   6.138  1.00  0.00     0.066 A 
HETATM    8  C   UNL     1      39.483  -9.694   6.390  1.00  0.00     0.070 A 
HETATM    9  C   UNL     1      40.142  -8.824   7.254  1.00  0.00     0.037 A 
HETATM   10  C   UNL     1      41.342  -9.215   7.851  1.00  0.00     0.005 A 
HETATM   11  C   UNL     1      41.884 -10.474   7.584  1.00  0.00     0.029 A 
BRANCH   8  12
HETATM   12  O   UNL     1      38.312  -9.438   5.730  1.00  0.00    -0.356 OA
HETATM   13  C   UNL     1      37.868  -8.085   5.703  1.00  0.00     0.210 C 
ENDBRANCH   8  12
ENDBRANCH   3   6
ENDBRANCH   1   2
BRANCH   1  14
HETATM   14  N   UNL     1      42.680 -15.109   6.669  1.00  0.00    -0.054 N 
HETATM   15  H   UNL     1      42.306 -14.340   7.253  1.00  0.00     0.278 HD
HETATM   16  H   UNL     1      41.866 -15.726   6.563  1.00  0.00     0.278 HD
BRANCH  14  17
HETATM   17  C   UNL     1      43.757 -15.815   7.394  1.00  0.00     0.272 C 
BRANCH  17  18
HETATM   18  C   UNL     1      43.972 -17.160   6.765  1.00  0.00    -0.033 A 
HETATM   19  C   UNL     1      45.244 -17.553   6.340  1.00  0.00     0.011 A 
HETATM   20  C   UNL     1      45.415 -18.738   5.613  1.00  0.00     0.030 A 
HETATM   21  C   UNL     1      44.329 -19.558   5.281  1.00  0.00     0.037 A 
HETATM   22  C   UNL     1      43.065 -19.176   5.750  1.00  0.00     0.030 A 
HETATM   23  C   UNL     1      42.884 -17.992   6.477  1.00  0.00     0.011 A 
BRANCH  21  24
HETATM   24  N   UNL     1      44.486 -20.724   4.483  1.00  0.00    -0.318 N 
HETATM   25  C   UNL     1      44.419 -20.782   3.080  1.00  0.00     0.224 C 
HETATM   26  O   UNL     1      44.271 -19.870   2.280  1.00  0.00    -0.273 OA
HETATM   27  C   UNL     1      44.467 -22.236   2.672  1.00  0.00     0.105 C 
HETATM   28  C   UNL     1      45.025 -22.924   3.901  1.00  0.00     0.029 C 
HETATM   29  C   UNL     1      44.540 -22.056   5.041  1.00  0.00     0.133 C 
ENDBRANCH  21  24
ENDBRANCH  17  18
ENDBRANCH  14  17
ENDBRANCH   1  14
BRANCH   1  30
HETATM   30  C   UNL     1      42.600 -15.377   4.191  1.00  0.00    -0.019 A 
HETATM   31  C   UNL     1      43.536 -15.737   3.208  1.00  0.00     0.010 A 
HETATM   32  C   UNL     1      43.170 -16.582   2.159  1.00  0.00     0.001 A 
HETATM   33  C   UNL     1      41.872 -17.078   2.082  1.00  0.00     0.000 A 
HETATM   34  C   UNL     1      40.934 -16.733   3.051  1.00  0.00     0.001 A 
HETATM   35  C   UNL     1      41.292 -15.889   4.102  1.00  0.00     0.010 A 
ENDBRANCH   1  30
TORSDOF 8
ENDMDL
MODEL 7
REMARK VINA RESULT:      -8.2      3.628      5.475
REMARK  8 active torsions:
REMARK  status: ('A' for Active; 'I' for Inactive)
REMARK    1  A    between atoms: O_2  and  C_3 
REMARK    2  A    between atoms: C_5  and  N_6 
REMARK       I    between atoms: N_6  and  C_7 
REMARK    3  A    between atoms: C_7  and  C_8 
REMARK    4  A    between atoms: C_8  and  N_9 
REMARK    5  A    between atoms: C_8  and  C_25 
REMARK    6  A    between atoms: N_9  and  C_12 
REMARK    7  A    between atoms: C_12  and  C_13 
REMARK    8  A    between atoms: C_16  and  N_17 
ROOT
HETATM    1  C   UNL     1      44.340 -14.778   6.260  1.00  0.00     0.310 C 
ENDROOT
BRANCH   1   2
HETATM    2  C   UNL     1      43.416 -14.470   5.054  1.00  0.00     0.257 C 
HETATM    3  N   UNL     1      42.298 -15.264   4.920  1.00  0.00    -0.325 N 
HETATM    4  H   UNL     1      42.132 -15.990   5.611  1.00  0.00     0.169 HD
HETATM    5  O   UNL     1      43.791 -13.578   4.287  1.00  0.00    -0.270 OA
BRANCH   3   6
HETATM    6  C   UNL     1      41.300 -15.158   3.923  1.00  0.00     0.037 A 
HETATM    7  C   UNL     1      40.525 -14.017   3.709  1.00  0.00     0.066 A 
HETATM    8  C   UNL     1      39.536 -13.989   2.716  1.00  0.00     0.070 A 
HETATM    9  C   UNL     1      39.333 -15.111   1.916  1.00  0.00     0.037 A 
HETATM   10  C   UNL     1      40.106 -16.256   2.118  1.00  0.00     0.005 A 
HETATM   11  C   UNL     1      41.079 -16.282   3.119  1.00  0.00     0.029 A 
BRANCH   8  12
HETATM   12  O   UNL     1      38.846 -12.810   2.636  1.00  0.00    -0.356 OA
HETATM   13  C   UNL     1      39.534 -11.696   2.078  1.00  0.00     0.210 C 
ENDBRANCH   8  12
ENDBRANCH   3   6
ENDBRANCH   1   2
BRANCH   1  14
HETATM   14  N   UNL     1      44.009 -13.785   7.350  1.00  0.00    -0.054 N 
HETATM   15  H   UNL     1      43.263 -13.182   6.960  1.00  0.00     0.278 HD
HETATM   16  H   UNL     1      43.528 -14.269   8.118  1.00  0.00     0.278 HD
BRANCH  14  17
HETATM   17  C   UNL     1      45.103 -12.949   7.887  1.00  0.00     0.272 C 
BRANCH  17  18
HETATM   18  C   UNL     1      44.618 -12.236   9.115  1.00  0.00    -0.033 A 
HETATM   19  C   UNL     1      45.138 -12.550  10.373  1.00  0.00     0.011 A 
HETATM   20  C   UNL     1      44.574 -11.999  11.532  1.00  0.00     0.030 A 
HETATM   21  C   UNL     1      43.477 -11.131  11.473  1.00  0.00     0.037 A 
HETATM   22  C   UNL     1      42.994 -10.789  10.202  1.00  0.00     0.030 A 
HETATM   23  C   UNL     1      43.549 -11.336   9.038  1.00  0.00     0.011 A 
BRANCH  21  24
HETATM   24  N   UNL     1      42.856 -10.625  12.647  1.00  0.00    -0.318 N 
HETATM   25  C   UNL     1      41.580 -10.969  13.122  1.00  0.00     0.224 C 
HETATM   26  O   UNL     1      40.787 -11.784  12.673  1.00  0.00    -0.273 OA
HETATM   27  C   UNL     1      41.260 -10.068  14.292  1.00  0.00     0.105 C 
HETATM   28  C   UNL     1      42.618  -9.538  14.704  1.00  0.00     0.029 C 
HETATM   29  C   UNL     1      43.398  -9.521  13.407  1.00  0.00     0.133 C 
ENDBRANCH  21  24
ENDBRANCH  17  18
ENDBRANCH  14  17
ENDBRANCH   1  14
BRANCH   1  30
HETATM   30  C   UNL     1      44.244 -16.197   6.765  1.00  0.00    -0.019 A 
HETATM   31  C   UNL     1      43.540 -16.476   7.948  1.00  0.00     0.010 A 
HETATM   32  C   UNL     1      43.427 -17.787   8.412  1.00  0.00     0.001 A 
HETATM   33  C   UNL     1      44.009 -18.833   7.700  1.00  0.00     0.000 A 
HETATM   34  C   UNL     1      44.707 -18.573   6.524  1.00  0.00     0.001 A 
HETATM   35  C   UNL     1      44.824 -17.264   6.055  1.00  0.00     0.010 A 
ENDBRANCH   1  30
TORSDOF 8
ENDMDL
MODEL 8
REMARK VINA RESULT:      -8.2      4.140      6.170
REMARK  8 active torsions:
REMARK  status: ('A' for Active; 'I' for Inactive)
REMARK    1  A    between atoms: O_2  and  C_3 
REMARK    2  A    between atoms: C_5  and  N_6 
REMARK       I    between atoms: N_6  and  C_7 
REMARK    3  A    between atoms: C_7  and  C_8 
REMARK    4  A    between atoms: C_8  and  N_9 
REMARK    5  A    between atoms: C_8  and  C_25 
REMARK    6  A    between atoms: N_9  and  C_12 
REMARK    7  A    between atoms: C_12  and  C_13 
REMARK    8  A    between atoms: C_16  and  N_17 
ROOT
HETATM    1  C   UNL     1      44.167 -14.649   6.298  1.00  0.00     0.310 C 
ENDROOT
BRANCH   1   2
HETATM    2  C   UNL     1      43.176 -13.751   5.513  1.00  0.00     0.257 C 
HETATM    3  N   UNL     1      41.930 -13.578   6.075  1.00  0.00    -0.325 N 
HETATM    4  H   UNL     1      41.730 -14.028   6.963  1.00  0.00     0.169 HD
HETATM    5  O   UNL     1      43.570 -13.316   4.427  1.00  0.00    -0.270 OA
BRANCH   3   6
HETATM    6  C   UNL     1      40.875 -12.787   5.563  1.00  0.00     0.037 A 
HETATM    7  C   UNL     1      40.374 -11.645   6.193  1.00  0.00     0.066 A 
HETATM    8  C   UNL     1      39.310 -10.921   5.640  1.00  0.00     0.070 A 
HETATM    9  C   UNL     1      38.751 -11.333   4.432  1.00  0.00     0.037 A 
HETATM   10  C   UNL     1      39.247 -12.470   3.791  1.00  0.00     0.005 A 
HETATM   11  C   UNL     1      40.298 -13.196   4.355  1.00  0.00     0.029 A 
BRANCH   8  12
HETATM   12  O   UNL     1      38.917  -9.838   6.378  1.00  0.00    -0.356 OA
HETATM   13  C   UNL     1      39.943  -9.080   7.010  1.00  0.00     0.210 C 
ENDBRANCH   8  12
ENDBRANCH   3   6
ENDBRANCH   1   2
BRANCH   1  14
HETATM   14  N   UNL     1      44.252 -14.110   7.707  1.00  0.00    -0.054 N 
HETATM   15  H   UNL     1      43.278 -13.879   7.974  1.00  0.00     0.278 HD
HETATM   16  H   UNL     1      44.487 -14.873   8.351  1.00  0.00     0.278 HD
BRANCH  14  17
HETATM   17  C   UNL     1      45.132 -12.949   7.956  1.00  0.00     0.272 C 
BRANCH  17  18
HETATM   18  C   UNL     1      44.635 -12.207   9.162  1.00  0.00    -0.033 A 
HETATM   19  C   UNL     1      45.246 -12.380  10.406  1.00  0.00     0.011 A 
HETATM   20  C   UNL     1      44.685 -11.812  11.558  1.00  0.00     0.030 A 
HETATM   21  C   UNL     1      43.501 -11.067  11.506  1.00  0.00     0.037 A 
HETATM   22  C   UNL     1      42.922 -10.864  10.246  1.00  0.00     0.030 A 
HETATM   23  C   UNL     1      43.474 -11.429   9.089  1.00  0.00     0.011 A 
BRANCH  21  24
HETATM   24  N   UNL     1      42.888 -10.548  12.679  1.00  0.00    -0.318 N 
HETATM   25  C   UNL     1      41.619 -10.895  13.173  1.00  0.00     0.224 C 
HETATM   26  O   UNL     1      40.828 -11.722  12.744  1.00  0.00    -0.273 OA
HETATM   27  C   UNL     1      41.305  -9.979  14.333  1.00  0.00     0.105 C 
HETATM   28  C   UNL     1      42.663  -9.433  14.722  1.00  0.00     0.029 C 
HETATM   29  C   UNL     1      43.429  -9.429  13.417  1.00  0.00     0.133 C 
ENDBRANCH  21  24
ENDBRANCH  17  18
ENDBRANCH  14  17
ENDBRANCH   1  14
BRANCH   1  30
HETATM   30  C   UNL     1      43.806 -16.116   6.295  1.00  0.00    -0.019 A 
HETATM   31  C   UNL     1      43.693 -16.814   7.508  1.00  0.00     0.010 A 
HETATM   32  C   UNL     1      43.339 -18.164   7.517  1.00  0.00     0.001 A 
HETATM   33  C   UNL     1      43.089 -18.829   6.320  1.00  0.00     0.000 A 
HETATM   34  C   UNL     1      43.193 -18.149   5.110  1.00  0.00     0.001 A 
HETATM   35  C   UNL     1      43.547 -16.800   5.093  1.00  0.00     0.010 A 
ENDBRANCH   1  30
TORSDOF 8
ENDMDL
MODEL 9
REMARK VINA RESULT:      -8.2      1.963      2.748
REMARK  8 active torsions:
REMARK  status: ('A' for Active; 'I' for Inactive)
REMARK    1  A    between atoms: O_2  and  C_3 
REMARK    2  A    between atoms: C_5  and  N_6 
REMARK       I    between atoms: N_6  and  C_7 
REMARK    3  A    between atoms: C_7  and  C_8 
REMARK    4  A    between atoms: C_8  and  N_9 
REMARK    5  A    between atoms: C_8  and  C_25 
REMARK    6  A    between atoms: N_9  and  C_12 
REMARK    7  A    between atoms: C_12  and  C_13 
REMARK    8  A    between atoms: C_16  and  N_17 
ROOT
HETATM    1  C   UNL     1      43.088 -16.334   2.975  1.00  0.00     0.310 C 
ENDROOT
BRANCH   1   2
HETATM    2  C   UNL     1      41.899 -16.153   1.996  1.00  0.00     0.257 C 
HETATM    3  N   UNL     1      42.086 -15.259   0.965  1.00  0.00    -0.325 N 
HETATM    4  H   UNL     1      42.979 -14.781   0.891  1.00  0.00     0.169 HD
HETATM    5  O   UNL     1      40.870 -16.782   2.258  1.00  0.00    -0.270 OA
BRANCH   3   6
HETATM    6  C   UNL     1      41.163 -14.948  -0.062  1.00  0.00     0.037 A 
HETATM    7  C   UNL     1      41.164 -15.547  -1.323  1.00  0.00     0.066 A 
HETATM    8  C   UNL     1      40.233 -15.173  -2.302  1.00  0.00     0.070 A 
HETATM    9  C   UNL     1      39.279 -14.202  -2.009  1.00  0.00     0.037 A 
HETATM   10  C   UNL     1      39.266 -13.600  -0.749  1.00  0.00     0.005 A 
HETATM   11  C   UNL     1      40.206 -13.966   0.217  1.00  0.00     0.029 A 
BRANCH   8  12
HETATM   12  O   UNL     1      40.367 -15.833  -3.493  1.00  0.00    -0.356 OA
HETATM   13  C   UNL     1      39.170 -16.150  -4.196  1.00  0.00     0.210 C 
ENDBRANCH   8  12
ENDBRANCH   3   6
ENDBRANCH   1   2
BRANCH   1  14
HETATM   14  N   UNL     1      42.669 -15.763   4.310  1.00  0.00    -0.054 N 
HETATM   15  H   UNL     1      41.930 -16.398   4.663  1.00  0.00     0.278 HD
HETATM   16  H   UNL     1      43.424 -15.898   4.992  1.00  0.00     0.278 HD
BRANCH  14  17
HETATM   17  C   UNL     1      42.195 -14.364   4.351  1.00  0.00     0.272 C 
BRANCH  17  18
HETATM   18  C   UNL     1      42.868 -13.652   5.488  1.00  0.00    -0.033 A 
HETATM   19  C   UNL     1      43.997 -14.199   6.101  1.00  0.00     0.011 A 
HETATM   20  C   UNL     1      44.529 -13.616   7.260  1.00  0.00     0.030 A 
HETATM   21  C   UNL     1      43.949 -12.483   7.843  1.00  0.00     0.037 A 
HETATM   22  C   UNL     1      42.843 -11.918   7.192  1.00  0.00     0.030 A 
HETATM   23  C   UNL     1      42.304 -12.494   6.035  1.00  0.00     0.011 A 
BRANCH  21  24
HETATM   24  N   UNL     1      44.439 -11.929   9.056  1.00  0.00    -0.318 N 
HETATM   25  C   UNL     1      45.688 -11.310   9.239  1.00  0.00     0.224 C 
HETATM   26  O   UNL     1      46.558 -11.079   8.413  1.00  0.00    -0.273 OA
HETATM   27  C   UNL     1      45.858 -11.033  10.715  1.00  0.00     0.105 C 
HETATM   28  C   UNL     1      44.443 -11.117  11.249  1.00  0.00     0.029 C 
HETATM   29  C   UNL     1      43.777 -12.115  10.328  1.00  0.00     0.133 C 
ENDBRANCH  21  24
ENDBRANCH  17  18
ENDBRANCH  14  17
ENDBRANCH   1  14
BRANCH   1  30
HETATM   30  C   UNL     1      43.560 -17.762   3.115  1.00  0.00    -0.019 A 
HETATM   31  C   UNL     1      43.757 -18.553   1.972  1.00  0.00     0.010 A 
HETATM   32  C   UNL     1      44.214 -19.867   2.090  1.00  0.00     0.001 A 
HETATM   33  C   UNL     1      44.481 -20.403   3.347  1.00  0.00     0.000 A 
HETATM   34  C   UNL     1      44.294 -19.630   4.489  1.00  0.00     0.001 A 
HETATM   35  C   UNL     1      43.837 -18.316   4.379  1.00  0.00     0.010 A 
ENDBRANCH   1  30
TORSDOF 8
ENDMDL
MODEL 10
REMARK VINA RESULT:      -8.1      3.482      7.535
REMARK  8 active torsions:
REMARK  status: ('A' for Active; 'I' for Inactive)
REMARK    1  A    between atoms: O_2  and  C_3 
REMARK    2  A    between atoms: C_5  and  N_6 
REMARK       I    between atoms: N_6  and  C_7 
REMARK    3  A    between atoms: C_7  and  C_8 
REMARK    4  A    between atoms: C_8  and  N_9 
REMARK    5  A    between atoms: C_8  and  C_25 
REMARK    6  A    between atoms: N_9  and  C_12 
REMARK    7  A    between atoms: C_12  and  C_13 
REMARK    8  A    between atoms: C_16  and  N_17 
ROOT
HETATM    1  C   UNL     1      42.815 -14.250   5.199  1.00  0.00     0.310 C 
ENDROOT
BRANCH   1   2
HETATM    2  C   UNL     1      42.184 -12.840   5.338  1.00  0.00     0.257 C 
HETATM    3  N   UNL     1      41.744 -12.488   6.595  1.00  0.00    -0.325 N 
HETATM    4  H   UNL     1      41.862 -13.151   7.355  1.00  0.00     0.169 HD
HETATM    5  O   UNL     1      42.081 -12.179   4.300  1.00  0.00    -0.270 OA
BRANCH   3   6
HETATM    6  C   UNL     1      41.162 -11.254   6.972  1.00  0.00     0.037 A 
HETATM    7  C   UNL     1      41.554 -10.512   8.088  1.00  0.00     0.066 A 
HETATM    8  C   UNL     1      40.918  -9.307   8.416  1.00  0.00     0.070 A 
HETATM    9  C   UNL     1      39.890  -8.830   7.606  1.00  0.00     0.037 A 
HETATM   10  C   UNL     1      39.494  -9.561   6.485  1.00  0.00     0.005 A 
HETATM   11  C   UNL     1      40.122 -10.768   6.172  1.00  0.00     0.029 A 
BRANCH   8  12
HETATM   12  O   UNL     1      41.397  -8.703   9.546  1.00  0.00    -0.356 OA
HETATM   13  C   UNL     1      41.786  -9.553  10.619  1.00  0.00     0.210 C 
ENDBRANCH   8  12
ENDBRANCH   3   6
ENDBRANCH   1   2
BRANCH   1  14
HETATM   14  N   UNL     1      42.504 -15.014   6.465  1.00  0.00    -0.054 N 
HETATM   15  H   UNL     1      42.104 -14.316   7.119  1.00  0.00     0.278 HD
HETATM   16  H   UNL     1      41.711 -15.644   6.297  1.00  0.00     0.278 HD
BRANCH  14  17
HETATM   17  C   UNL     1      43.604 -15.750   7.123  1.00  0.00     0.272 C 
BRANCH  17  18
HETATM   18  C   UNL     1      43.774 -17.080   6.450  1.00  0.00    -0.033 A 
HETATM   19  C   UNL     1      45.044 -17.638   6.285  1.00  0.00     0.011 A 
HETATM   20  C   UNL     1      45.216 -18.799   5.520  1.00  0.00     0.030 A 
HETATM   21  C   UNL     1      44.136 -19.431   4.893  1.00  0.00     0.037 A 
HETATM   22  C   UNL     1      42.861 -18.887   5.103  1.00  0.00     0.030 A 
HETATM   23  C   UNL     1      42.679 -17.726   5.864  1.00  0.00     0.011 A 
BRANCH  21  24
HETATM   24  N   UNL     1      44.313 -20.568   4.058  1.00  0.00    -0.318 N 
HETATM   25  C   UNL     1      44.714 -21.848   4.476  1.00  0.00     0.224 C 
HETATM   26  O   UNL     1      44.933 -22.252   5.608  1.00  0.00    -0.273 OA
HETATM   27  C   UNL     1      44.940 -22.691   3.242  1.00  0.00     0.105 C 
HETATM   28  C   UNL     1      44.197 -21.932   2.162  1.00  0.00     0.029 C 
HETATM   29  C   UNL     1      44.292 -20.491   2.614  1.00  0.00     0.133 C 
ENDBRANCH  21  24
ENDBRANCH  17  18
ENDBRANCH  14  17
ENDBRANCH   1  14
BRANCH   1  30
HETATM   30  C   UNL     1      42.362 -15.011   3.976  1.00  0.00    -0.019 A 
HETATM   31  C   UNL     1      43.308 -15.477   3.048  1.00  0.00     0.010 A 
HETATM   32  C   UNL     1      42.901 -16.200   1.926  1.00  0.00     0.001 A 
HETATM   33  C   UNL     1      41.550 -16.469   1.720  1.00  0.00     0.000 A 
HETATM   34  C   UNL     1      40.602 -16.017   2.633  1.00  0.00     0.001 A 
HETATM   35  C   UNL     1      41.001 -15.293   3.757  1.00  0.00     0.010 A 
ENDBRANCH   1  30
TORSDOF 8
ENDMDL
