MODEL 1
REMARK VINA RESULT:      -8.5      0.000      0.000
REMARK  9 active torsions:
REMARK  status: ('A' for Active; 'I' for Inactive)
REMARK    1  A    between atoms: C_2  and  O_3 
REMARK    2  A    between atoms: O_3  and  C_4 
REMARK    3  A    between atoms: C_5  and  O_6 
REMARK    4  A    between atoms: O_6  and  C_7 
REMARK    5  A    between atoms: C_7  and  C_8 
REMARK       I    between atoms: C_8  and  N_9 
REMARK    6  A    between atoms: N_9  and  C_10 
REMARK    7  A    between atoms: C_19  and  C_20 
REMARK    8  A    between atoms: C_21  and  C_22 
REMARK    9  A    between atoms: C_27  and  C_28 
ROOT
HETATM    1  C   UNL     1      43.343 -14.650   5.316  1.00  0.00     0.102 A 
HETATM    2  C   UNL     1      43.895 -14.571   6.611  1.00  0.00     0.102 A 
HETATM    3  C   UNL     1      44.226 -15.742   7.295  1.00  0.00     0.040 A 
HETATM    4  C   UNL     1      44.047 -16.986   6.685  1.00  0.00     0.014 A 
HETATM    5  C   UNL     1      43.533 -17.073   5.388  1.00  0.00    -0.033 A 
HETATM    6  C   UNL     1      43.160 -15.901   4.718  1.00  0.00     0.051 A 
ENDROOT
BRANCH   2   7
HETATM    7  O   UNL     1      44.079 -13.303   7.106  1.00  0.00    -0.339 OA
BRANCH   7   8
HETATM    8  C   UNL     1      45.048 -13.116   8.129  1.00  0.00     0.278 C 
BRANCH   8   9
HETATM    9  C   UNL     1      44.909 -11.834   8.962  1.00  0.00     0.246 C 
HETATM   10  N   UNL     1      43.767 -11.831   9.746  1.00  0.00    -0.325 N 
HETATM   11  H   UNL     1      43.158 -12.636   9.626  1.00  0.00     0.169 HD
HETATM   12  O   UNL     1      45.774 -10.964   8.919  1.00  0.00    -0.271 OA
BRANCH  10  13
HETATM   13  C   UNL     1      43.306 -10.817  10.605  1.00  0.00     0.034 A 
HETATM   14  C   UNL     1      42.346  -9.869  10.249  1.00  0.00     0.029 A 
HETATM   15  C   UNL     1      41.935  -8.897  11.167  1.00  0.00     0.002 A 
HETATM   16  C   UNL     1      42.483  -8.864  12.448  1.00  0.00     0.000 A 
HETATM   17  C   UNL     1      43.442  -9.805  12.812  1.00  0.00     0.002 A 
HETATM   18  C   UNL     1      43.851 -10.776  11.895  1.00  0.00     0.029 A 
ENDBRANCH  10  13
ENDBRANCH   8   9
ENDBRANCH   7   8
ENDBRANCH   2   7
BRANCH   1  19
HETATM   19  O   UNL     1      43.066 -13.449   4.709  1.00  0.00    -0.349 OA
BRANCH  19  20
HETATM   20  C   UNL     1      43.041 -13.421   3.284  1.00  0.00     0.171 C 
HETATM   21  C   UNL     1      41.662 -12.959   2.850  1.00  0.00     0.034 C 
ENDBRANCH  19  20
ENDBRANCH   1  19
BRANCH   5  22
HETATM   22  C   UNL     1      43.375 -18.363   4.710  1.00  0.00     0.014 C 
HETATM   23  C   UNL     1      44.322 -18.871   3.902  1.00  0.00     0.035 C 
BRANCH  23  24
HETATM   24  C   UNL     1      44.206 -20.099   3.170  1.00  0.00     0.091 A 
HETATM   25  N   UNL     1      43.754 -20.164   1.906  1.00  0.00    -0.175 NA
HETATM   26  N   UNL     1      43.816 -21.461   1.588  1.00  0.00    -0.288 N 
HETATM   27  H   UNL     1      43.517 -21.740   0.658  1.00  0.00     0.188 HD
HETATM   28  C   UNL     1      44.293 -22.244   2.592  1.00  0.00     0.126 A 
HETATM   29  C   UNL     1      44.558 -21.396   3.650  1.00  0.00     0.049 A 
BRANCH  29  30
HETATM   30  C   UNL     1      45.080 -21.820   4.933  1.00  0.00     0.273 C 
HETATM   31  O   UNL     1      44.443 -21.817   5.981  1.00  0.00    -0.301 OA
ENDBRANCH  29  30
ENDBRANCH  23  24
ENDBRANCH   5  22
TORSDOF 9
ENDMDL
MODEL 2
REMARK VINA RESULT:      -8.4      1.373      1.532
REMARK  9 active torsions:
REMARK  status: ('A' for Active; 'I' for Inactive)
REMARK    1  A    between atoms: C_2  and  O_3 
REMARK    2  A    between atoms: O_3  and  C_4 
REMARK    3  A    between atoms: C_5  and  O_6 
REMARK    4  A    between atoms: O_6  and  C_7 
REMARK    5  A    between atoms: C_7  and  C_8 
REMARK       I    between atoms: C_8  and  N_9 
REMARK    6  A    between atoms: N_9  and  C_10 
REMARK    7  A    between atoms: C_19  and  C_20 
REMARK    8  A    between atoms: C_21  and  C_22 
REMARK    9  A    between atoms: C_27  and  C_28 
ROOT
HETATM    1  C   UNL     1      43.399 -14.922   5.431  1.00  0.00     0.102 A 
HETATM    2  C   UNL     1      44.018 -14.753   6.687  1.00  0.00     0.102 A 
HETATM    3  C   UNL     1      44.490 -15.868   7.382  1.00  0.00     0.040 A 
HETATM    4  C   UNL     1      44.386 -17.142   6.819  1.00  0.00     0.014 A 
HETATM    5  C   UNL     1      43.806 -17.317   5.560  1.00  0.00    -0.033 A 
HETATM    6  C   UNL     1      43.292 -16.205   4.881  1.00  0.00     0.051 A 
ENDROOT
BRANCH   2   7
HETATM    7  O   UNL     1      44.118 -13.457   7.134  1.00  0.00    -0.339 OA
BRANCH   7   8
HETATM    8  C   UNL     1      45.168 -13.139   8.037  1.00  0.00     0.278 C 
BRANCH   8   9
HETATM    9  C   UNL     1      44.978 -11.860   8.865  1.00  0.00     0.246 C 
HETATM   10  N   UNL     1      43.821 -11.886   9.626  1.00  0.00    -0.325 N 
HETATM   11  H   UNL     1      43.236 -12.707   9.495  1.00  0.00     0.169 HD
HETATM   12  O   UNL     1      45.822 -10.968   8.838  1.00  0.00    -0.271 OA
BRANCH  10  13
HETATM   13  C   UNL     1      43.316 -10.883  10.473  1.00  0.00     0.034 A 
HETATM   14  C   UNL     1      42.286 -10.010  10.122  1.00  0.00     0.029 A 
HETATM   15  C   UNL     1      41.836  -9.043  11.028  1.00  0.00     0.002 A 
HETATM   16  C   UNL     1      42.414  -8.942  12.292  1.00  0.00     0.000 A 
HETATM   17  C   UNL     1      43.443  -9.808  12.651  1.00  0.00     0.002 A 
HETATM   18  C   UNL     1      43.891 -10.773  11.746  1.00  0.00     0.029 A 
ENDBRANCH  10  13
ENDBRANCH   8   9
ENDBRANCH   7   8
ENDBRANCH   2   7
BRANCH   1  19
HETATM   19  O   UNL     1      42.982 -13.771   4.809  1.00  0.00    -0.349 OA
BRANCH  19  20
HETATM   20  C   UNL     1      43.295 -13.620   3.426  1.00  0.00     0.171 C 
HETATM   21  C   UNL     1      42.126 -12.918   2.757  1.00  0.00     0.034 C 
ENDBRANCH  19  20
ENDBRANCH   1  19
BRANCH   5  22
HETATM   22  C   UNL     1      43.723 -18.637   4.930  1.00  0.00     0.014 C 
HETATM   23  C   UNL     1      44.680 -19.569   5.084  1.00  0.00     0.035 C 
BRANCH  23  24
HETATM   24  C   UNL     1      44.683 -20.858   4.453  1.00  0.00     0.091 A 
HETATM   25  N   UNL     1      44.992 -21.995   5.100  1.00  0.00    -0.175 NA
HETATM   26  N   UNL     1      44.863 -22.956   4.180  1.00  0.00    -0.288 N 
HETATM   27  H   UNL     1      45.051 -23.914   4.460  1.00  0.00     0.188 HD
HETATM   28  C   UNL     1      44.480 -22.492   2.960  1.00  0.00     0.126 A 
HETATM   29  C   UNL     1      44.354 -21.122   3.090  1.00  0.00     0.049 A 
BRANCH  29  30
HETATM   30  C   UNL     1      43.966 -20.226   2.020  1.00  0.00     0.273 C 
HETATM   31  O   UNL     1      42.823 -19.828   1.823  1.00  0.00    -0.301 OA
ENDBRANCH  29  30
ENDBRANCH  23  24
ENDBRANCH   5  22
TORSDOF 9
ENDMDL
MODEL 3
REMARK VINA RESULT:      -8.2      3.501      8.613
REMARK  9 active torsions:
REMARK  status: ('A' for Active; 'I' for Inactive)
REMARK    1  A    between atoms: C_2  and  O_3 
REMARK    2  A    between atoms: O_3  and  C_4 
REMARK    3  A    between atoms: C_5  and  O_6 
REMARK    4  A    between atoms: O_6  and  C_7 
REMARK    5  A    between atoms: C_7  and  C_8 
REMARK       I    between atoms: C_8  and  N_9 
REMARK    6  A    between atoms: N_9  and  C_10 
REMARK    7  A    between atoms: C_19  and  C_20 
REMARK    8  A    between atoms: C_21  and  C_22 
REMARK    9  A    between atoms: C_27  and  C_28 
ROOT
HETATM    1  C   UNL     1      43.475 -15.604   6.467  1.00  0.00     0.102 A 
HETATM    2  C   UNL     1      42.923 -16.684   7.184  1.00  0.00     0.102 A 
HETATM    3  C   UNL     1      41.620 -17.106   6.910  1.00  0.00     0.040 A 
HETATM    4  C   UNL     1      40.880 -16.483   5.902  1.00  0.00     0.014 A 
HETATM    5  C   UNL     1      41.430 -15.434   5.161  1.00  0.00    -0.033 A 
HETATM    6  C   UNL     1      42.720 -14.983   5.466  1.00  0.00     0.051 A 
ENDROOT
BRANCH   2   7
HETATM    7  O   UNL     1      43.746 -17.263   8.121  1.00  0.00    -0.339 OA
BRANCH   7   8
HETATM    8  C   UNL     1      44.701 -18.217   7.676  1.00  0.00     0.278 C 
BRANCH   8   9
HETATM    9  C   UNL     1      44.195 -19.251   6.659  1.00  0.00     0.246 C 
HETATM   10  N   UNL     1      44.605 -18.970   5.367  1.00  0.00    -0.325 N 
HETATM   11  H   UNL     1      45.128 -18.104   5.258  1.00  0.00     0.169 HD
HETATM   12  O   UNL     1      43.537 -20.219   7.029  1.00  0.00    -0.271 OA
BRANCH  10  13
HETATM   13  C   UNL     1      44.306 -19.676   4.188  1.00  0.00     0.034 A 
HETATM   14  C   UNL     1      44.818 -20.938   3.883  1.00  0.00     0.029 A 
HETATM   15  C   UNL     1      44.465 -21.577   2.690  1.00  0.00     0.002 A 
HETATM   16  C   UNL     1      43.598 -20.958   1.791  1.00  0.00     0.000 A 
HETATM   17  C   UNL     1      43.083 -19.699   2.086  1.00  0.00     0.002 A 
HETATM   18  C   UNL     1      43.436 -19.062   3.278  1.00  0.00     0.029 A 
ENDBRANCH  10  13
ENDBRANCH   8   9
ENDBRANCH   7   8
ENDBRANCH   2   7
BRANCH   1  19
HETATM   19  O   UNL     1      44.768 -15.270   6.788  1.00  0.00    -0.349 OA
BRANCH  19  20
HETATM   20  C   UNL     1      45.112 -13.886   6.781  1.00  0.00     0.171 C 
HETATM   21  C   UNL     1      44.728 -13.303   8.129  1.00  0.00     0.034 C 
ENDBRANCH  19  20
ENDBRANCH   1  19
BRANCH   5  22
HETATM   22  C   UNL     1      40.689 -14.794   4.071  1.00  0.00     0.014 C 
HETATM   23  C   UNL     1      40.507 -15.388   2.879  1.00  0.00     0.035 C 
BRANCH  23  24
HETATM   24  C   UNL     1      39.839 -14.794   1.756  1.00  0.00     0.091 A 
HETATM   25  N   UNL     1      38.524 -14.938   1.520  1.00  0.00    -0.175 NA
HETATM   26  N   UNL     1      38.297 -14.229   0.410  1.00  0.00    -0.288 N 
HETATM   27  H   UNL     1      37.349 -14.200   0.047  1.00  0.00     0.188 HD
HETATM   28  C   UNL     1      39.412 -13.627  -0.086  1.00  0.00     0.126 A 
HETATM   29  C   UNL     1      40.447 -13.972   0.761  1.00  0.00     0.049 A 
BRANCH  29  30
HETATM   30  C   UNL     1      41.821 -13.545   0.597  1.00  0.00     0.273 C 
HETATM   31  O   UNL     1      42.294 -12.518   1.073  1.00  0.00    -0.301 OA
ENDBRANCH  29  30
ENDBRANCH  23  24
ENDBRANCH   5  22
TORSDOF 9
ENDMDL
MODEL 4
REMARK VINA RESULT:      -7.9      3.030     10.425
REMARK  9 active torsions:
REMARK  status: ('A' for Active; 'I' for Inactive)
REMARK    1  A    between atoms: C_2  and  O_3 
REMARK    2  A    between atoms: O_3  and  C_4 
REMARK    3  A    between atoms: C_5  and  O_6 
REMARK    4  A    between atoms: O_6  and  C_7 
REMARK    5  A    between atoms: C_7  and  C_8 
REMARK       I    between atoms: C_8  and  N_9 
REMARK    6  A    between atoms: N_9  and  C_10 
REMARK    7  A    between atoms: C_19  and  C_20 
REMARK    8  A    between atoms: C_21  and  C_22 
REMARK    9  A    between atoms: C_27  and  C_28 
ROOT
HETATM    1  C   UNL     1      40.946 -15.579   4.885  1.00  0.00     0.102 A 
HETATM    2  C   UNL     1      40.870 -15.137   3.549  1.00  0.00     0.102 A 
HETATM    3  C   UNL     1      40.375 -13.862   3.268  1.00  0.00     0.040 A 
HETATM    4  C   UNL     1      39.993 -13.013   4.309  1.00  0.00     0.014 A 
HETATM    5  C   UNL     1      40.097 -13.429   5.639  1.00  0.00    -0.033 A 
HETATM    6  C   UNL     1      40.552 -14.723   5.920  1.00  0.00     0.051 A 
ENDROOT
BRANCH   2   7
HETATM    7  O   UNL     1      41.315 -16.025   2.599  1.00  0.00    -0.339 OA
BRANCH   7   8
HETATM    8  C   UNL     1      42.612 -15.828   2.053  1.00  0.00     0.278 C 
BRANCH   8   9
HETATM    9  C   UNL     1      43.501 -17.077   1.963  1.00  0.00     0.246 C 
HETATM   10  N   UNL     1      42.980 -18.152   2.663  1.00  0.00    -0.325 N 
HETATM   11  H   UNL     1      42.125 -17.959   3.178  1.00  0.00     0.169 HD
HETATM   12  O   UNL     1      44.529 -17.063   1.292  1.00  0.00    -0.271 OA
BRANCH  10  13
HETATM   13  C   UNL     1      43.536 -19.434   2.825  1.00  0.00     0.034 A 
HETATM   14  C   UNL     1      44.294 -19.823   3.929  1.00  0.00     0.029 A 
HETATM   15  C   UNL     1      44.804 -21.123   4.017  1.00  0.00     0.002 A 
HETATM   16  C   UNL     1      44.561 -22.043   2.999  1.00  0.00     0.000 A 
HETATM   17  C   UNL     1      43.806 -21.664   1.893  1.00  0.00     0.002 A 
HETATM   18  C   UNL     1      43.296 -20.366   1.806  1.00  0.00     0.029 A 
ENDBRANCH  10  13
ENDBRANCH   8   9
ENDBRANCH   7   8
ENDBRANCH   2   7
BRANCH   1  19
HETATM   19  O   UNL     1      41.463 -16.838   5.071  1.00  0.00    -0.349 OA
BRANCH  19  20
HETATM   20  C   UNL     1      42.266 -17.056   6.229  1.00  0.00     0.171 C 
HETATM   21  C   UNL     1      43.685 -16.627   5.902  1.00  0.00     0.034 C 
ENDBRANCH  19  20
ENDBRANCH   1  19
BRANCH   5  22
HETATM   22  C   UNL     1      39.743 -12.541   6.751  1.00  0.00     0.014 C 
HETATM   23  C   UNL     1      39.979 -11.218   6.718  1.00  0.00     0.035 C 
BRANCH  23  24
HETATM   24  C   UNL     1      39.705 -10.306   7.791  1.00  0.00     0.091 A 
HETATM   25  N   UNL     1      38.559  -9.611   7.894  1.00  0.00    -0.175 NA
HETATM   26  N   UNL     1      38.690  -8.904   9.021  1.00  0.00    -0.288 N 
HETATM   27  H   UNL     1      37.923  -8.298   9.297  1.00  0.00     0.188 HD
HETATM   28  C   UNL     1      39.873  -9.112   9.659  1.00  0.00     0.126 A 
HETATM   29  C   UNL     1      40.573 -10.020   8.887  1.00  0.00     0.049 A 
BRANCH  29  30
HETATM   30  C   UNL     1      41.896 -10.519   9.201  1.00  0.00     0.273 C 
HETATM   31  O   UNL     1      42.861 -10.460   8.448  1.00  0.00    -0.301 OA
ENDBRANCH  29  30
ENDBRANCH  23  24
ENDBRANCH   5  22
TORSDOF 9
ENDMDL
MODEL 5
REMARK VINA RESULT:      -7.5      5.148     10.018
REMARK  9 active torsions:
REMARK  status: ('A' for Active; 'I' for Inactive)
REMARK    1  A    between atoms: C_2  and  O_3 
REMARK    2  A    between atoms: O_3  and  C_4 
REMARK    3  A    between atoms: C_5  and  O_6 
REMARK    4  A    between atoms: O_6  and  C_7 
REMARK    5  A    between atoms: C_7  and  C_8 
REMARK       I    between atoms: C_8  and  N_9 
REMARK    6  A    between atoms: N_9  and  C_10 
REMARK    7  A    between atoms: C_19  and  C_20 
REMARK    8  A    between atoms: C_21  and  C_22 
REMARK    9  A    between atoms: C_27  and  C_28 
ROOT
HETATM    1  C   UNL     1      42.106 -13.933   1.781  1.00  0.00     0.102 A 
HETATM    2  C   UNL     1      42.559 -15.260   1.927  1.00  0.00     0.102 A 
HETATM    3  C   UNL     1      42.174 -16.230   0.999  1.00  0.00     0.040 A 
HETATM    4  C   UNL     1      41.375 -15.878  -0.091  1.00  0.00     0.014 A 
HETATM    5  C   UNL     1      40.948 -14.559  -0.263  1.00  0.00    -0.033 A 
HETATM    6  C   UNL     1      41.298 -13.595   0.691  1.00  0.00     0.051 A 
ENDROOT
BRANCH   2   7
HETATM    7  O   UNL     1      43.382 -15.496   3.002  1.00  0.00    -0.339 OA
BRANCH   7   8
HETATM    8  C   UNL     1      42.808 -16.060   4.174  1.00  0.00     0.278 C 
BRANCH   8   9
HETATM    9  C   UNL     1      42.758 -17.594   4.228  1.00  0.00     0.246 C 
HETATM   10  N   UNL     1      43.782 -18.184   3.507  1.00  0.00    -0.325 N 
HETATM   11  H   UNL     1      44.385 -17.539   3.004  1.00  0.00     0.169 HD
HETATM   12  O   UNL     1      41.898 -18.167   4.891  1.00  0.00    -0.271 OA
BRANCH  10  13
HETATM   13  C   UNL     1      44.029 -19.556   3.312  1.00  0.00     0.034 A 
HETATM   14  C   UNL     1      44.616 -20.387   4.266  1.00  0.00     0.029 A 
HETATM   15  C   UNL     1      44.819 -21.745   3.994  1.00  0.00     0.002 A 
HETATM   16  C   UNL     1      44.438 -22.280   2.765  1.00  0.00     0.000 A 
HETATM   17  C   UNL     1      43.852 -21.458   1.807  1.00  0.00     0.002 A 
HETATM   18  C   UNL     1      43.649 -20.102   2.079  1.00  0.00     0.029 A 
ENDBRANCH  10  13
ENDBRANCH   8   9
ENDBRANCH   7   8
ENDBRANCH   2   7
BRANCH   1  19
HETATM   19  O   UNL     1      42.550 -13.042   2.728  1.00  0.00    -0.349 OA
BRANCH  19  20
HETATM   20  C   UNL     1      41.581 -12.188   3.333  1.00  0.00     0.171 C 
HETATM   21  C   UNL     1      40.840 -12.995   4.384  1.00  0.00     0.034 C 
ENDBRANCH  19  20
ENDBRANCH   1  19
BRANCH   5  22
HETATM   22  C   UNL     1      40.144 -14.157  -1.421  1.00  0.00     0.014 C 
HETATM   23  C   UNL     1      38.805 -14.051  -1.365  1.00  0.00     0.035 C 
BRANCH  23  24
HETATM   24  C   UNL     1      37.959 -13.716  -2.474  1.00  0.00     0.091 A 
HETATM   25  N   UNL     1      37.284 -12.557  -2.562  1.00  0.00    -0.175 NA
HETATM   26  N   UNL     1      36.640 -12.625  -3.732  1.00  0.00    -0.288 N 
HETATM   27  H   UNL     1      36.060 -11.838  -4.004  1.00  0.00     0.188 HD
HETATM   28  C   UNL     1      36.871 -13.780  -4.411  1.00  0.00     0.126 A 
HETATM   29  C   UNL     1      37.726 -14.528  -3.624  1.00  0.00     0.049 A 
BRANCH  29  30
HETATM   30  C   UNL     1      38.227 -15.841  -3.971  1.00  0.00     0.273 C 
HETATM   31  O   UNL     1      39.238 -16.050  -4.632  1.00  0.00    -0.301 OA
ENDBRANCH  29  30
ENDBRANCH  23  24
ENDBRANCH   5  22
TORSDOF 9
ENDMDL
MODEL 6
REMARK VINA RESULT:      -7.5      1.934      2.975
REMARK  9 active torsions:
REMARK  status: ('A' for Active; 'I' for Inactive)
REMARK    1  A    between atoms: C_2  and  O_3 
REMARK    2  A    between atoms: O_3  and  C_4 
REMARK    3  A    between atoms: C_5  and  O_6 
REMARK    4  A    between atoms: O_6  and  C_7 
REMARK    5  A    between atoms: C_7  and  C_8 
REMARK       I    between atoms: C_8  and  N_9 
REMARK    6  A    between atoms: N_9  and  C_10 
REMARK    7  A    between atoms: C_19  and  C_20 
REMARK    8  A    between atoms: C_21  and  C_22 
REMARK    9  A    between atoms: C_27  and  C_28 
ROOT
HETATM    1  C   UNL     1      42.927 -13.865   5.997  1.00  0.00     0.102 A 
HETATM    2  C   UNL     1      41.847 -13.123   5.479  1.00  0.00     0.102 A 
HETATM    3  C   UNL     1      41.001 -13.700   4.530  1.00  0.00     0.040 A 
HETATM    4  C   UNL     1      41.202 -15.021   4.123  1.00  0.00     0.014 A 
HETATM    5  C   UNL     1      42.250 -15.777   4.656  1.00  0.00    -0.033 A 
HETATM    6  C   UNL     1      43.124 -15.184   5.575  1.00  0.00     0.051 A 
ENDROOT
BRANCH   2   7
HETATM    7  O   UNL     1      41.702 -11.850   5.978  1.00  0.00    -0.339 OA
BRANCH   7   8
HETATM    8  C   UNL     1      40.502 -11.534   6.669  1.00  0.00     0.278 C 
BRANCH   8   9
HETATM    9  C   UNL     1      40.671 -10.963   8.085  1.00  0.00     0.246 C 
HETATM   10  N   UNL     1      41.981 -11.022   8.528  1.00  0.00    -0.325 N 
HETATM   11  H   UNL     1      42.633 -11.477   7.893  1.00  0.00     0.169 HD
HETATM   12  O   UNL     1      39.712 -10.486   8.684  1.00  0.00    -0.271 OA
BRANCH  10  13
HETATM   13  C   UNL     1      42.496 -10.623   9.775  1.00  0.00     0.034 A 
HETATM   14  C   UNL     1      42.145  -9.436  10.420  1.00  0.00     0.029 A 
HETATM   15  C   UNL     1      42.698  -9.116  11.665  1.00  0.00     0.002 A 
HETATM   16  C   UNL     1      43.606  -9.980  12.274  1.00  0.00     0.000 A 
HETATM   17  C   UNL     1      43.962 -11.166  11.638  1.00  0.00     0.002 A 
HETATM   18  C   UNL     1      43.409 -11.485  10.395  1.00  0.00     0.029 A 
ENDBRANCH  10  13
ENDBRANCH   8   9
ENDBRANCH   7   8
ENDBRANCH   2   7
BRANCH   1  19
HETATM   19  O   UNL     1      43.695 -13.226   6.940  1.00  0.00    -0.349 OA
BRANCH  19  20
HETATM   20  C   UNL     1      44.943 -13.822   7.287  1.00  0.00     0.171 C 
HETATM   21  C   UNL     1      45.754 -12.794   8.055  1.00  0.00     0.034 C 
ENDBRANCH  19  20
ENDBRANCH   1  19
BRANCH   5  22
HETATM   22  C   UNL     1      42.456 -17.177   4.277  1.00  0.00     0.014 C 
HETATM   23  C   UNL     1      43.443 -17.561   3.448  1.00  0.00     0.035 C 
BRANCH  23  24
HETATM   24  C   UNL     1      43.664 -18.905   2.997  1.00  0.00     0.091 A 
HETATM   25  N   UNL     1      43.255 -19.357   1.799  1.00  0.00    -0.175 NA
HETATM   26  N   UNL     1      43.662 -20.630   1.759  1.00  0.00    -0.288 N 
HETATM   27  H   UNL     1      43.455 -21.172   0.925  1.00  0.00     0.188 HD
HETATM   28  C   UNL     1      44.322 -21.025   2.882  1.00  0.00     0.126 A 
HETATM   29  C   UNL     1      44.343 -19.929   3.723  1.00  0.00     0.049 A 
BRANCH  29  30
HETATM   30  C   UNL     1      44.948 -19.914   5.038  1.00  0.00     0.273 C 
HETATM   31  O   UNL     1      45.267 -18.899   5.648  1.00  0.00    -0.301 OA
ENDBRANCH  29  30
ENDBRANCH  23  24
ENDBRANCH   5  22
TORSDOF 9
ENDMDL
MODEL 7
REMARK VINA RESULT:      -7.5      5.084      8.373
REMARK  9 active torsions:
REMARK  status: ('A' for Active; 'I' for Inactive)
REMARK    1  A    between atoms: C_2  and  O_3 
REMARK    2  A    between atoms: O_3  and  C_4 
REMARK    3  A    between atoms: C_5  and  O_6 
REMARK    4  A    between atoms: O_6  and  C_7 
REMARK    5  A    between atoms: C_7  and  C_8 
REMARK       I    between atoms: C_8  and  N_9 
REMARK    6  A    between atoms: N_9  and  C_10 
REMARK    7  A    between atoms: C_19  and  C_20 
REMARK    8  A    between atoms: C_21  and  C_22 
REMARK    9  A    between atoms: C_27  and  C_28 
ROOT
HETATM    1  C   UNL     1      41.042 -15.173   3.836  1.00  0.00     0.102 A 
HETATM    2  C   UNL     1      41.802 -14.521   2.844  1.00  0.00     0.102 A 
HETATM    3  C   UNL     1      43.024 -15.063   2.439  1.00  0.00     0.040 A 
HETATM    4  C   UNL     1      43.472 -16.268   2.986  1.00  0.00     0.014 A 
HETATM    5  C   UNL     1      42.709 -16.940   3.944  1.00  0.00    -0.033 A 
HETATM    6  C   UNL     1      41.505 -16.374   4.383  1.00  0.00     0.051 A 
ENDROOT
BRANCH   2   7
HETATM    7  O   UNL     1      41.254 -13.369   2.332  1.00  0.00    -0.339 OA
BRANCH   7   8
HETATM    8  C   UNL     1      41.999 -12.647   1.360  1.00  0.00     0.278 C 
BRANCH   8   9
HETATM    9  C   UNL     1      41.673 -12.961  -0.107  1.00  0.00     0.246 C 
HETATM   10  N   UNL     1      40.627 -13.858  -0.239  1.00  0.00    -0.325 N 
HETATM   11  H   UNL     1      40.259 -14.225   0.635  1.00  0.00     0.169 HD
HETATM   12  O   UNL     1      42.288 -12.409  -1.015  1.00  0.00    -0.271 OA
BRANCH  10  13
HETATM   13  C   UNL     1      40.083 -14.392  -1.422  1.00  0.00     0.034 A 
HETATM   14  C   UNL     1      38.866 -13.989  -1.972  1.00  0.00     0.029 A 
HETATM   15  C   UNL     1      38.399 -14.565  -3.159  1.00  0.00     0.002 A 
HETATM   16  C   UNL     1      39.146 -15.550  -3.802  1.00  0.00     0.000 A 
HETATM   17  C   UNL     1      40.361 -15.959  -3.260  1.00  0.00     0.002 A 
HETATM   18  C   UNL     1      40.827 -15.383  -2.076  1.00  0.00     0.029 A 
ENDBRANCH  10  13
ENDBRANCH   8   9
ENDBRANCH   7   8
ENDBRANCH   2   7
BRANCH   1  19
HETATM   19  O   UNL     1      39.845 -14.581   4.159  1.00  0.00    -0.349 OA
BRANCH  19  20
HETATM   20  C   UNL     1      39.710 -14.044   5.473  1.00  0.00     0.171 C 
HETATM   21  C   UNL     1      39.434 -12.557   5.344  1.00  0.00     0.034 C 
ENDBRANCH  19  20
ENDBRANCH   1  19
BRANCH   5  22
HETATM   22  C   UNL     1      43.137 -18.226   4.502  1.00  0.00     0.014 C 
HETATM   23  C   UNL     1      43.891 -19.096   3.807  1.00  0.00     0.035 C 
BRANCH  23  24
HETATM   24  C   UNL     1      44.298 -20.390   4.275  1.00  0.00     0.091 A 
HETATM   25  N   UNL     1      44.434 -20.693   5.578  1.00  0.00    -0.175 NA
HETATM   26  N   UNL     1      44.803 -21.978   5.591  1.00  0.00    -0.288 N 
HETATM   27  H   UNL     1      44.963 -22.419   6.492  1.00  0.00     0.188 HD
HETATM   28  C   UNL     1      44.911 -22.525   4.351  1.00  0.00     0.126 A 
HETATM   29  C   UNL     1      44.593 -21.521   3.457  1.00  0.00     0.049 A 
BRANCH  29  30
HETATM   30  C   UNL     1      44.587 -21.673   2.017  1.00  0.00     0.273 C 
HETATM   31  O   UNL     1      43.742 -22.298   1.385  1.00  0.00    -0.301 OA
ENDBRANCH  29  30
ENDBRANCH  23  24
ENDBRANCH   5  22
TORSDOF 9
ENDMDL
MODEL 8
REMARK VINA RESULT:      -7.4      2.175      2.651
REMARK  9 active torsions:
REMARK  status: ('A' for Active; 'I' for Inactive)
REMARK    1  A    between atoms: C_2  and  O_3 
REMARK    2  A    between atoms: O_3  and  C_4 
REMARK    3  A    between atoms: C_5  and  O_6 
REMARK    4  A    between atoms: O_6  and  C_7 
REMARK    5  A    between atoms: C_7  and  C_8 
REMARK       I    between atoms: C_8  and  N_9 
REMARK    6  A    between atoms: N_9  and  C_10 
REMARK    7  A    between atoms: C_19  and  C_20 
REMARK    8  A    between atoms: C_21  and  C_22 
REMARK    9  A    between atoms: C_27  and  C_28 
ROOT
HETATM    1  C   UNL     1      42.025 -14.495   4.698  1.00  0.00     0.102 A 
HETATM    2  C   UNL     1      42.588 -13.483   5.501  1.00  0.00     0.102 A 
HETATM    3  C   UNL     1      43.595 -13.803   6.414  1.00  0.00     0.040 A 
HETATM    4  C   UNL     1      44.069 -15.114   6.504  1.00  0.00     0.014 A 
HETATM    5  C   UNL     1      43.540 -16.118   5.688  1.00  0.00    -0.033 A 
HETATM    6  C   UNL     1      42.501 -15.807   4.804  1.00  0.00     0.051 A 
ENDROOT
BRANCH   2   7
HETATM    7  O   UNL     1      42.091 -12.217   5.304  1.00  0.00    -0.339 OA
BRANCH   7   8
HETATM    8  C   UNL     1      41.184 -11.696   6.265  1.00  0.00     0.278 C 
BRANCH   8   9
HETATM    9  C   UNL     1      41.783 -10.737   7.305  1.00  0.00     0.246 C 
HETATM   10  N   UNL     1      42.015 -11.352   8.523  1.00  0.00    -0.325 N 
HETATM   11  H   UNL     1      41.713 -12.321   8.583  1.00  0.00     0.169 HD
HETATM   12  O   UNL     1      42.039  -9.574   7.006  1.00  0.00    -0.271 OA
BRANCH  10  13
HETATM   13  C   UNL     1      42.523 -10.778   9.703  1.00  0.00     0.034 A 
HETATM   14  C   UNL     1      43.842 -10.919  10.135  1.00  0.00     0.029 A 
HETATM   15  C   UNL     1      44.269 -10.308  11.319  1.00  0.00     0.002 A 
HETATM   16  C   UNL     1      43.380  -9.553  12.081  1.00  0.00     0.000 A 
HETATM   17  C   UNL     1      42.062  -9.407  11.658  1.00  0.00     0.002 A 
HETATM   18  C   UNL     1      41.635 -10.017  10.476  1.00  0.00     0.029 A 
ENDBRANCH  10  13
ENDBRANCH   8   9
ENDBRANCH   7   8
ENDBRANCH   2   7
BRANCH   1  19
HETATM   19  O   UNL     1      41.055 -14.088   3.814  1.00  0.00    -0.349 OA
BRANCH  19  20
HETATM   20  C   UNL     1      41.077 -14.654   2.505  1.00  0.00     0.171 C 
HETATM   21  C   UNL     1      39.754 -15.365   2.282  1.00  0.00     0.034 C 
ENDBRANCH  19  20
ENDBRANCH   1  19
BRANCH   5  22
HETATM   22  C   UNL     1      44.049 -17.492   5.735  1.00  0.00     0.014 C 
HETATM   23  C   UNL     1      43.745 -18.404   4.795  1.00  0.00     0.035 C 
BRANCH  23  24
HETATM   24  C   UNL     1      44.167 -19.775   4.812  1.00  0.00     0.091 A 
HETATM   25  N   UNL     1      44.447 -20.446   5.943  1.00  0.00    -0.175 NA
HETATM   26  N   UNL     1      44.779 -21.675   5.536  1.00  0.00    -0.288 N 
HETATM   27  H   UNL     1      45.031 -22.361   6.242  1.00  0.00     0.188 HD
HETATM   28  C   UNL     1      44.725 -21.834   4.186  1.00  0.00     0.126 A 
HETATM   29  C   UNL     1      44.332 -20.614   3.670  1.00  0.00     0.049 A 
BRANCH  29  30
HETATM   30  C   UNL     1      44.152 -20.337   2.260  1.00  0.00     0.273 C 
HETATM   31  O   UNL     1      43.840 -21.174   1.419  1.00  0.00    -0.301 OA
ENDBRANCH  29  30
ENDBRANCH  23  24
ENDBRANCH   5  22
TORSDOF 9
ENDMDL
MODEL 9
REMARK VINA RESULT:      -7.4      2.583      3.711
REMARK  9 active torsions:
REMARK  status: ('A' for Active; 'I' for Inactive)
REMARK    1  A    between atoms: C_2  and  O_3 
REMARK    2  A    between atoms: O_3  and  C_4 
REMARK    3  A    between atoms: C_5  and  O_6 
REMARK    4  A    between atoms: O_6  and  C_7 
REMARK    5  A    between atoms: C_7  and  C_8 
REMARK       I    between atoms: C_8  and  N_9 
REMARK    6  A    between atoms: N_9  and  C_10 
REMARK    7  A    between atoms: C_19  and  C_20 
REMARK    8  A    between atoms: C_21  and  C_22 
REMARK    9  A    between atoms: C_27  and  C_28 
ROOT
HETATM    1  C   UNL     1      43.001 -14.982   5.824  1.00  0.00     0.102 A 
HETATM    2  C   UNL     1      41.728 -14.786   5.251  1.00  0.00     0.102 A 
HETATM    3  C   UNL     1      41.044 -15.868   4.694  1.00  0.00     0.040 A 
HETATM    4  C   UNL     1      41.603 -17.148   4.738  1.00  0.00     0.014 A 
HETATM    5  C   UNL     1      42.849 -17.359   5.334  1.00  0.00    -0.033 A 
HETATM    6  C   UNL     1      43.554 -16.267   5.854  1.00  0.00     0.051 A 
ENDROOT
BRANCH   2   7
HETATM    7  O   UNL     1      41.242 -13.501   5.300  1.00  0.00    -0.339 OA
BRANCH   7   8
HETATM    8  C   UNL     1      39.898 -13.308   5.719  1.00  0.00     0.278 C 
BRANCH   8   9
HETATM    9  C   UNL     1      39.592 -11.965   6.399  1.00  0.00     0.246 C 
HETATM   10  N   UNL     1      40.171 -11.859   7.651  1.00  0.00    -0.325 N 
HETATM   11  H   UNL     1      40.665 -12.688   7.971  1.00  0.00     0.169 HD
HETATM   12  O   UNL     1      38.930 -11.109   5.818  1.00  0.00    -0.271 OA
BRANCH  10  13
HETATM   13  C   UNL     1      40.078 -10.793   8.564  1.00  0.00     0.034 A 
HETATM   14  C   UNL     1      38.910 -10.447   9.244  1.00  0.00     0.029 A 
HETATM   15  C   UNL     1      38.904  -9.375  10.143  1.00  0.00     0.002 A 
HETATM   16  C   UNL     1      40.066  -8.639  10.367  1.00  0.00     0.000 A 
HETATM   17  C   UNL     1      41.236  -8.976   9.692  1.00  0.00     0.002 A 
HETATM   18  C   UNL     1      41.242 -10.047   8.796  1.00  0.00     0.029 A 
ENDBRANCH  10  13
ENDBRANCH   8   9
ENDBRANCH   7   8
ENDBRANCH   2   7
BRANCH   1  19
HETATM   19  O   UNL     1      43.593 -13.867   6.366  1.00  0.00    -0.349 OA
BRANCH  19  20
HETATM   20  C   UNL     1      44.927 -13.999   6.851  1.00  0.00     0.171 C 
HETATM   21  C   UNL     1      45.065 -13.120   8.081  1.00  0.00     0.034 C 
ENDBRANCH  19  20
ENDBRANCH   1  19
BRANCH   5  22
HETATM   22  C   UNL     1      43.436 -18.698   5.430  1.00  0.00     0.014 C 
HETATM   23  C   UNL     1      43.805 -19.402   4.345  1.00  0.00     0.035 C 
BRANCH  23  24
HETATM   24  C   UNL     1      44.335 -20.735   4.370  1.00  0.00     0.091 A 
HETATM   25  N   UNL     1      44.788 -21.327   5.489  1.00  0.00    -0.175 NA
HETATM   26  N   UNL     1      45.172 -22.546   5.097  1.00  0.00    -0.288 N 
HETATM   27  H   UNL     1      45.552 -23.176   5.797  1.00  0.00     0.188 HD
HETATM   28  C   UNL     1      44.985 -22.774   3.768  1.00  0.00     0.126 A 
HETATM   29  C   UNL     1      44.443 -21.613   3.251  1.00  0.00     0.049 A 
BRANCH  29  30
HETATM   30  C   UNL     1      44.090 -21.419   1.860  1.00  0.00     0.273 C 
HETATM   31  O   UNL     1      43.981 -22.321   1.035  1.00  0.00    -0.301 OA
ENDBRANCH  29  30
ENDBRANCH  23  24
ENDBRANCH   5  22
TORSDOF 9
ENDMDL
MODEL 10
REMARK VINA RESULT:      -7.4      5.167      8.008
REMARK  9 active torsions:
REMARK  status: ('A' for Active; 'I' for Inactive)
REMARK    1  A    between atoms: C_2  and  O_3 
REMARK    2  A    between atoms: O_3  and  C_4 
REMARK    3  A    between atoms: C_5  and  O_6 
REMARK    4  A    between atoms: O_6  and  C_7 
REMARK    5  A    between atoms: C_7  and  C_8 
REMARK       I    between atoms: C_8  and  N_9 
REMARK    6  A    between atoms: N_9  and  C_10 
REMARK    7  A    between atoms: C_19  and  C_20 
REMARK    8  A    between atoms: C_21  and  C_22 
REMARK    9  A    between atoms: C_27  and  C_28 
ROOT
HETATM    1  C   UNL     1      42.790 -15.342   2.028  1.00  0.00     0.102 A 
HETATM    2  C   UNL     1      42.893 -14.160   2.789  1.00  0.00     0.102 A 
HETATM    3  C   UNL     1      43.214 -14.236   4.146  1.00  0.00     0.040 A 
HETATM    4  C   UNL     1      43.471 -15.475   4.738  1.00  0.00     0.014 A 
HETATM    5  C   UNL     1      43.405 -16.649   3.983  1.00  0.00    -0.033 A 
HETATM    6  C   UNL     1      43.040 -16.578   2.634  1.00  0.00     0.051 A 
ENDROOT
BRANCH   2   7
HETATM    7  O   UNL     1      42.671 -12.988   2.107  1.00  0.00    -0.339 OA
BRANCH   7   8
HETATM    8  C   UNL     1      41.327 -12.602   1.856  1.00  0.00     0.278 C 
BRANCH   8   9
HETATM    9  C   UNL     1      41.048 -11.996   0.472  1.00  0.00     0.246 C 
HETATM   10  N   UNL     1      42.158 -12.027  -0.355  1.00  0.00    -0.325 N 
HETATM   11  H   UNL     1      43.007 -12.388   0.073  1.00  0.00     0.169 HD
HETATM   12  O   UNL     1      39.928 -11.584   0.186  1.00  0.00    -0.271 OA
BRANCH  10  13
HETATM   13  C   UNL     1      42.277 -11.537  -1.668  1.00  0.00     0.034 A 
HETATM   14  C   UNL     1      42.171 -12.330  -2.811  1.00  0.00     0.029 A 
HETATM   15  C   UNL     1      42.295 -11.761  -4.083  1.00  0.00     0.002 A 
HETATM   16  C   UNL     1      42.526 -10.394  -4.222  1.00  0.00     0.000 A 
HETATM   17  C   UNL     1      42.634  -9.595  -3.087  1.00  0.00     0.002 A 
HETATM   18  C   UNL     1      42.510 -10.163  -1.817  1.00  0.00     0.029 A 
ENDBRANCH  10  13
ENDBRANCH   8   9
ENDBRANCH   7   8
ENDBRANCH   2   7
BRANCH   1  19
HETATM   19  O   UNL     1      42.489 -15.173   0.698  1.00  0.00    -0.349 OA
BRANCH  19  20
HETATM   20  C   UNL     1      41.506 -16.036   0.131  1.00  0.00     0.171 C 
HETATM   21  C   UNL     1      41.084 -15.449  -1.204  1.00  0.00     0.034 C 
ENDBRANCH  19  20
ENDBRANCH   1  19
BRANCH   5  22
HETATM   22  C   UNL     1      43.712 -17.957   4.571  1.00  0.00     0.014 C 
HETATM   23  C   UNL     1      44.104 -19.006   3.827  1.00  0.00     0.035 C 
BRANCH  23  24
HETATM   24  C   UNL     1      44.366 -20.322   4.335  1.00  0.00     0.091 A 
HETATM   25  N   UNL     1      44.401 -20.613   5.646  1.00  0.00    -0.175 NA
HETATM   26  N   UNL     1      44.654 -21.925   5.698  1.00  0.00    -0.288 N 
HETATM   27  H   UNL     1      44.722 -22.363   6.611  1.00  0.00     0.188 HD
HETATM   28  C   UNL     1      44.783 -22.501   4.472  1.00  0.00     0.126 A 
HETATM   29  C   UNL     1      44.606 -21.489   3.549  1.00  0.00     0.049 A 
BRANCH  29  30
HETATM   30  C   UNL     1      44.668 -21.666   2.113  1.00  0.00     0.273 C 
HETATM   31  O   UNL     1      43.786 -22.181   1.435  1.00  0.00    -0.301 OA
ENDBRANCH  29  30
ENDBRANCH  23  24
ENDBRANCH   5  22
TORSDOF 9
ENDMDL
