MODEL 1
REMARK VINA RESULT:      -9.9      0.000      0.000
REMARK  4 active torsions:
REMARK  status: ('A' for Active; 'I' for Inactive)
REMARK    1  A    between atoms: C_2  and  C_3 
REMARK       I    between atoms: C_3  and  N_4 
REMARK    2  A    between atoms: N_4  and  N_5 
REMARK    3  A    between atoms: N_5  and  C_6 
REMARK    4  A    between atoms: N_7  and  C_8 
ROOT
HETATM    1  C   UNL     1      42.953 -15.673   5.895  1.00  0.00     0.208 A 
HETATM    2  N   UNL     1      42.304 -14.995   4.865  1.00  0.00    -0.251 N 
HETATM    3  C   UNL     1      42.296 -15.519   3.573  1.00  0.00     0.264 A 
HETATM    4  O   UNL     1      41.778 -14.953   2.611  1.00  0.00    -0.267 OA
HETATM    5  C   UNL     1      42.898 -16.875   3.385  1.00  0.00     0.049 A 
HETATM    6  C   UNL     1      43.401 -17.452   4.495  1.00  0.00     0.083 A 
HETATM    7  C   UNL     1      43.916 -18.847   4.414  1.00  0.00    -0.000 A 
HETATM    8  C   UNL     1      44.239 -19.406   3.169  1.00  0.00    -0.044 A 
HETATM    9  C   UNL     1      44.743 -20.712   3.084  1.00  0.00     0.008 A 
HETATM   10  C   UNL     1      44.905 -21.477   4.238  1.00  0.00     0.001 A 
HETATM   11  C   UNL     1      44.576 -20.938   5.478  1.00  0.00     0.001 A 
HETATM   12  C   UNL     1      44.088 -19.632   5.565  1.00  0.00     0.014 A 
HETATM   13  C   UNL     1      44.091 -18.559   1.937  1.00  0.00     0.054 C 
HETATM   14  C   UNL     1      42.876 -17.595   2.021  1.00  0.00    -0.002 C 
HETATM   15  C   UNL     1      41.552 -18.380   1.846  1.00  0.00     0.015 C 
HETATM   16  C   UNL     1      40.612 -17.417   1.139  1.00  0.00     0.001 C 
HETATM   17  C   UNL     1      41.508 -16.673   0.162  1.00  0.00     0.001 C 
HETATM   18  C   UNL     1      42.922 -16.701   0.752  1.00  0.00     0.015 C 
HETATM   19  N   UNL     1      43.475 -16.855   5.721  1.00  0.00    -0.217 NA
ENDROOT
BRANCH   1  20
HETATM   20  N   UNL     1      43.106 -15.076   7.140  1.00  0.00    -0.171 NA
HETATM   21  H   UNL     1      42.402 -14.378   7.401  1.00  0.00     0.156 HD
BRANCH  20  22
HETATM   22  N   UNL     1      44.415 -14.643   7.446  1.00  0.00    -0.284 N 
HETATM   23  C   UNL     1      44.554 -13.297   7.731  1.00  0.00     0.231 C 
HETATM   24  O   UNL     1      43.588 -12.551   7.885  1.00  0.00    -0.272 OA
HETATM   25  H   UNL     1      45.146 -15.164   6.961  1.00  0.00     0.184 HD
BRANCH  23  26
HETATM   26  C   UNL     1      45.998 -12.853   7.808  1.00  0.00     0.100 C 
HETATM   27  C   UNL     1      46.187 -11.685   8.762  1.00  0.00     0.014 C 
ENDBRANCH  23  26
ENDBRANCH  20  22
ENDBRANCH   1  20
BRANCH   2  28
HETATM   28  C   UNL     1      41.599 -13.763   5.115  1.00  0.00     0.045 A 
HETATM   29  C   UNL     1      40.316 -13.774   5.687  1.00  0.00     0.030 A 
HETATM   30  C   UNL     1      39.635 -12.582   5.949  1.00  0.00     0.002 A 
HETATM   31  C   UNL     1      40.222 -11.361   5.634  1.00  0.00     0.000 A 
HETATM   32  C   UNL     1      41.486 -11.331   5.050  1.00  0.00     0.002 A 
HETATM   33  C   UNL     1      42.167 -12.523   4.788  1.00  0.00     0.030 A 
ENDBRANCH   2  28
TORSDOF 4
ENDMDL
MODEL 2
REMARK VINA RESULT:      -9.2      3.808      7.017
REMARK  4 active torsions:
REMARK  status: ('A' for Active; 'I' for Inactive)
REMARK    1  A    between atoms: C_2  and  C_3 
REMARK       I    between atoms: C_3  and  N_4 
REMARK    2  A    between atoms: N_4  and  N_5 
REMARK    3  A    between atoms: N_5  and  C_6 
REMARK    4  A    between atoms: N_7  and  C_8 
ROOT
HETATM    1  C   UNL     1      41.533 -15.348  -0.153  1.00  0.00     0.208 A 
HETATM    2  N   UNL     1      40.956 -14.255   0.491  1.00  0.00    -0.251 N 
HETATM    3  C   UNL     1      40.809 -14.252   1.878  1.00  0.00     0.264 A 
HETATM    4  O   UNL     1      40.271 -13.339   2.504  1.00  0.00    -0.267 OA
HETATM    5  C   UNL     1      41.404 -15.400   2.627  1.00  0.00     0.049 A 
HETATM    6  C   UNL     1      42.019 -16.336   1.876  1.00  0.00     0.083 A 
HETATM    7  C   UNL     1      42.734 -17.451   2.553  1.00  0.00    -0.000 A 
HETATM    8  C   UNL     1      42.455 -17.754   3.894  1.00  0.00    -0.044 A 
HETATM    9  C   UNL     1      43.109 -18.816   4.536  1.00  0.00     0.008 A 
HETATM   10  C   UNL     1      44.063 -19.567   3.852  1.00  0.00     0.001 A 
HETATM   11  C   UNL     1      44.359 -19.269   2.525  1.00  0.00     0.001 A 
HETATM   12  C   UNL     1      43.696 -18.221   1.880  1.00  0.00     0.014 A 
HETATM   13  C   UNL     1      41.401 -16.958   4.610  1.00  0.00     0.054 C 
HETATM   14  C   UNL     1      41.379 -15.469   4.168  1.00  0.00    -0.002 C 
HETATM   15  C   UNL     1      42.594 -14.712   4.762  1.00  0.00     0.015 C 
HETATM   16  C   UNL     1      42.097 -13.297   5.007  1.00  0.00     0.001 C 
HETATM   17  C   UNL     1      40.664 -13.482   5.480  1.00  0.00     0.001 C 
HETATM   18  C   UNL     1      40.171 -14.805   4.883  1.00  0.00     0.015 C 
HETATM   19  N   UNL     1      42.049 -16.345   0.511  1.00  0.00    -0.217 NA
ENDROOT
BRANCH   1  20
HETATM   20  N   UNL     1      41.528 -15.427  -1.539  1.00  0.00    -0.171 NA
HETATM   21  H   UNL     1      41.778 -14.572  -2.047  1.00  0.00     0.156 HD
BRANCH  20  22
HETATM   22  N   UNL     1      40.403 -16.064  -2.105  1.00  0.00    -0.284 N 
HETATM   23  C   UNL     1      40.028 -15.625  -3.362  1.00  0.00     0.231 C 
HETATM   24  O   UNL     1      40.722 -14.858  -4.027  1.00  0.00    -0.272 OA
HETATM   25  H   UNL     1      39.712 -16.369  -1.418  1.00  0.00     0.184 HD
BRANCH  23  26
HETATM   26  C   UNL     1      38.686 -16.166  -3.804  1.00  0.00     0.100 C 
HETATM   27  C   UNL     1      37.575 -15.142  -3.637  1.00  0.00     0.014 C 
ENDBRANCH  23  26
ENDBRANCH  20  22
ENDBRANCH   1  20
BRANCH   2  28
HETATM   28  C   UNL     1      40.532 -13.095  -0.251  1.00  0.00     0.045 A 
HETATM   29  C   UNL     1      41.423 -12.036  -0.498  1.00  0.00     0.030 A 
HETATM   30  C   UNL     1      41.024 -10.916  -1.233  1.00  0.00     0.002 A 
HETATM   31  C   UNL     1      39.725 -10.832  -1.724  1.00  0.00     0.000 A 
HETATM   32  C   UNL     1      38.822 -11.863  -1.474  1.00  0.00     0.002 A 
HETATM   33  C   UNL     1      39.222 -12.983  -0.739  1.00  0.00     0.030 A 
ENDBRANCH   2  28
TORSDOF 4
ENDMDL
MODEL 3
REMARK VINA RESULT:      -9.1      2.582      5.512
REMARK  4 active torsions:
REMARK  status: ('A' for Active; 'I' for Inactive)
REMARK    1  A    between atoms: C_2  and  C_3 
REMARK       I    between atoms: C_3  and  N_4 
REMARK    2  A    between atoms: N_4  and  N_5 
REMARK    3  A    between atoms: N_5  and  C_6 
REMARK    4  A    between atoms: N_7  and  C_8 
ROOT
HETATM    1  C   UNL     1      41.457 -16.542   2.099  1.00  0.00     0.208 A 
HETATM    2  N   UNL     1      41.421 -15.590   3.116  1.00  0.00    -0.251 N 
HETATM    3  C   UNL     1      41.939 -15.886   4.376  1.00  0.00     0.264 A 
HETATM    4  O   UNL     1      41.903 -15.108   5.329  1.00  0.00    -0.267 OA
HETATM    5  C   UNL     1      42.630 -17.203   4.535  1.00  0.00     0.049 A 
HETATM    6  C   UNL     1      42.672 -17.980   3.434  1.00  0.00     0.083 A 
HETATM    7  C   UNL     1      43.440 -19.254   3.478  1.00  0.00    -0.000 A 
HETATM    8  C   UNL     1      43.774 -19.831   4.712  1.00  0.00    -0.044 A 
HETATM    9  C   UNL     1      44.479 -21.043   4.764  1.00  0.00     0.008 A 
HETATM   10  C   UNL     1      44.877 -21.673   3.586  1.00  0.00     0.001 A 
HETATM   11  C   UNL     1      44.563 -21.104   2.356  1.00  0.00     0.001 A 
HETATM   12  C   UNL     1      43.847 -19.905   2.303  1.00  0.00     0.014 A 
HETATM   13  C   UNL     1      43.311 -19.159   5.973  1.00  0.00     0.054 C 
HETATM   14  C   UNL     1      43.315 -17.610   5.856  1.00  0.00    -0.002 C 
HETATM   15  C   UNL     1      44.767 -17.070   5.900  1.00  0.00     0.015 C 
HETATM   16  C   UNL     1      44.665 -15.720   6.590  1.00  0.00     0.001 C 
HETATM   17  C   UNL     1      43.608 -15.928   7.663  1.00  0.00     0.001 C 
HETATM   18  C   UNL     1      42.697 -17.057   7.169  1.00  0.00     0.015 C 
HETATM   19  N   UNL     1      42.062 -17.687   2.248  1.00  0.00    -0.217 NA
ENDROOT
BRANCH   1  20
HETATM   20  N   UNL     1      40.795 -16.312   0.900  1.00  0.00    -0.171 NA
HETATM   21  H   UNL     1      40.247 -17.093   0.524  1.00  0.00     0.156 HD
BRANCH  20  22
HETATM   22  N   UNL     1      41.560 -15.676  -0.102  1.00  0.00    -0.284 N 
HETATM   23  C   UNL     1      40.920 -14.669  -0.802  1.00  0.00     0.231 C 
HETATM   24  O   UNL     1      39.823 -14.227  -0.468  1.00  0.00    -0.272 OA
HETATM   25  H   UNL     1      42.242 -16.287  -0.551  1.00  0.00     0.184 HD
BRANCH  23  26
HETATM   26  C   UNL     1      41.699 -14.201  -2.012  1.00  0.00     0.100 C 
HETATM   27  C   UNL     1      41.333 -14.980  -3.264  1.00  0.00     0.014 C 
ENDBRANCH  23  26
ENDBRANCH  20  22
ENDBRANCH   1  20
BRANCH   2  28
HETATM   28  C   UNL     1      40.885 -14.273   2.882  1.00  0.00     0.045 A 
HETATM   29  C   UNL     1      41.724 -13.215   2.493  1.00  0.00     0.030 A 
HETATM   30  C   UNL     1      41.208 -11.940   2.247  1.00  0.00     0.002 A 
HETATM   31  C   UNL     1      39.845 -11.700   2.395  1.00  0.00     0.000 A 
HETATM   32  C   UNL     1      39.000 -12.732   2.797  1.00  0.00     0.002 A 
HETATM   33  C   UNL     1      39.517 -14.007   3.043  1.00  0.00     0.030 A 
ENDBRANCH   2  28
TORSDOF 4
ENDMDL
MODEL 4
REMARK VINA RESULT:      -8.7      1.367      1.780
REMARK  4 active torsions:
REMARK  status: ('A' for Active; 'I' for Inactive)
REMARK    1  A    between atoms: C_2  and  C_3 
REMARK       I    between atoms: C_3  and  N_4 
REMARK    2  A    between atoms: N_4  and  N_5 
REMARK    3  A    between atoms: N_5  and  C_6 
REMARK    4  A    between atoms: N_7  and  C_8 
ROOT
HETATM    1  C   UNL     1      42.472 -13.724   5.818  1.00  0.00     0.208 A 
HETATM    2  N   UNL     1      41.783 -13.371   4.659  1.00  0.00    -0.251 N 
HETATM    3  C   UNL     1      41.794 -14.215   3.549  1.00  0.00     0.264 A 
HETATM    4  O   UNL     1      41.242 -13.946   2.483  1.00  0.00    -0.267 OA
HETATM    5  C   UNL     1      42.463 -15.543   3.711  1.00  0.00     0.049 A 
HETATM    6  C   UNL     1      43.001 -15.785   4.923  1.00  0.00     0.083 A 
HETATM    7  C   UNL     1      43.585 -17.126   5.200  1.00  0.00    -0.000 A 
HETATM    8  C   UNL     1      43.928 -17.976   4.138  1.00  0.00    -0.044 A 
HETATM    9  C   UNL     1      44.497 -19.233   4.388  1.00  0.00     0.008 A 
HETATM   10  C   UNL     1      44.704 -19.661   5.698  1.00  0.00     0.001 A 
HETATM   11  C   UNL     1      44.357 -18.832   6.760  1.00  0.00     0.001 A 
HETATM   12  C   UNL     1      43.803 -17.573   6.512  1.00  0.00     0.014 A 
HETATM   13  C   UNL     1      43.730 -17.490   2.731  1.00  0.00     0.054 C 
HETATM   14  C   UNL     1      42.468 -16.595   2.583  1.00  0.00    -0.002 C 
HETATM   15  C   UNL     1      41.184 -17.460   2.645  1.00  0.00     0.015 C 
HETATM   16  C   UNL     1      40.193 -16.762   1.729  1.00  0.00     0.001 C 
HETATM   17  C   UNL     1      41.043 -16.258   0.574  1.00  0.00     0.001 C 
HETATM   18  C   UNL     1      42.461 -16.064   1.124  1.00  0.00     0.015 C 
HETATM   19  N   UNL     1      43.052 -14.885   5.949  1.00  0.00    -0.217 NA
ENDROOT
BRANCH   1  20
HETATM   20  N   UNL     1      42.603 -12.815   6.860  1.00  0.00    -0.171 NA
HETATM   21  H   UNL     1      42.470 -11.826   6.622  1.00  0.00     0.156 HD
BRANCH  20  22
HETATM   22  N   UNL     1      43.725 -13.009   7.695  1.00  0.00    -0.284 N 
HETATM   23  C   UNL     1      44.068 -11.940   8.503  1.00  0.00     0.231 C 
HETATM   24  O   UNL     1      43.350 -10.950   8.627  1.00  0.00    -0.272 OA
HETATM   25  H   UNL     1      44.434 -13.626   7.297  1.00  0.00     0.184 HD
BRANCH  23  26
HETATM   26  C   UNL     1      45.408 -12.117   9.184  1.00  0.00     0.100 C 
HETATM   27  C   UNL     1      45.371 -11.679  10.638  1.00  0.00     0.014 C 
ENDBRANCH  23  26
ENDBRANCH  20  22
ENDBRANCH   1  20
BRANCH   2  28
HETATM   28  C   UNL     1      41.019 -12.151   4.592  1.00  0.00     0.045 A 
HETATM   29  C   UNL     1      39.654 -12.140   4.926  1.00  0.00     0.030 A 
HETATM   30  C   UNL     1      38.912 -10.957   4.881  1.00  0.00     0.002 A 
HETATM   31  C   UNL     1      39.519  -9.768   4.491  1.00  0.00     0.000 A 
HETATM   32  C   UNL     1      40.867  -9.763   4.139  1.00  0.00     0.002 A 
HETATM   33  C   UNL     1      41.609 -10.946   4.184  1.00  0.00     0.030 A 
ENDBRANCH   2  28
TORSDOF 4
ENDMDL
MODEL 5
REMARK VINA RESULT:      -8.5      4.125      7.304
REMARK  4 active torsions:
REMARK  status: ('A' for Active; 'I' for Inactive)
REMARK    1  A    between atoms: C_2  and  C_3 
REMARK       I    between atoms: C_3  and  N_4 
REMARK    2  A    between atoms: N_4  and  N_5 
REMARK    3  A    between atoms: N_5  and  C_6 
REMARK    4  A    between atoms: N_7  and  C_8 
ROOT
HETATM    1  C   UNL     1      42.536 -13.227   1.796  1.00  0.00     0.208 A 
HETATM    2  N   UNL     1      41.958 -14.435   1.410  1.00  0.00    -0.251 N 
HETATM    3  C   UNL     1      41.296 -14.540   0.187  1.00  0.00     0.264 A 
HETATM    4  O   UNL     1      40.729 -15.563  -0.196  1.00  0.00    -0.267 OA
HETATM    5  C   UNL     1      41.348 -13.351  -0.718  1.00  0.00     0.049 A 
HETATM    6  C   UNL     1      42.028 -12.286  -0.249  1.00  0.00     0.083 A 
HETATM    7  C   UNL     1      42.223 -11.106  -1.135  1.00  0.00    -0.000 A 
HETATM    8  C   UNL     1      41.404 -10.929  -2.260  1.00  0.00    -0.044 A 
HETATM    9  C   UNL     1      41.566  -9.810  -3.090  1.00  0.00     0.008 A 
HETATM   10  C   UNL     1      42.561  -8.873  -2.817  1.00  0.00     0.001 A 
HETATM   11  C   UNL     1      43.388  -9.043  -1.711  1.00  0.00     0.001 A 
HETATM   12  C   UNL     1      43.217 -10.150  -0.875  1.00  0.00     0.014 A 
HETATM   13  C   UNL     1      40.314 -11.928  -2.525  1.00  0.00     0.054 C 
HETATM   14  C   UNL     1      40.725 -13.373  -2.129  1.00  0.00    -0.002 C 
HETATM   15  C   UNL     1      41.733 -13.948  -3.156  1.00  0.00     0.015 C 
HETATM   16  C   UNL     1      41.438 -15.438  -3.209  1.00  0.00     0.001 C 
HETATM   17  C   UNL     1      39.925 -15.522  -3.090  1.00  0.00     0.001 C 
HETATM   18  C   UNL     1      39.472 -14.269  -2.332  1.00  0.00     0.015 C 
HETATM   19  N   UNL     1      42.576 -12.196   0.999  1.00  0.00    -0.217 NA
ENDROOT
BRANCH   1  20
HETATM   20  N   UNL     1      43.047 -13.073   3.078  1.00  0.00    -0.171 NA
HETATM   21  H   UNL     1      43.452 -13.909   3.512  1.00  0.00     0.156 HD
BRANCH  20  22
HETATM   22  N   UNL     1      42.222 -12.362   3.977  1.00  0.00    -0.284 N 
HETATM   23  C   UNL     1      42.041 -12.943   5.219  1.00  0.00     0.231 C 
HETATM   24  O   UNL     1      42.687 -13.920   5.591  1.00  0.00    -0.272 OA
HETATM   25  H   UNL     1      41.479 -11.830   3.523  1.00  0.00     0.184 HD
BRANCH  23  26
HETATM   26  C   UNL     1      40.963 -12.267   6.038  1.00  0.00     0.100 C 
HETATM   27  C   UNL     1      39.700 -13.107   6.124  1.00  0.00     0.014 C 
ENDBRANCH  23  26
ENDBRANCH  20  22
ENDBRANCH   1  20
BRANCH   2  28
HETATM   28  C   UNL     1      42.061 -15.607   2.242  1.00  0.00     0.045 A 
HETATM   29  C   UNL     1      43.169 -16.466   2.139  1.00  0.00     0.030 A 
HETATM   30  C   UNL     1      43.283 -17.594   2.956  1.00  0.00     0.002 A 
HETATM   31  C   UNL     1      42.288 -17.887   3.882  1.00  0.00     0.000 A 
HETATM   32  C   UNL     1      41.174 -17.058   3.987  1.00  0.00     0.002 A 
HETATM   33  C   UNL     1      41.060 -15.929   3.169  1.00  0.00     0.030 A 
ENDBRANCH   2  28
TORSDOF 4
ENDMDL
MODEL 6
REMARK VINA RESULT:      -8.4      3.842      6.436
REMARK  4 active torsions:
REMARK  status: ('A' for Active; 'I' for Inactive)
REMARK    1  A    between atoms: C_2  and  C_3 
REMARK       I    between atoms: C_3  and  N_4 
REMARK    2  A    between atoms: N_4  and  N_5 
REMARK    3  A    between atoms: N_5  and  C_6 
REMARK    4  A    between atoms: N_7  and  C_8 
ROOT
HETATM    1  C   UNL     1      40.350 -15.175   0.402  1.00  0.00     0.208 A 
HETATM    2  N   UNL     1      39.833 -14.220   1.276  1.00  0.00    -0.251 N 
HETATM    3  C   UNL     1      40.018 -14.353   2.652  1.00  0.00     0.264 A 
HETATM    4  O   UNL     1      39.554 -13.570   3.481  1.00  0.00    -0.267 OA
HETATM    5  C   UNL     1      40.886 -15.477   3.116  1.00  0.00     0.049 A 
HETATM    6  C   UNL     1      41.398 -16.262   2.147  1.00  0.00     0.083 A 
HETATM    7  C   UNL     1      42.363 -17.333   2.518  1.00  0.00    -0.000 A 
HETATM    8  C   UNL     1      42.440 -17.780   3.846  1.00  0.00    -0.044 A 
HETATM    9  C   UNL     1      43.331 -18.803   4.202  1.00  0.00     0.008 A 
HETATM   10  C   UNL     1      44.168 -19.369   3.242  1.00  0.00     0.001 A 
HETATM   11  C   UNL     1      44.110 -18.926   1.925  1.00  0.00     0.001 A 
HETATM   12  C   UNL     1      43.212 -17.917   1.566  1.00  0.00     0.014 A 
HETATM   13  C   UNL     1      41.509 -17.185   4.864  1.00  0.00     0.054 C 
HETATM   14  C   UNL     1      41.233 -15.679   4.606  1.00  0.00    -0.002 C 
HETATM   15  C   UNL     1      42.470 -14.829   4.992  1.00  0.00     0.015 C 
HETATM   16  C   UNL     1      41.904 -13.513   5.497  1.00  0.00     0.001 C 
HETATM   17  C   UNL     1      40.650 -13.914   6.257  1.00  0.00     0.001 C 
HETATM   18  C   UNL     1      40.167 -15.232   5.644  1.00  0.00     0.015 C 
HETATM   19  N   UNL     1      41.107 -16.152   0.818  1.00  0.00    -0.217 NA
ENDROOT
BRANCH   1  20
HETATM   20  N   UNL     1      40.026 -15.137  -0.948  1.00  0.00    -0.171 NA
HETATM   21  H   UNL     1      39.732 -16.023  -1.372  1.00  0.00     0.156 HD
BRANCH  20  22
HETATM   22  N   UNL     1      40.937 -14.438  -1.770  1.00  0.00    -0.284 N 
HETATM   23  C   UNL     1      40.376 -13.583  -2.702  1.00  0.00     0.231 C 
HETATM   24  O   UNL     1      39.179 -13.307  -2.707  1.00  0.00    -0.272 OA
HETATM   25  H   UNL     1      41.795 -14.955  -1.968  1.00  0.00     0.184 HD
BRANCH  23  26
HETATM   26  C   UNL     1      41.380 -13.058  -3.705  1.00  0.00     0.100 C 
HETATM   27  C   UNL     1      42.589 -12.434  -3.029  1.00  0.00     0.014 C 
ENDBRANCH  23  26
ENDBRANCH  20  22
ENDBRANCH   1  20
BRANCH   2  28
HETATM   28  C   UNL     1      39.130 -13.063   0.782  1.00  0.00     0.045 A 
HETATM   29  C   UNL     1      37.740 -13.099   0.580  1.00  0.00     0.030 A 
HETATM   30  C   UNL     1      37.051 -11.975   0.119  1.00  0.00     0.002 A 
HETATM   31  C   UNL     1      37.741 -10.800  -0.158  1.00  0.00     0.000 A 
HETATM   32  C   UNL     1      39.122 -10.750   0.018  1.00  0.00     0.002 A 
HETATM   33  C   UNL     1      39.811 -11.875   0.480  1.00  0.00     0.030 A 
ENDBRANCH   2  28
TORSDOF 4
ENDMDL
MODEL 7
REMARK VINA RESULT:      -8.3      3.681      7.450
REMARK  4 active torsions:
REMARK  status: ('A' for Active; 'I' for Inactive)
REMARK    1  A    between atoms: C_2  and  C_3 
REMARK       I    between atoms: C_3  and  N_4 
REMARK    2  A    between atoms: N_4  and  N_5 
REMARK    3  A    between atoms: N_5  and  C_6 
REMARK    4  A    between atoms: N_7  and  C_8 
ROOT
HETATM    1  C   UNL     1      40.216 -15.293   2.347  1.00  0.00     0.208 A 
HETATM    2  N   UNL     1      40.941 -15.831   1.285  1.00  0.00    -0.251 N 
HETATM    3  C   UNL     1      40.699 -15.406  -0.020  1.00  0.00     0.264 A 
HETATM    4  O   UNL     1      41.273 -15.869  -1.006  1.00  0.00    -0.267 OA
HETATM    5  C   UNL     1      39.732 -14.280  -0.200  1.00  0.00     0.049 A 
HETATM    6  C   UNL     1      39.181 -13.794   0.930  1.00  0.00     0.083 A 
HETATM    7  C   UNL     1      38.296 -12.600   0.846  1.00  0.00    -0.000 A 
HETATM    8  C   UNL     1      37.730 -12.228  -0.383  1.00  0.00    -0.044 A 
HETATM    9  C   UNL     1      36.879 -11.116  -0.468  1.00  0.00     0.008 A 
HETATM   10  C   UNL     1      36.607 -10.354   0.667  1.00  0.00     0.001 A 
HETATM   11  C   UNL     1      37.171 -10.705   1.889  1.00  0.00     0.001 A 
HETATM   12  C   UNL     1      38.007 -11.821   1.978  1.00  0.00     0.014 A 
HETATM   13  C   UNL     1      38.006 -13.077  -1.591  1.00  0.00     0.054 C 
HETATM   14  C   UNL     1      39.443 -13.667  -1.586  1.00  0.00    -0.002 C 
HETATM   15  C   UNL     1      40.480 -12.564  -1.916  1.00  0.00     0.015 C 
HETATM   16  C   UNL     1      41.588 -13.277  -2.673  1.00  0.00     0.001 C 
HETATM   17  C   UNL     1      40.857 -14.296  -3.532  1.00  0.00     0.001 C 
HETATM   18  C   UNL     1      39.543 -14.617  -2.811  1.00  0.00     0.015 C 
HETATM   19  N   UNL     1      39.375 -14.311   2.179  1.00  0.00    -0.217 NA
ENDROOT
BRANCH   1  20
HETATM   20  N   UNL     1      40.335 -15.831   3.622  1.00  0.00    -0.171 NA
HETATM   21  H   UNL     1      39.460 -16.015   4.123  1.00  0.00     0.156 HD
BRANCH  20  22
HETATM   22  N   UNL     1      41.297 -15.214   4.451  1.00  0.00    -0.284 N 
HETATM   23  C   UNL     1      42.085 -16.069   5.200  1.00  0.00     0.231 C 
HETATM   24  O   UNL     1      42.082 -17.287   5.032  1.00  0.00    -0.272 OA
HETATM   25  H   UNL     1      41.009 -14.303   4.809  1.00  0.00     0.184 HD
BRANCH  23  26
HETATM   26  C   UNL     1      42.917 -15.351   6.240  1.00  0.00     0.100 C 
HETATM   27  C   UNL     1      44.180 -16.118   6.591  1.00  0.00     0.014 C 
ENDBRANCH  23  26
ENDBRANCH  20  22
ENDBRANCH   1  20
BRANCH   2  28
HETATM   28  C   UNL     1      41.977 -16.807   1.513  1.00  0.00     0.045 A 
HETATM   29  C   UNL     1      43.322 -16.414   1.625  1.00  0.00     0.030 A 
HETATM   30  C   UNL     1      44.328 -17.352   1.865  1.00  0.00     0.002 A 
HETATM   31  C   UNL     1      44.009 -18.701   1.985  1.00  0.00     0.000 A 
HETATM   32  C   UNL     1      42.684 -19.112   1.859  1.00  0.00     0.002 A 
HETATM   33  C   UNL     1      41.677 -18.173   1.620  1.00  0.00     0.030 A 
ENDBRANCH   2  28
TORSDOF 4
ENDMDL
MODEL 8
REMARK VINA RESULT:      -8.3      2.691      3.844
REMARK  4 active torsions:
REMARK  status: ('A' for Active; 'I' for Inactive)
REMARK    1  A    between atoms: C_2  and  C_3 
REMARK       I    between atoms: C_3  and  N_4 
REMARK    2  A    between atoms: N_4  and  N_5 
REMARK    3  A    between atoms: N_5  and  C_6 
REMARK    4  A    between atoms: N_7  and  C_8 
ROOT
HETATM    1  C   UNL     1      40.424 -14.566   4.703  1.00  0.00     0.208 A 
HETATM    2  N   UNL     1      40.491 -14.744   3.322  1.00  0.00    -0.251 N 
HETATM    3  C   UNL     1      41.477 -15.557   2.765  1.00  0.00     0.264 A 
HETATM    4  O   UNL     1      41.618 -15.724   1.554  1.00  0.00    -0.267 OA
HETATM    5  C   UNL     1      42.356 -16.308   3.713  1.00  0.00     0.049 A 
HETATM    6  C   UNL     1      42.108 -16.111   5.023  1.00  0.00     0.083 A 
HETATM    7  C   UNL     1      42.863 -16.908   6.029  1.00  0.00    -0.000 A 
HETATM    8  C   UNL     1      44.059 -17.545   5.666  1.00  0.00    -0.044 A 
HETATM    9  C   UNL     1      44.789 -18.282   6.612  1.00  0.00     0.008 A 
HETATM   10  C   UNL     1      44.317 -18.407   7.917  1.00  0.00     0.001 A 
HETATM   11  C   UNL     1      43.126 -17.789   8.286  1.00  0.00     0.001 A 
HETATM   12  C   UNL     1      42.407 -17.043   7.349  1.00  0.00     0.014 A 
HETATM   13  C   UNL     1      44.573 -17.375   4.265  1.00  0.00     0.054 C 
HETATM   14  C   UNL     1      43.428 -17.301   3.218  1.00  0.00    -0.002 C 
HETATM   15  C   UNL     1      42.805 -18.703   3.000  1.00  0.00     0.015 C 
HETATM   16  C   UNL     1      42.383 -18.726   1.541  1.00  0.00     0.001 C 
HETATM   17  C   UNL     1      43.484 -17.963   0.822  1.00  0.00     0.001 C 
HETATM   18  C   UNL     1      44.090 -16.997   1.847  1.00  0.00     0.015 C 
HETATM   19  N   UNL     1      41.195 -15.226   5.521  1.00  0.00    -0.217 NA
ENDROOT
BRANCH   1  20
HETATM   20  N   UNL     1      39.554 -13.630   5.248  1.00  0.00    -0.171 NA
HETATM   21  H   UNL     1      39.160 -12.941   4.598  1.00  0.00     0.156 HD
BRANCH  20  22
HETATM   22  N   UNL     1      39.986 -13.031   6.451  1.00  0.00    -0.284 N 
HETATM   23  C   UNL     1      39.631 -11.706   6.627  1.00  0.00     0.231 C 
HETATM   24  O   UNL     1      38.845 -11.128   5.880  1.00  0.00    -0.272 OA
HETATM   25  H   UNL     1      40.873 -13.397   6.800  1.00  0.00     0.184 HD
BRANCH  23  26
HETATM   26  C   UNL     1      40.325 -11.058   7.806  1.00  0.00     0.100 C 
HETATM   27  C   UNL     1      39.488 -11.131   9.071  1.00  0.00     0.014 C 
ENDBRANCH  23  26
ENDBRANCH  20  22
ENDBRANCH   1  20
BRANCH   2  28
HETATM   28  C   UNL     1      39.529 -14.125   2.446  1.00  0.00     0.045 A 
HETATM   29  C   UNL     1      38.543 -14.895   1.805  1.00  0.00     0.030 A 
HETATM   30  C   UNL     1      37.596 -14.298   0.969  1.00  0.00     0.002 A 
HETATM   31  C   UNL     1      37.624 -12.924   0.752  1.00  0.00     0.000 A 
HETATM   32  C   UNL     1      38.605 -12.148   1.364  1.00  0.00     0.002 A 
HETATM   33  C   UNL     1      39.553 -12.745   2.201  1.00  0.00     0.030 A 
ENDBRANCH   2  28
TORSDOF 4
ENDMDL
MODEL 9
REMARK VINA RESULT:      -8.0      2.359      3.536
REMARK  4 active torsions:
REMARK  status: ('A' for Active; 'I' for Inactive)
REMARK    1  A    between atoms: C_2  and  C_3 
REMARK       I    between atoms: C_3  and  N_4 
REMARK    2  A    between atoms: N_4  and  N_5 
REMARK    3  A    between atoms: N_5  and  C_6 
REMARK    4  A    between atoms: N_7  and  C_8 
ROOT
HETATM    1  C   UNL     1      41.762 -13.087   5.487  1.00  0.00     0.208 A 
HETATM    2  N   UNL     1      41.257 -13.032   4.190  1.00  0.00    -0.251 N 
HETATM    3  C   UNL     1      41.503 -14.072   3.294  1.00  0.00     0.264 A 
HETATM    4  O   UNL     1      41.122 -14.068   2.124  1.00  0.00    -0.267 OA
HETATM    5  C   UNL     1      42.214 -15.274   3.827  1.00  0.00     0.049 A 
HETATM    6  C   UNL     1      42.556 -15.225   5.130  1.00  0.00     0.083 A 
HETATM    7  C   UNL     1      43.165 -16.426   5.764  1.00  0.00    -0.000 A 
HETATM    8  C   UNL     1      43.732 -17.431   4.966  1.00  0.00    -0.044 A 
HETATM    9  C   UNL     1      44.326 -18.557   5.554  1.00  0.00     0.008 A 
HETATM   10  C   UNL     1      44.337 -18.700   6.940  1.00  0.00     0.001 A 
HETATM   11  C   UNL     1      43.767 -17.716   7.742  1.00  0.00     0.001 A 
HETATM   12  C   UNL     1      43.188 -16.586   7.158  1.00  0.00     0.014 A 
HETATM   13  C   UNL     1      43.742 -17.249   3.475  1.00  0.00     0.054 C 
HETATM   14  C   UNL     1      42.472 -16.522   2.956  1.00  0.00    -0.002 C 
HETATM   15  C   UNL     1      41.250 -17.473   3.001  1.00  0.00     0.015 C 
HETATM   16  C   UNL     1      40.385 -17.062   1.821  1.00  0.00     0.001 C 
HETATM   17  C   UNL     1      41.385 -16.716   0.729  1.00  0.00     0.001 C 
HETATM   18  C   UNL     1      42.676 -16.288   1.434  1.00  0.00     0.015 C 
HETATM   19  N   UNL     1      42.381 -14.141   5.942  1.00  0.00    -0.217 NA
ENDROOT
BRANCH   1  20
HETATM   20  N   UNL     1      41.662 -11.984   6.326  1.00  0.00    -0.171 NA
HETATM   21  H   UNL     1      42.544 -11.604   6.687  1.00  0.00     0.156 HD
BRANCH  20  22
HETATM   22  N   UNL     1      40.677 -12.076   7.333  1.00  0.00    -0.284 N 
HETATM   23  C   UNL     1      39.919 -10.939   7.542  1.00  0.00     0.231 C 
HETATM   24  O   UNL     1      39.967  -9.967   6.791  1.00  0.00    -0.272 OA
HETATM   25  H   UNL     1      40.931 -12.698   8.102  1.00  0.00     0.184 HD
BRANCH  23  26
HETATM   26  C   UNL     1      39.060 -11.019   8.785  1.00  0.00     0.100 C 
HETATM   27  C   UNL     1      38.720  -9.643   9.333  1.00  0.00     0.014 C 
ENDBRANCH  23  26
ENDBRANCH  20  22
ENDBRANCH   1  20
BRANCH   2  28
HETATM   28  C   UNL     1      40.442 -11.925   3.756  1.00  0.00     0.045 A 
HETATM   29  C   UNL     1      41.020 -10.818   3.112  1.00  0.00     0.030 A 
HETATM   30  C   UNL     1      40.234  -9.751   2.672  1.00  0.00     0.002 A 
HETATM   31  C   UNL     1      38.858  -9.767   2.879  1.00  0.00     0.000 A 
HETATM   32  C   UNL     1      38.270 -10.847   3.532  1.00  0.00     0.002 A 
HETATM   33  C   UNL     1      39.057 -11.915   3.971  1.00  0.00     0.030 A 
ENDBRANCH   2  28
TORSDOF 4
ENDMDL
MODEL 10
REMARK VINA RESULT:      -7.5      2.377      5.569
REMARK  4 active torsions:
REMARK  status: ('A' for Active; 'I' for Inactive)
REMARK    1  A    between atoms: C_2  and  C_3 
REMARK       I    between atoms: C_3  and  N_4 
REMARK    2  A    between atoms: N_4  and  N_5 
REMARK    3  A    between atoms: N_5  and  C_6 
REMARK    4  A    between atoms: N_7  and  C_8 
ROOT
HETATM    1  C   UNL     1      41.175 -14.323   2.940  1.00  0.00     0.208 A 
HETATM    2  N   UNL     1      41.211 -13.977   4.290  1.00  0.00    -0.251 N 
HETATM    3  C   UNL     1      41.666 -14.891   5.239  1.00  0.00     0.264 A 
HETATM    4  O   UNL     1      41.685 -14.666   6.449  1.00  0.00    -0.267 OA
HETATM    5  C   UNL     1      42.216 -16.184   4.729  1.00  0.00     0.049 A 
HETATM    6  C   UNL     1      42.206 -16.338   3.390  1.00  0.00     0.083 A 
HETATM    7  C   UNL     1      42.839 -17.548   2.796  1.00  0.00    -0.000 A 
HETATM    8  C   UNL     1      43.084 -18.676   3.594  1.00  0.00    -0.044 A 
HETATM    9  C   UNL     1      43.662 -19.828   3.040  1.00  0.00     0.008 A 
HETATM   10  C   UNL     1      44.022 -19.853   1.694  1.00  0.00     0.001 A 
HETATM   11  C   UNL     1      43.796 -18.736   0.895  1.00  0.00     0.001 A 
HETATM   12  C   UNL     1      43.206 -17.593   1.442  1.00  0.00     0.014 A 
HETATM   13  C   UNL     1      42.661 -18.648   5.035  1.00  0.00     0.054 C 
HETATM   14  C   UNL     1      42.824 -17.241   5.674  1.00  0.00    -0.002 C 
HETATM   15  C   UNL     1      44.322 -16.937   5.932  1.00  0.00     0.015 C 
HETATM   16  C   UNL     1      44.340 -16.080   7.187  1.00  0.00     0.001 C 
HETATM   17  C   UNL     1      43.242 -16.670   8.057  1.00  0.00     0.001 C 
HETATM   18  C   UNL     1      42.234 -17.327   7.108  1.00  0.00     0.015 C 
HETATM   19  N   UNL     1      41.657 -15.454   2.506  1.00  0.00    -0.217 NA
ENDROOT
BRANCH   1  20
HETATM   20  N   UNL     1      40.568 -13.481   2.017  1.00  0.00    -0.171 NA
HETATM   21  H   UNL     1      40.340 -12.536   2.342  1.00  0.00     0.156 HD
BRANCH  20  22
HETATM   22  N   UNL     1      39.509 -14.054   1.280  1.00  0.00    -0.284 N 
HETATM   23  C   UNL     1      39.264 -13.494   0.039  1.00  0.00     0.231 C 
HETATM   24  O   UNL     1      40.020 -12.672  -0.474  1.00  0.00    -0.272 OA
HETATM   25  H   UNL     1      38.752 -14.418   1.860  1.00  0.00     0.184 HD
BRANCH  23  26
HETATM   26  C   UNL     1      37.976 -13.981  -0.588  1.00  0.00     0.100 C 
HETATM   27  C   UNL     1      38.048 -13.990  -2.105  1.00  0.00     0.014 C 
ENDBRANCH  23  26
ENDBRANCH  20  22
ENDBRANCH   1  20
BRANCH   2  28
HETATM   28  C   UNL     1      40.816 -12.663   4.730  1.00  0.00     0.045 A 
HETATM   29  C   UNL     1      41.746 -11.610   4.770  1.00  0.00     0.030 A 
HETATM   30  C   UNL     1      41.366 -10.329   5.178  1.00  0.00     0.002 A 
HETATM   31  C   UNL     1      40.052 -10.082   5.563  1.00  0.00     0.000 A 
HETATM   32  C   UNL     1      39.120 -11.117   5.548  1.00  0.00     0.002 A 
HETATM   33  C   UNL     1      39.501 -12.398   5.139  1.00  0.00     0.030 A 
ENDBRANCH   2  28
TORSDOF 4
ENDMDL
