MODEL 1
REMARK VINA RESULT:      -7.4      0.000      0.000
REMARK  2 active torsions:
REMARK  status: ('A' for Active; 'I' for Inactive)
REMARK    1  A    between atoms: C_3  and  N_4 
REMARK       I    between atoms: N_4  and  C_5 
REMARK       I    between atoms: C_5  and  N_6 
REMARK    2  A    between atoms: N_6  and  C_7 
ROOT
HETATM    1  N   UNL     1      44.201 -18.906   2.448  1.00  0.00    -0.307 N 
HETATM    2  C   UNL     1      43.116 -18.074   2.590  1.00  0.00     0.321 C 
HETATM    3  N   UNL     1      43.229 -16.990   1.737  1.00  0.00    -0.338 N 
HETATM    4  O   UNL     1      42.182 -18.186   3.373  1.00  0.00    -0.247 OA
HETATM    5  H   UNL     1      45.041 -18.413   2.176  1.00  0.00     0.170 HD
HETATM    6  H   UNL     1      43.763 -17.164   0.895  1.00  0.00     0.164 HD
ENDROOT
BRANCH   3   7
HETATM    7  C   UNL     1      42.253 -15.900   1.708  1.00  0.00     0.090 C 
HETATM    8  C   UNL     1      42.779 -14.646   2.427  1.00  0.00     0.058 C 
HETATM    9  C   UNL     1      42.005 -13.360   2.132  1.00  0.00     0.190 C 
HETATM   10  N   UNL     1      41.882 -13.232   0.634  1.00  0.00    -0.066 N 
HETATM   11  C   UNL     1      40.622 -13.275   2.789  1.00  0.00     0.033 C 
HETATM   12  H   UNL     1      42.830 -13.399   0.253  1.00  0.00     0.280 HD
HETATM   13  C   UNL     1      41.540 -11.847   0.151  1.00  0.00     0.270 C 
HETATM   14  C   UNL     1      41.010 -14.325   0.066  1.00  0.00     0.190 C 
HETATM   15  C   UNL     1      41.734 -15.655   0.280  1.00  0.00     0.058 C 
HETATM   16  C   UNL     1      39.606 -14.256   0.676  1.00  0.00     0.033 C 
HETATM   17  C   UNL     1      39.571 -14.208   2.199  1.00  0.00     0.004 C 
ENDBRANCH   3   7
BRANCH   1  18
HETATM   18  C   UNL     1      44.418 -20.142   3.104  1.00  0.00     0.059 A 
HETATM   19  C   UNL     1      44.736 -20.322   4.457  1.00  0.00    -0.032 A 
HETATM   20  C   UNL     1      44.836 -19.219   5.470  1.00  0.00     0.050 C 
HETATM   21  C   UNL     1      44.947 -21.635   4.921  1.00  0.00     0.028 A 
HETATM   22  C   UNL     1      44.779 -22.705   4.057  1.00  0.00     0.117 A 
HETATM   23  N   UNL     1      44.416 -22.566   2.769  1.00  0.00    -0.271 NA
HETATM   24  C   UNL     1      44.242 -21.299   2.332  1.00  0.00     0.146 A 
ENDBRANCH   1  18
TORSDOF 2
ENDMDL
MODEL 2
REMARK VINA RESULT:      -7.2      2.353      3.538
REMARK  2 active torsions:
REMARK  status: ('A' for Active; 'I' for Inactive)
REMARK    1  A    between atoms: C_3  and  N_4 
REMARK       I    between atoms: N_4  and  C_5 
REMARK       I    between atoms: C_5  and  N_6 
REMARK    2  A    between atoms: N_6  and  C_7 
ROOT
HETATM    1  N   UNL     1      42.062 -18.170   1.625  1.00  0.00    -0.307 N 
HETATM    2  C   UNL     1      42.235 -16.949   1.017  1.00  0.00     0.321 C 
HETATM    3  N   UNL     1      41.203 -16.706   0.128  1.00  0.00    -0.338 N 
HETATM    4  O   UNL     1      43.168 -16.169   1.153  1.00  0.00    -0.247 OA
HETATM    5  H   UNL     1      41.575 -18.835   1.039  1.00  0.00     0.170 HD
HETATM    6  H   UNL     1      40.326 -17.159   0.359  1.00  0.00     0.164 HD
ENDROOT
BRANCH   3   7
HETATM    7  C   UNL     1      41.148 -15.511  -0.714  1.00  0.00     0.090 C 
HETATM    8  C   UNL     1      40.906 -15.867  -2.191  1.00  0.00     0.058 C 
HETATM    9  C   UNL     1      40.467 -14.697  -3.074  1.00  0.00     0.190 C 
HETATM   10  N   UNL     1      39.312 -14.012  -2.386  1.00  0.00    -0.066 N 
HETATM   11  C   UNL     1      41.572 -13.684  -3.397  1.00  0.00     0.033 C 
HETATM   12  H   UNL     1      38.657 -14.763  -2.109  1.00  0.00     0.280 HD
HETATM   13  C   UNL     1      38.487 -13.128  -3.283  1.00  0.00     0.270 C 
HETATM   14  C   UNL     1      39.758 -13.357  -1.102  1.00  0.00     0.190 C 
HETATM   15  C   UNL     1      40.177 -14.466  -0.136  1.00  0.00     0.058 C 
HETATM   16  C   UNL     1      40.843 -12.313  -1.385  1.00  0.00     0.033 C 
HETATM   17  C   UNL     1      42.011 -12.815  -2.224  1.00  0.00     0.004 C 
ENDBRANCH   3   7
BRANCH   1  18
HETATM   18  C   UNL     1      42.876 -18.742   2.633  1.00  0.00     0.059 A 
HETATM   19  C   UNL     1      42.777 -18.514   4.012  1.00  0.00    -0.032 A 
HETATM   20  C   UNL     1      41.730 -17.662   4.669  1.00  0.00     0.050 C 
HETATM   21  C   UNL     1      43.702 -19.154   4.859  1.00  0.00     0.028 A 
HETATM   22  C   UNL     1      44.636 -20.026   4.324  1.00  0.00     0.117 A 
HETATM   23  N   UNL     1      44.716 -20.310   3.012  1.00  0.00    -0.271 NA
HETATM   24  C   UNL     1      43.837 -19.670   2.208  1.00  0.00     0.146 A 
ENDBRANCH   1  18
TORSDOF 2
ENDMDL
MODEL 3
REMARK VINA RESULT:      -7.2      2.520      3.351
REMARK  2 active torsions:
REMARK  status: ('A' for Active; 'I' for Inactive)
REMARK    1  A    between atoms: C_3  and  N_4 
REMARK       I    between atoms: N_4  and  C_5 
REMARK       I    between atoms: C_5  and  N_6 
REMARK    2  A    between atoms: N_6  and  C_7 
ROOT
HETATM    1  N   UNL     1      44.277 -18.568   4.475  1.00  0.00    -0.307 N 
HETATM    2  C   UNL     1      43.180 -17.762   4.288  1.00  0.00     0.321 C 
HETATM    3  N   UNL     1      43.475 -16.459   4.652  1.00  0.00    -0.338 N 
HETATM    4  O   UNL     1      42.062 -18.090   3.913  1.00  0.00    -0.247 OA
HETATM    5  H   UNL     1      44.873 -18.252   5.228  1.00  0.00     0.170 HD
HETATM    6  H   UNL     1      44.450 -16.201   4.558  1.00  0.00     0.164 HD
ENDROOT
BRANCH   3   7
HETATM    7  C   UNL     1      42.484 -15.384   4.621  1.00  0.00     0.090 C 
HETATM    8  C   UNL     1      41.610 -15.379   5.888  1.00  0.00     0.058 C 
HETATM    9  C   UNL     1      40.813 -14.094   6.118  1.00  0.00     0.190 C 
HETATM   10  N   UNL     1      41.769 -12.934   5.999  1.00  0.00    -0.066 N 
HETATM   11  C   UNL     1      39.619 -13.899   5.176  1.00  0.00     0.033 C 
HETATM   12  H   UNL     1      42.591 -13.179   6.580  1.00  0.00     0.280 HD
HETATM   13  C   UNL     1      41.271 -11.649   6.606  1.00  0.00     0.270 C 
HETATM   14  C   UNL     1      42.285 -12.799   4.588  1.00  0.00     0.190 C 
HETATM   15  C   UNL     1      43.138 -14.032   4.285  1.00  0.00     0.058 C 
HETATM   16  C   UNL     1      41.123 -12.571   3.616  1.00  0.00     0.033 C 
HETATM   17  C   UNL     1      39.985 -13.578   3.731  1.00  0.00     0.004 C 
ENDBRANCH   3   7
BRANCH   1  18
HETATM   18  C   UNL     1      44.384 -19.946   4.164  1.00  0.00     0.059 A 
HETATM   19  C   UNL     1      44.231 -20.527   2.899  1.00  0.00    -0.032 A 
HETATM   20  C   UNL     1      43.991 -19.767   1.627  1.00  0.00     0.050 C 
HETATM   21  C   UNL     1      44.344 -21.927   2.793  1.00  0.00     0.028 A 
HETATM   22  C   UNL     1      44.656 -22.679   3.914  1.00  0.00     0.117 A 
HETATM   23  N   UNL     1      44.867 -22.142   5.129  1.00  0.00    -0.271 NA
HETATM   24  C   UNL     1      44.731 -20.800   5.220  1.00  0.00     0.146 A 
ENDBRANCH   1  18
TORSDOF 2
ENDMDL
MODEL 4
REMARK VINA RESULT:      -7.0      2.523      3.721
REMARK  2 active torsions:
REMARK  status: ('A' for Active; 'I' for Inactive)
REMARK    1  A    between atoms: C_3  and  N_4 
REMARK       I    between atoms: N_4  and  C_5 
REMARK       I    between atoms: C_5  and  N_6 
REMARK    2  A    between atoms: N_6  and  C_7 
ROOT
HETATM    1  N   UNL     1      41.545 -17.435   4.217  1.00  0.00    -0.307 N 
HETATM    2  C   UNL     1      41.763 -16.374   3.371  1.00  0.00     0.321 C 
HETATM    3  N   UNL     1      40.718 -16.257   2.470  1.00  0.00    -0.338 N 
HETATM    4  O   UNL     1      42.738 -15.636   3.328  1.00  0.00    -0.247 OA
HETATM    5  H   UNL     1      41.008 -18.176   3.788  1.00  0.00     0.170 HD
HETATM    6  H   UNL     1      39.827 -16.604   2.805  1.00  0.00     0.164 HD
ENDROOT
BRANCH   3   7
HETATM    7  C   UNL     1      40.699 -15.256   1.404  1.00  0.00     0.090 C 
HETATM    8  C   UNL     1      41.286 -15.809   0.094  1.00  0.00     0.058 C 
HETATM    9  C   UNL     1      40.974 -14.982  -1.154  1.00  0.00     0.190 C 
HETATM   10  N   UNL     1      39.486 -14.732  -1.178  1.00  0.00    -0.066 N 
HETATM   11  C   UNL     1      41.738 -13.657  -1.257  1.00  0.00     0.033 C 
HETATM   12  H   UNL     1      39.038 -15.649  -1.003  1.00  0.00     0.280 HD
HETATM   13  C   UNL     1      38.944 -14.317  -2.520  1.00  0.00     0.270 C 
HETATM   14  C   UNL     1      39.068 -13.843  -0.032  1.00  0.00     0.190 C 
HETATM   15  C   UNL     1      39.307 -14.615   1.266  1.00  0.00     0.058 C 
HETATM   16  C   UNL     1      39.788 -12.493  -0.116  1.00  0.00     0.033 C 
HETATM   17  C   UNL     1      41.302 -12.584  -0.267  1.00  0.00     0.004 C 
ENDBRANCH   3   7
BRANCH   1  18
HETATM   18  C   UNL     1      42.358 -17.837   5.305  1.00  0.00     0.059 A 
HETATM   19  C   UNL     1      43.452 -18.710   5.249  1.00  0.00    -0.032 A 
HETATM   20  C   UNL     1      43.997 -19.324   3.993  1.00  0.00     0.050 C 
HETATM   21  C   UNL     1      44.121 -19.015   6.450  1.00  0.00     0.028 A 
HETATM   22  C   UNL     1      43.725 -18.409   7.631  1.00  0.00     0.117 A 
HETATM   23  N   UNL     1      42.717 -17.522   7.705  1.00  0.00    -0.271 NA
HETATM   24  C   UNL     1      42.069 -17.257   6.549  1.00  0.00     0.146 A 
ENDBRANCH   1  18
TORSDOF 2
ENDMDL
MODEL 5
REMARK VINA RESULT:      -7.0      0.927      1.979
REMARK  2 active torsions:
REMARK  status: ('A' for Active; 'I' for Inactive)
REMARK    1  A    between atoms: C_3  and  N_4 
REMARK       I    between atoms: N_4  and  C_5 
REMARK       I    between atoms: C_5  and  N_6 
REMARK    2  A    between atoms: N_6  and  C_7 
ROOT
HETATM    1  N   UNL     1      44.519 -19.140   2.314  1.00  0.00    -0.307 N 
HETATM    2  C   UNL     1      43.495 -18.223   2.314  1.00  0.00     0.321 C 
HETATM    3  N   UNL     1      43.743 -17.228   1.384  1.00  0.00    -0.338 N 
HETATM    4  O   UNL     1      42.509 -18.198   3.039  1.00  0.00    -0.247 OA
HETATM    5  H   UNL     1      45.409 -18.734   2.059  1.00  0.00     0.170 HD
HETATM    6  H   UNL     1      44.312 -17.514   0.596  1.00  0.00     0.164 HD
ENDROOT
BRANCH   3   7
HETATM    7  C   UNL     1      42.858 -16.078   1.200  1.00  0.00     0.090 C 
HETATM    8  C   UNL     1      41.435 -16.511   0.807  1.00  0.00     0.058 C 
HETATM    9  C   UNL     1      40.365 -15.428   0.956  1.00  0.00     0.190 C 
HETATM   10  N   UNL     1      40.494 -14.844   2.341  1.00  0.00    -0.066 N 
HETATM   11  C   UNL     1      40.423 -14.316  -0.098  1.00  0.00     0.033 C 
HETATM   12  H   UNL     1      40.549 -15.651   2.988  1.00  0.00     0.280 HD
HETATM   13  C   UNL     1      39.282 -14.087   2.815  1.00  0.00     0.270 C 
HETATM   14  C   UNL     1      41.797 -14.099   2.496  1.00  0.00     0.190 C 
HETATM   15  C   UNL     1      42.931 -15.121   2.403  1.00  0.00     0.058 C 
HETATM   16  C   UNL     1      41.881 -12.957   1.478  1.00  0.00     0.033 C 
HETATM   17  C   UNL     1      41.605 -13.363   0.036  1.00  0.00     0.004 C 
ENDBRANCH   3   7
BRANCH   1  18
HETATM   18  C   UNL     1      44.599 -20.326   3.084  1.00  0.00     0.059 A 
HETATM   19  C   UNL     1      44.811 -20.409   4.466  1.00  0.00    -0.032 A 
HETATM   20  C   UNL     1      44.922 -19.232   5.390  1.00  0.00     0.050 C 
HETATM   21  C   UNL     1      44.892 -21.688   5.050  1.00  0.00     0.028 A 
HETATM   22  C   UNL     1      44.706 -22.815   4.266  1.00  0.00     0.117 A 
HETATM   23  N   UNL     1      44.443 -22.765   2.948  1.00  0.00    -0.271 NA
HETATM   24  C   UNL     1      44.392 -21.531   2.397  1.00  0.00     0.146 A 
ENDBRANCH   1  18
TORSDOF 2
ENDMDL
MODEL 6
REMARK VINA RESULT:      -7.0      5.645      7.817
REMARK  2 active torsions:
REMARK  status: ('A' for Active; 'I' for Inactive)
REMARK    1  A    between atoms: C_3  and  N_4 
REMARK       I    between atoms: N_4  and  C_5 
REMARK       I    between atoms: C_5  and  N_6 
REMARK    2  A    between atoms: N_6  and  C_7 
ROOT
HETATM    1  N   UNL     1      43.638 -12.513   7.428  1.00  0.00    -0.307 N 
HETATM    2  C   UNL     1      43.785 -13.779   6.913  1.00  0.00     0.321 C 
HETATM    3  N   UNL     1      43.181 -13.863   5.669  1.00  0.00    -0.338 N 
HETATM    4  O   UNL     1      44.309 -14.750   7.442  1.00  0.00    -0.247 OA
HETATM    5  H   UNL     1      42.792 -12.057   7.115  1.00  0.00     0.170 HD
HETATM    6  H   UNL     1      43.141 -12.990   5.156  1.00  0.00     0.164 HD
ENDROOT
BRANCH   3   7
HETATM    7  C   UNL     1      43.119 -15.106   4.901  1.00  0.00     0.090 C 
HETATM    8  C   UNL     1      41.840 -15.902   5.210  1.00  0.00     0.058 C 
HETATM    9  C   UNL     1      41.506 -17.005   4.204  1.00  0.00     0.190 C 
HETATM   10  N   UNL     1      41.562 -16.399   2.823  1.00  0.00    -0.066 N 
HETATM   11  C   UNL     1      42.411 -18.241   4.279  1.00  0.00     0.033 C 
HETATM   12  H   UNL     1      41.015 -15.521   2.874  1.00  0.00     0.280 HD
HETATM   13  C   UNL     1      40.858 -17.200   1.760  1.00  0.00     0.270 C 
HETATM   14  C   UNL     1      42.970 -15.989   2.468  1.00  0.00     0.190 C 
HETATM   15  C   UNL     1      43.373 -14.849   3.405  1.00  0.00     0.058 C 
HETATM   16  C   UNL     1      43.902 -17.204   2.502  1.00  0.00     0.033 C 
HETATM   17  C   UNL     1      43.836 -18.027   3.783  1.00  0.00     0.004 C 
ENDBRANCH   3   7
BRANCH   1  18
HETATM   18  C   UNL     1      44.167 -12.025   8.648  1.00  0.00     0.059 A 
HETATM   19  C   UNL     1      45.523 -11.869   8.964  1.00  0.00    -0.032 A 
HETATM   20  C   UNL     1      46.661 -12.136   8.023  1.00  0.00     0.050 C 
HETATM   21  C   UNL     1      45.855 -11.395  10.248  1.00  0.00     0.028 A 
HETATM   22  C   UNL     1      44.849 -11.043  11.133  1.00  0.00     0.117 A 
HETATM   23  N   UNL     1      43.540 -11.125  10.836  1.00  0.00    -0.271 NA
HETATM   24  C   UNL     1      43.236 -11.605   9.609  1.00  0.00     0.146 A 
ENDBRANCH   1  18
TORSDOF 2
ENDMDL
MODEL 7
REMARK VINA RESULT:      -7.0      2.561      3.613
REMARK  2 active torsions:
REMARK  status: ('A' for Active; 'I' for Inactive)
REMARK    1  A    between atoms: C_3  and  N_4 
REMARK       I    between atoms: N_4  and  C_5 
REMARK       I    between atoms: C_5  and  N_6 
REMARK    2  A    between atoms: N_6  and  C_7 
ROOT
HETATM    1  N   UNL     1      43.149 -16.838   0.976  1.00  0.00    -0.307 N 
HETATM    2  C   UNL     1      41.911 -16.407   0.562  1.00  0.00     0.321 C 
HETATM    3  N   UNL     1      42.031 -15.632  -0.579  1.00  0.00    -0.338 N 
HETATM    4  O   UNL     1      40.830 -16.597   1.103  1.00  0.00    -0.247 OA
HETATM    5  H   UNL     1      43.889 -16.193   0.737  1.00  0.00     0.170 HD
HETATM    6  H   UNL     1      42.832 -15.849  -1.160  1.00  0.00     0.164 HD
ENDROOT
BRANCH   3   7
HETATM    7  C   UNL     1      40.887 -14.980  -1.217  1.00  0.00     0.090 C 
HETATM    8  C   UNL     1      40.715 -13.531  -0.733  1.00  0.00     0.058 C 
HETATM    9  C   UNL     1      39.799 -12.664  -1.599  1.00  0.00     0.190 C 
HETATM   10  N   UNL     1      40.251 -12.808  -3.031  1.00  0.00    -0.066 N 
HETATM   11  C   UNL     1      38.304 -12.986  -1.478  1.00  0.00     0.033 C 
HETATM   12  H   UNL     1      41.278 -12.678  -3.022  1.00  0.00     0.280 HD
HETATM   13  C   UNL     1      39.760 -11.724  -3.953  1.00  0.00     0.270 C 
HETATM   14  C   UNL     1      40.017 -14.211  -3.535  1.00  0.00     0.190 C 
HETATM   15  C   UNL     1      40.933 -15.147  -2.747  1.00  0.00     0.058 C 
HETATM   16  C   UNL     1      38.527 -14.561  -3.460  1.00  0.00     0.033 C 
HETATM   17  C   UNL     1      37.878 -14.308  -2.104  1.00  0.00     0.004 C 
ENDBRANCH   3   7
BRANCH   1  18
HETATM   18  C   UNL     1      43.430 -17.697   2.067  1.00  0.00     0.059 A 
HETATM   19  C   UNL     1      43.471 -17.337   3.420  1.00  0.00    -0.032 A 
HETATM   20  C   UNL     1      43.152 -15.972   3.956  1.00  0.00     0.050 C 
HETATM   21  C   UNL     1      43.802 -18.330   4.361  1.00  0.00     0.028 A 
HETATM   22  C   UNL     1      44.018 -19.633   3.940  1.00  0.00     0.117 A 
HETATM   23  N   UNL     1      43.927 -20.019   2.656  1.00  0.00    -0.271 NA
HETATM   24  C   UNL     1      43.633 -19.050   1.761  1.00  0.00     0.146 A 
ENDBRANCH   1  18
TORSDOF 2
ENDMDL
MODEL 8
REMARK VINA RESULT:      -6.6      2.117      3.104
REMARK  2 active torsions:
REMARK  status: ('A' for Active; 'I' for Inactive)
REMARK    1  A    between atoms: C_3  and  N_4 
REMARK       I    between atoms: N_4  and  C_5 
REMARK       I    between atoms: C_5  and  N_6 
REMARK    2  A    between atoms: N_6  and  C_7 
ROOT
HETATM    1  N   UNL     1      41.898 -17.511   2.923  1.00  0.00    -0.307 N 
HETATM    2  C   UNL     1      42.042 -16.571   1.930  1.00  0.00     0.321 C 
HETATM    3  N   UNL     1      40.802 -16.110   1.523  1.00  0.00    -0.338 N 
HETATM    4  O   UNL     1      43.078 -16.191   1.400  1.00  0.00    -0.247 OA
HETATM    5  H   UNL     1      41.035 -18.031   2.849  1.00  0.00     0.170 HD
HETATM    6  H   UNL     1      40.079 -16.150   2.232  1.00  0.00     0.164 HD
ENDROOT
BRANCH   3   7
HETATM    7  C   UNL     1      40.633 -15.147   0.435  1.00  0.00     0.090 C 
HETATM    8  C   UNL     1      41.326 -13.810   0.745  1.00  0.00     0.058 C 
HETATM    9  C   UNL     1      41.524 -12.889  -0.460  1.00  0.00     0.190 C 
HETATM   10  N   UNL     1      42.167 -13.702  -1.557  1.00  0.00    -0.066 N 
HETATM   11  C   UNL     1      40.244 -12.218  -0.975  1.00  0.00     0.033 C 
HETATM   12  H   UNL     1      42.959 -14.202  -1.117  1.00  0.00     0.280 HD
HETATM   13  C   UNL     1      42.818 -12.883  -2.640  1.00  0.00     0.270 C 
HETATM   14  C   UNL     1      41.229 -14.771  -2.060  1.00  0.00     0.190 C 
HETATM   15  C   UNL     1      41.009 -15.769  -0.922  1.00  0.00     0.058 C 
HETATM   16  C   UNL     1      39.948 -14.139  -2.613  1.00  0.00     0.033 C 
HETATM   17  C   UNL     1      39.264 -13.153  -1.673  1.00  0.00     0.004 C 
ENDBRANCH   3   7
BRANCH   1  18
HETATM   18  C   UNL     1      42.935 -18.167   3.631  1.00  0.00     0.059 A 
HETATM   19  C   UNL     1      43.599 -19.336   3.238  1.00  0.00    -0.032 A 
HETATM   20  C   UNL     1      43.367 -20.064   1.947  1.00  0.00     0.050 C 
HETATM   21  C   UNL     1      44.586 -19.858   4.096  1.00  0.00     0.028 A 
HETATM   22  C   UNL     1      44.913 -19.182   5.261  1.00  0.00     0.117 A 
HETATM   23  N   UNL     1      44.334 -18.027   5.633  1.00  0.00    -0.271 NA
HETATM   24  C   UNL     1      43.371 -17.551   4.812  1.00  0.00     0.146 A 
ENDBRANCH   1  18
TORSDOF 2
ENDMDL
MODEL 9
REMARK VINA RESULT:      -6.6      2.913      7.347
REMARK  2 active torsions:
REMARK  status: ('A' for Active; 'I' for Inactive)
REMARK    1  A    between atoms: C_3  and  N_4 
REMARK       I    between atoms: N_4  and  C_5 
REMARK       I    between atoms: C_5  and  N_6 
REMARK    2  A    between atoms: N_6  and  C_7 
ROOT
HETATM    1  N   UNL     1      41.713 -15.157  -0.415  1.00  0.00    -0.307 N 
HETATM    2  C   UNL     1      41.327 -15.568   0.839  1.00  0.00     0.321 C 
HETATM    3  N   UNL     1      42.433 -15.695   1.662  1.00  0.00    -0.338 N 
HETATM    4  O   UNL     1      40.200 -15.850   1.223  1.00  0.00    -0.247 OA
HETATM    5  H   UNL     1      42.641 -15.472  -0.663  1.00  0.00     0.170 HD
HETATM    6  H   UNL     1      43.212 -15.093   1.425  1.00  0.00     0.164 HD
ENDROOT
BRANCH   3   7
HETATM    7  C   UNL     1      42.343 -16.177   3.040  1.00  0.00     0.090 C 
HETATM    8  C   UNL     1      42.613 -17.689   3.133  1.00  0.00     0.058 C 
HETATM    9  C   UNL     1      42.907 -18.208   4.542  1.00  0.00     0.190 C 
HETATM   10  N   UNL     1      43.980 -17.330   5.139  1.00  0.00    -0.066 N 
HETATM   11  C   UNL     1      41.690 -18.269   5.474  1.00  0.00     0.033 C 
HETATM   12  H   UNL     1      44.720 -17.254   4.419  1.00  0.00     0.280 HD
HETATM   13  C   UNL     1      44.690 -17.932   6.322  1.00  0.00     0.270 C 
HETATM   14  C   UNL     1      43.471 -15.928   5.362  1.00  0.00     0.190 C 
HETATM   15  C   UNL     1      43.191 -15.312   3.990  1.00  0.00     0.058 C 
HETATM   16  C   UNL     1      42.270 -15.941   6.314  1.00  0.00     0.033 C 
HETATM   17  C   UNL     1      41.161 -16.914   5.931  1.00  0.00     0.004 C 
ENDBRANCH   3   7
BRANCH   1  18
HETATM   18  C   UNL     1      40.867 -14.861  -1.511  1.00  0.00     0.059 A 
HETATM   19  C   UNL     1      40.055 -13.728  -1.654  1.00  0.00    -0.032 A 
HETATM   20  C   UNL     1      39.997 -12.586  -0.683  1.00  0.00     0.050 C 
HETATM   21  C   UNL     1      39.255 -13.626  -2.808  1.00  0.00     0.028 A 
HETATM   22  C   UNL     1      39.332 -14.603  -3.788  1.00  0.00     0.117 A 
HETATM   23  N   UNL     1      40.146 -15.670  -3.705  1.00  0.00    -0.271 NA
HETATM   24  C   UNL     1      40.889 -15.768  -2.580  1.00  0.00     0.146 A 
ENDBRANCH   1  18
TORSDOF 2
ENDMDL
MODEL 10
REMARK VINA RESULT:      -6.5      3.005      7.158
REMARK  2 active torsions:
REMARK  status: ('A' for Active; 'I' for Inactive)
REMARK    1  A    between atoms: C_3  and  N_4 
REMARK       I    between atoms: N_4  and  C_5 
REMARK       I    between atoms: C_5  and  N_6 
REMARK    2  A    between atoms: N_6  and  C_7 
ROOT
HETATM    1  N   UNL     1      41.861 -15.520  -0.803  1.00  0.00    -0.307 N 
HETATM    2  C   UNL     1      41.660 -15.821   0.523  1.00  0.00     0.321 C 
HETATM    3  N   UNL     1      42.868 -16.094   1.141  1.00  0.00    -0.338 N 
HETATM    4  O   UNL     1      40.595 -15.907   1.120  1.00  0.00    -0.247 OA
HETATM    5  H   UNL     1      42.669 -15.987  -1.193  1.00  0.00     0.170 HD
HETATM    6  H   UNL     1      43.670 -15.632   0.731  1.00  0.00     0.164 HD
ENDROOT
BRANCH   3   7
HETATM    7  C   UNL     1      42.965 -16.507   2.541  1.00  0.00     0.090 C 
HETATM    8  C   UNL     1      42.831 -15.311   3.499  1.00  0.00     0.058 C 
HETATM    9  C   UNL     1      42.548 -15.678   4.956  1.00  0.00     0.190 C 
HETATM   10  N   UNL     1      41.385 -16.640   4.970  1.00  0.00    -0.066 N 
HETATM   11  C   UNL     1      43.741 -16.275   5.713  1.00  0.00     0.033 C 
HETATM   12  H   UNL     1      40.660 -16.221   4.361  1.00  0.00     0.280 HD
HETATM   13  C   UNL     1      40.701 -16.773   6.304  1.00  0.00     0.270 C 
HETATM   14  C   UNL     1      41.759 -17.952   4.325  1.00  0.00     0.190 C 
HETATM   15  C   UNL     1      42.018 -17.683   2.842  1.00  0.00     0.058 C 
HETATM   16  C   UNL     1      42.931 -18.597   5.072  1.00  0.00     0.033 C 
HETATM   17  C   UNL     1      44.133 -17.685   5.288  1.00  0.00     0.004 C 
ENDBRANCH   3   7
BRANCH   1  18
HETATM   18  C   UNL     1      40.879 -15.132  -1.747  1.00  0.00     0.059 A 
HETATM   19  C   UNL     1      40.108 -13.963  -1.712  1.00  0.00    -0.032 A 
HETATM   20  C   UNL     1      40.243 -12.875  -0.688  1.00  0.00     0.050 C 
HETATM   21  C   UNL     1      39.155 -13.766  -2.730  1.00  0.00     0.028 A 
HETATM   22  C   UNL     1      39.044 -14.689  -3.757  1.00  0.00     0.117 A 
HETATM   23  N   UNL     1      39.812 -15.789  -3.849  1.00  0.00    -0.271 NA
HETATM   24  C   UNL     1      40.706 -15.977  -2.852  1.00  0.00     0.146 A 
ENDBRANCH   1  18
TORSDOF 2
ENDMDL
