MODEL 1
REMARK VINA RESULT:      -8.5      0.000      0.000
REMARK  5 active torsions:
REMARK  status: ('A' for Active; 'I' for Inactive)
REMARK    1  A    between atoms: C_3  and  N_4 
REMARK       I    between atoms: N_4  and  C_5 
REMARK    2  A    between atoms: C_5  and  C_6 
REMARK    3  A    between atoms: C_6  and  N_7 
REMARK    4  A    between atoms: C_6  and  C_16 
REMARK       I    between atoms: N_7  and  C_8 
REMARK    5  A    between atoms: C_8  and  C_9 
ROOT
HETATM    1  C   UNL     1      42.894 -16.261   3.468  1.00  0.00     0.210 C 
ENDROOT
BRANCH   1   2
HETATM    2  C   UNL     1      42.749 -17.786   3.786  1.00  0.00     0.249 C 
HETATM    3  N   UNL     1      43.909 -18.518   3.598  1.00  0.00    -0.324 N 
HETATM    4  H   UNL     1      44.728 -17.940   3.410  1.00  0.00     0.169 HD
HETATM    5  O   UNL     1      41.722 -18.198   4.327  1.00  0.00    -0.270 OA
BRANCH   3   6
HETATM    6  C   UNL     1      44.181 -19.843   4.020  1.00  0.00     0.046 A 
HETATM    7  C   UNL     1      44.411 -20.222   5.360  1.00  0.00    -0.035 A 
HETATM    8  C   UNL     1      44.296 -19.302   6.544  1.00  0.00     0.050 C 
HETATM    9  C   UNL     1      44.730 -21.565   5.650  1.00  0.00     0.009 A 
HETATM   10  C   UNL     1      44.758 -22.534   4.653  1.00  0.00     0.001 A 
HETATM   11  C   UNL     1      44.467 -22.179   3.345  1.00  0.00     0.009 A 
HETATM   12  C   UNL     1      44.181 -20.845   3.011  1.00  0.00    -0.035 A 
HETATM   13  C   UNL     1      43.902 -20.536   1.560  1.00  0.00     0.050 C 
ENDBRANCH   3   6
ENDBRANCH   1   2
BRANCH   1  14
HETATM   14  N   UNL     1      43.142 -15.435   4.647  1.00  0.00    -0.338 N 
HETATM   15  C   UNL     1      43.794 -14.228   4.678  1.00  0.00     0.273 C 
HETATM   16  O   UNL     1      44.166 -13.633   3.672  1.00  0.00    -0.266 OA
HETATM   17  H   UNL     1      42.942 -15.827   5.563  1.00  0.00     0.164 HD
BRANCH  15  18
HETATM   18  C   UNL     1      44.016 -13.722   6.041  1.00  0.00     0.145 A 
HETATM   19  N   UNL     1      43.094 -12.973   6.682  1.00  0.00    -0.170 NA
HETATM   20  N   UNL     1      43.650 -12.724   7.881  1.00  0.00    -0.289 N 
HETATM   21  H   UNL     1      43.128 -12.167   8.550  1.00  0.00     0.188 HD
HETATM   22  C   UNL     1      44.884 -13.279   8.035  1.00  0.00     0.112 A 
HETATM   23  C   UNL     1      45.154 -13.936   6.859  1.00  0.00     0.058 A 
ENDBRANCH  15  18
ENDBRANCH   1  14
BRANCH   1  24
HETATM   24  C   UNL     1      41.800 -15.751   2.525  1.00  0.00    -0.026 A 
HETATM   25  C   UNL     1      41.922 -15.789   1.126  1.00  0.00     0.010 A 
HETATM   26  C   UNL     1      40.899 -15.316   0.298  1.00  0.00     0.001 A 
HETATM   27  C   UNL     1      39.721 -14.823   0.851  1.00  0.00     0.000 A 
HETATM   28  C   UNL     1      39.559 -14.813   2.231  1.00  0.00     0.001 A 
HETATM   29  C   UNL     1      40.583 -15.281   3.058  1.00  0.00     0.010 A 
ENDBRANCH   1  24
TORSDOF 5
ENDMDL
MODEL 2
REMARK VINA RESULT:      -8.3      2.112      4.763
REMARK  5 active torsions:
REMARK  status: ('A' for Active; 'I' for Inactive)
REMARK    1  A    between atoms: C_3  and  N_4 
REMARK       I    between atoms: N_4  and  C_5 
REMARK    2  A    between atoms: C_5  and  C_6 
REMARK    3  A    between atoms: C_6  and  N_7 
REMARK    4  A    between atoms: C_6  and  C_16 
REMARK       I    between atoms: N_7  and  C_8 
REMARK    5  A    between atoms: C_8  and  C_9 
ROOT
HETATM    1  C   UNL     1      42.042 -15.975   4.306  1.00  0.00     0.210 C 
ENDROOT
BRANCH   1   2
HETATM    2  C   UNL     1      42.135 -17.535   4.253  1.00  0.00     0.249 C 
HETATM    3  N   UNL     1      43.390 -18.019   3.923  1.00  0.00    -0.324 N 
HETATM    4  H   UNL     1      44.109 -17.296   3.893  1.00  0.00     0.169 HD
HETATM    5  O   UNL     1      41.192 -18.214   4.661  1.00  0.00    -0.270 OA
BRANCH   3   6
HETATM    6  C   UNL     1      43.866 -19.349   4.027  1.00  0.00     0.046 A 
HETATM    7  C   UNL     1      44.253 -19.966   5.237  1.00  0.00    -0.035 A 
HETATM    8  C   UNL     1      44.117 -19.344   6.599  1.00  0.00     0.050 C 
HETATM    9  C   UNL     1      44.767 -21.278   5.205  1.00  0.00     0.009 A 
HETATM   10  C   UNL     1      44.840 -22.000   4.019  1.00  0.00     0.001 A 
HETATM   11  C   UNL     1      44.399 -21.423   2.839  1.00  0.00     0.009 A 
HETATM   12  C   UNL     1      43.914 -20.104   2.823  1.00  0.00    -0.035 A 
HETATM   13  C   UNL     1      43.480 -19.539   1.493  1.00  0.00     0.050 C 
ENDBRANCH   3   6
ENDBRANCH   1   2
BRANCH   1  14
HETATM   14  N   UNL     1      42.043 -15.339   2.991  1.00  0.00    -0.338 N 
HETATM   15  C   UNL     1      40.984 -15.253   2.123  1.00  0.00     0.273 C 
HETATM   16  O   UNL     1      39.847 -15.620   2.403  1.00  0.00    -0.266 OA
HETATM   17  H   UNL     1      42.932 -15.042   2.599  1.00  0.00     0.164 HD
BRANCH  15  18
HETATM   18  C   UNL     1      41.348 -14.687   0.816  1.00  0.00     0.145 A 
HETATM   19  N   UNL     1      41.416 -15.451  -0.296  1.00  0.00    -0.170 NA
HETATM   20  N   UNL     1      41.759 -14.584  -1.267  1.00  0.00    -0.289 N 
HETATM   21  H   UNL     1      41.869 -14.937  -2.212  1.00  0.00     0.188 HD
HETATM   22  C   UNL     1      41.911 -13.304  -0.826  1.00  0.00     0.112 A 
HETATM   23  C   UNL     1      41.651 -13.334   0.522  1.00  0.00     0.058 A 
ENDBRANCH  15  18
ENDBRANCH   1  14
BRANCH   1  24
HETATM   24  C   UNL     1      43.001 -15.364   5.333  1.00  0.00    -0.026 A 
HETATM   25  C   UNL     1      43.756 -14.209   5.076  1.00  0.00     0.010 A 
HETATM   26  C   UNL     1      44.620 -13.680   6.042  1.00  0.00     0.001 A 
HETATM   27  C   UNL     1      44.723 -14.278   7.293  1.00  0.00     0.000 A 
HETATM   28  C   UNL     1      43.954 -15.399   7.586  1.00  0.00     0.001 A 
HETATM   29  C   UNL     1      43.097 -15.930   6.620  1.00  0.00     0.010 A 
ENDBRANCH   1  24
TORSDOF 5
ENDMDL
MODEL 3
REMARK VINA RESULT:      -8.1      2.879      5.492
REMARK  5 active torsions:
REMARK  status: ('A' for Active; 'I' for Inactive)
REMARK    1  A    between atoms: C_3  and  N_4 
REMARK       I    between atoms: N_4  and  C_5 
REMARK    2  A    between atoms: C_5  and  C_6 
REMARK    3  A    between atoms: C_6  and  N_7 
REMARK    4  A    between atoms: C_6  and  C_16 
REMARK       I    between atoms: N_7  and  C_8 
REMARK    5  A    between atoms: C_8  and  C_9 
ROOT
HETATM    1  C   UNL     1      40.738 -15.350   2.909  1.00  0.00     0.210 C 
ENDROOT
BRANCH   1   2
HETATM    2  C   UNL     1      42.019 -16.018   3.509  1.00  0.00     0.249 C 
HETATM    3  N   UNL     1      41.860 -17.352   3.845  1.00  0.00    -0.324 N 
HETATM    4  H   UNL     1      40.974 -17.747   3.530  1.00  0.00     0.169 HD
HETATM    5  O   UNL     1      43.089 -15.410   3.484  1.00  0.00    -0.270 OA
BRANCH   3   6
HETATM    6  C   UNL     1      42.866 -18.294   4.172  1.00  0.00     0.046 A 
HETATM    7  C   UNL     1      43.592 -19.048   3.225  1.00  0.00    -0.035 A 
HETATM    8  C   UNL     1      43.482 -18.887   1.734  1.00  0.00     0.050 C 
HETATM    9  C   UNL     1      44.530 -19.999   3.677  1.00  0.00     0.009 A 
HETATM   10  C   UNL     1      44.801 -20.163   5.030  1.00  0.00     0.001 A 
HETATM   11  C   UNL     1      44.139 -19.378   5.961  1.00  0.00     0.009 A 
HETATM   12  C   UNL     1      43.171 -18.445   5.553  1.00  0.00    -0.035 A 
HETATM   13  C   UNL     1      42.476 -17.649   6.630  1.00  0.00     0.050 C 
ENDBRANCH   3   6
ENDBRANCH   1   2
BRANCH   1  14
HETATM   14  N   UNL     1      40.861 -15.003   1.496  1.00  0.00    -0.338 N 
HETATM   15  C   UNL     1      41.023 -15.876   0.449  1.00  0.00     0.273 C 
HETATM   16  O   UNL     1      40.977 -17.096   0.572  1.00  0.00    -0.266 OA
HETATM   17  H   UNL     1      40.975 -14.024   1.247  1.00  0.00     0.164 HD
BRANCH  15  18
HETATM   18  C   UNL     1      41.270 -15.204  -0.835  1.00  0.00     0.145 A 
HETATM   19  N   UNL     1      41.899 -14.012  -0.906  1.00  0.00    -0.170 NA
HETATM   20  N   UNL     1      41.944 -13.744  -2.224  1.00  0.00    -0.289 N 
HETATM   21  H   UNL     1      42.385 -12.881  -2.526  1.00  0.00     0.188 HD
HETATM   22  C   UNL     1      41.373 -14.709  -2.996  1.00  0.00     0.112 A 
HETATM   23  C   UNL     1      40.925 -15.674  -2.128  1.00  0.00     0.058 A 
ENDBRANCH  15  18
ENDBRANCH   1  14
BRANCH   1  24
HETATM   24  C   UNL     1      40.173 -14.248   3.811  1.00  0.00    -0.026 A 
HETATM   25  C   UNL     1      40.195 -14.327   5.213  1.00  0.00     0.010 A 
HETATM   26  C   UNL     1      39.671 -13.298   6.003  1.00  0.00     0.001 A 
HETATM   27  C   UNL     1      39.142 -12.157   5.408  1.00  0.00     0.000 A 
HETATM   28  C   UNL     1      39.147 -12.037   4.023  1.00  0.00     0.001 A 
HETATM   29  C   UNL     1      39.665 -13.067   3.235  1.00  0.00     0.010 A 
ENDBRANCH   1  24
TORSDOF 5
ENDMDL
MODEL 4
REMARK VINA RESULT:      -8.1      2.056      6.268
REMARK  5 active torsions:
REMARK  status: ('A' for Active; 'I' for Inactive)
REMARK    1  A    between atoms: C_3  and  N_4 
REMARK       I    between atoms: N_4  and  C_5 
REMARK    2  A    between atoms: C_5  and  C_6 
REMARK    3  A    between atoms: C_6  and  N_7 
REMARK    4  A    between atoms: C_6  and  C_16 
REMARK       I    between atoms: N_7  and  C_8 
REMARK    5  A    between atoms: C_8  and  C_9 
ROOT
HETATM    1  C   UNL     1      42.731 -17.602   3.092  1.00  0.00     0.210 C 
ENDROOT
BRANCH   1   2
HETATM    2  C   UNL     1      42.819 -16.762   1.776  1.00  0.00     0.249 C 
HETATM    3  N   UNL     1      41.842 -15.788   1.656  1.00  0.00    -0.324 N 
HETATM    4  H   UNL     1      41.286 -15.665   2.502  1.00  0.00     0.169 HD
HETATM    5  O   UNL     1      43.802 -16.883   1.043  1.00  0.00    -0.270 OA
BRANCH   3   6
HETATM    6  C   UNL     1      41.786 -14.719   0.728  1.00  0.00     0.046 A 
HETATM    7  C   UNL     1      41.445 -14.862  -0.634  1.00  0.00    -0.035 A 
HETATM    8  C   UNL     1      40.987 -16.143  -1.275  1.00  0.00     0.050 C 
HETATM    9  C   UNL     1      41.482 -13.730  -1.474  1.00  0.00     0.009 A 
HETATM   10  C   UNL     1      41.783 -12.468  -0.976  1.00  0.00     0.001 A 
HETATM   11  C   UNL     1      42.054 -12.311   0.374  1.00  0.00     0.009 A 
HETATM   12  C   UNL     1      42.064 -13.421   1.236  1.00  0.00    -0.035 A 
HETATM   13  C   UNL     1      42.395 -13.170   2.687  1.00  0.00     0.050 C 
ENDBRANCH   3   6
ENDBRANCH   1   2
BRANCH   1  14
HETATM   14  N   UNL     1      43.152 -16.872   4.286  1.00  0.00    -0.338 N 
HETATM   15  C   UNL     1      42.397 -15.987   5.013  1.00  0.00     0.273 C 
HETATM   16  O   UNL     1      41.207 -15.777   4.799  1.00  0.00    -0.266 OA
HETATM   17  H   UNL     1      44.134 -16.900   4.548  1.00  0.00     0.164 HD
BRANCH  15  18
HETATM   18  C   UNL     1      43.158 -15.303   6.068  1.00  0.00     0.145 A 
HETATM   19  N   UNL     1      43.376 -15.873   7.273  1.00  0.00    -0.170 NA
HETATM   20  N   UNL     1      44.105 -14.960   7.940  1.00  0.00    -0.289 N 
HETATM   21  H   UNL     1      44.397 -15.174   8.889  1.00  0.00     0.188 HD
HETATM   22  C   UNL     1      44.363 -13.835   7.217  1.00  0.00     0.112 A 
HETATM   23  C   UNL     1      43.763 -14.023   5.996  1.00  0.00     0.058 A 
ENDBRANCH  15  18
ENDBRANCH   1  14
BRANCH   1  24
HETATM   24  C   UNL     1      43.325 -19.005   2.935  1.00  0.00    -0.026 A 
HETATM   25  C   UNL     1      42.970 -19.868   1.885  1.00  0.00     0.010 A 
HETATM   26  C   UNL     1      43.537 -21.142   1.774  1.00  0.00     0.001 A 
HETATM   27  C   UNL     1      44.491 -21.568   2.693  1.00  0.00     0.000 A 
HETATM   28  C   UNL     1      44.890 -20.716   3.717  1.00  0.00     0.001 A 
HETATM   29  C   UNL     1      44.319 -19.446   3.830  1.00  0.00     0.010 A 
ENDBRANCH   1  24
TORSDOF 5
ENDMDL
MODEL 5
REMARK VINA RESULT:      -7.9      2.472      3.230
REMARK  5 active torsions:
REMARK  status: ('A' for Active; 'I' for Inactive)
REMARK    1  A    between atoms: C_3  and  N_4 
REMARK       I    between atoms: N_4  and  C_5 
REMARK    2  A    between atoms: C_5  and  C_6 
REMARK    3  A    between atoms: C_6  and  N_7 
REMARK    4  A    between atoms: C_6  and  C_16 
REMARK       I    between atoms: N_7  and  C_8 
REMARK    5  A    between atoms: C_8  and  C_9 
ROOT
HETATM    1  C   UNL     1      40.801 -14.419   2.176  1.00  0.00     0.210 C 
ENDROOT
BRANCH   1   2
HETATM    2  C   UNL     1      41.202 -15.921   2.347  1.00  0.00     0.249 C 
HETATM    3  N   UNL     1      42.469 -16.116   2.870  1.00  0.00    -0.324 N 
HETATM    4  H   UNL     1      42.910 -15.256   3.197  1.00  0.00     0.169 HD
HETATM    5  O   UNL     1      40.352 -16.798   2.186  1.00  0.00    -0.270 OA
BRANCH   3   6
HETATM    6  C   UNL     1      43.031 -17.317   3.369  1.00  0.00     0.046 A 
HETATM    7  C   UNL     1      42.950 -17.737   4.714  1.00  0.00    -0.035 A 
HETATM    8  C   UNL     1      42.168 -17.033   5.788  1.00  0.00     0.050 C 
HETATM    9  C   UNL     1      43.600 -18.926   5.103  1.00  0.00     0.009 A 
HETATM   10  C   UNL     1      44.264 -19.725   4.178  1.00  0.00     0.001 A 
HETATM   11  C   UNL     1      44.289 -19.350   2.844  1.00  0.00     0.009 A 
HETATM   12  C   UNL     1      43.684 -18.154   2.423  1.00  0.00    -0.035 A 
HETATM   13  C   UNL     1      43.781 -17.804   0.959  1.00  0.00     0.050 C 
ENDBRANCH   3   6
ENDBRANCH   1   2
BRANCH   1  14
HETATM   14  N   UNL     1      40.425 -13.764   3.427  1.00  0.00    -0.338 N 
HETATM   15  C   UNL     1      41.276 -13.216   4.352  1.00  0.00     0.273 C 
HETATM   16  O   UNL     1      42.488 -13.116   4.183  1.00  0.00    -0.266 OA
HETATM   17  H   UNL     1      39.457 -13.823   3.730  1.00  0.00     0.164 HD
BRANCH  15  18
HETATM   18  C   UNL     1      40.595 -12.770   5.577  1.00  0.00     0.145 A 
HETATM   19  N   UNL     1      39.749 -13.575   6.255  1.00  0.00    -0.170 NA
HETATM   20  N   UNL     1      39.352 -12.825   7.299  1.00  0.00    -0.289 N 
HETATM   21  H   UNL     1      38.700 -13.230   7.964  1.00  0.00     0.188 HD
HETATM   22  C   UNL     1      39.904 -11.581   7.319  1.00  0.00     0.112 A 
HETATM   23  C   UNL     1      40.718 -11.510   6.215  1.00  0.00     0.058 A 
ENDBRANCH  15  18
ENDBRANCH   1  14
BRANCH   1  24
HETATM   24  C   UNL     1      39.844 -14.196   1.002  1.00  0.00    -0.026 A 
HETATM   25  C   UNL     1      40.266 -14.207  -0.337  1.00  0.00     0.010 A 
HETATM   26  C   UNL     1      39.360 -14.001  -1.383  1.00  0.00     0.001 A 
HETATM   27  C   UNL     1      38.008 -13.812  -1.112  1.00  0.00     0.000 A 
HETATM   28  C   UNL     1      37.559 -13.838   0.203  1.00  0.00     0.001 A 
HETATM   29  C   UNL     1      38.465 -14.038   1.247  1.00  0.00     0.010 A 
ENDBRANCH   1  24
TORSDOF 5
ENDMDL
MODEL 6
REMARK VINA RESULT:      -7.9      3.359      5.389
REMARK  5 active torsions:
REMARK  status: ('A' for Active; 'I' for Inactive)
REMARK    1  A    between atoms: C_3  and  N_4 
REMARK       I    between atoms: N_4  and  C_5 
REMARK    2  A    between atoms: C_5  and  C_6 
REMARK    3  A    between atoms: C_6  and  N_7 
REMARK    4  A    between atoms: C_6  and  C_16 
REMARK       I    between atoms: N_7  and  C_8 
REMARK    5  A    between atoms: C_8  and  C_9 
ROOT
HETATM    1  C   UNL     1      40.669 -14.875   2.198  1.00  0.00     0.210 C 
ENDROOT
BRANCH   1   2
HETATM    2  C   UNL     1      41.112 -16.338   2.529  1.00  0.00     0.249 C 
HETATM    3  N   UNL     1      42.357 -16.434   3.128  1.00  0.00    -0.324 N 
HETATM    4  H   UNL     1      42.751 -15.531   3.392  1.00  0.00     0.169 HD
HETATM    5  O   UNL     1      40.302 -17.259   2.413  1.00  0.00    -0.270 OA
BRANCH   3   6
HETATM    6  C   UNL     1      42.933 -17.560   3.765  1.00  0.00     0.046 A 
HETATM    7  C   UNL     1      42.735 -17.899   5.121  1.00  0.00    -0.035 A 
HETATM    8  C   UNL     1      41.802 -17.181   6.057  1.00  0.00     0.050 C 
HETATM    9  C   UNL     1      43.410 -19.014   5.657  1.00  0.00     0.009 A 
HETATM   10  C   UNL     1      44.215 -19.824   4.863  1.00  0.00     0.001 A 
HETATM   11  C   UNL     1      44.360 -19.534   3.516  1.00  0.00     0.009 A 
HETATM   12  C   UNL     1      43.733 -18.410   2.953  1.00  0.00    -0.035 A 
HETATM   13  C   UNL     1      43.964 -18.148   1.485  1.00  0.00     0.050 C 
ENDBRANCH   3   6
ENDBRANCH   1   2
BRANCH   1  14
HETATM   14  N   UNL     1      41.221 -14.361   0.947  1.00  0.00    -0.338 N 
HETATM   15  C   UNL     1      40.528 -14.104  -0.209  1.00  0.00     0.273 C 
HETATM   16  O   UNL     1      39.307 -14.180  -0.297  1.00  0.00    -0.266 OA
HETATM   17  H   UNL     1      42.231 -14.306   0.852  1.00  0.00     0.164 HD
BRANCH  15  18
HETATM   18  C   UNL     1      41.396 -13.740  -1.338  1.00  0.00     0.145 A 
HETATM   19  N   UNL     1      41.425 -14.466  -2.477  1.00  0.00    -0.170 NA
HETATM   20  N   UNL     1      42.311 -13.818  -3.255  1.00  0.00    -0.289 N 
HETATM   21  H   UNL     1      42.500 -14.186  -4.182  1.00  0.00     0.188 HD
HETATM   22  C   UNL     1      42.848 -12.714  -2.666  1.00  0.00     0.112 A 
HETATM   23  C   UNL     1      42.276 -12.632  -1.420  1.00  0.00     0.058 A 
ENDBRANCH  15  18
ENDBRANCH   1  14
BRANCH   1  24
HETATM   24  C   UNL     1      40.788 -13.939   3.404  1.00  0.00    -0.026 A 
HETATM   25  C   UNL     1      41.611 -12.800   3.405  1.00  0.00     0.010 A 
HETATM   26  C   UNL     1      41.691 -11.967   4.527  1.00  0.00     0.001 A 
HETATM   27  C   UNL     1      40.928 -12.240   5.659  1.00  0.00     0.000 A 
HETATM   28  C   UNL     1      40.075 -13.337   5.666  1.00  0.00     0.001 A 
HETATM   29  C   UNL     1      40.000 -14.171   4.548  1.00  0.00     0.010 A 
ENDBRANCH   1  24
TORSDOF 5
ENDMDL
MODEL 7
REMARK VINA RESULT:      -7.9      2.833      5.023
REMARK  5 active torsions:
REMARK  status: ('A' for Active; 'I' for Inactive)
REMARK    1  A    between atoms: C_3  and  N_4 
REMARK       I    between atoms: N_4  and  C_5 
REMARK    2  A    between atoms: C_5  and  C_6 
REMARK    3  A    between atoms: C_6  and  N_7 
REMARK    4  A    between atoms: C_6  and  C_16 
REMARK       I    between atoms: N_7  and  C_8 
REMARK    5  A    between atoms: C_8  and  C_9 
ROOT
HETATM    1  C   UNL     1      41.165 -15.064   3.899  1.00  0.00     0.210 C 
ENDROOT
BRANCH   1   2
HETATM    2  C   UNL     1      42.334 -15.963   4.418  1.00  0.00     0.249 C 
HETATM    3  N   UNL     1      42.146 -17.319   4.207  1.00  0.00    -0.324 N 
HETATM    4  H   UNL     1      41.337 -17.530   3.623  1.00  0.00     0.169 HD
HETATM    5  O   UNL     1      43.380 -15.438   4.802  1.00  0.00    -0.270 OA
BRANCH   3   6
HETATM    6  C   UNL     1      43.099 -18.361   4.330  1.00  0.00     0.046 A 
HETATM    7  C   UNL     1      43.592 -18.849   5.559  1.00  0.00    -0.035 A 
HETATM    8  C   UNL     1      43.104 -18.416   6.913  1.00  0.00     0.050 C 
HETATM    9  C   UNL     1      44.584 -19.851   5.551  1.00  0.00     0.009 A 
HETATM   10  C   UNL     1      45.039 -20.412   4.363  1.00  0.00     0.001 A 
HETATM   11  C   UNL     1      44.509 -19.982   3.156  1.00  0.00     0.009 A 
HETATM   12  C   UNL     1      43.545 -18.960   3.121  1.00  0.00    -0.035 A 
HETATM   13  C   UNL     1      43.039 -18.530   1.766  1.00  0.00     0.050 C 
ENDBRANCH   3   6
ENDBRANCH   1   2
BRANCH   1  14
HETATM   14  N   UNL     1      41.215 -14.804   2.462  1.00  0.00    -0.338 N 
HETATM   15  C   UNL     1      40.750 -15.623   1.465  1.00  0.00     0.273 C 
HETATM   16  O   UNL     1      40.124 -16.657   1.675  1.00  0.00    -0.266 OA
HETATM   17  H   UNL     1      41.759 -14.010   2.134  1.00  0.00     0.164 HD
BRANCH  15  18
HETATM   18  C   UNL     1      41.088 -15.146   0.116  1.00  0.00     0.145 A 
HETATM   19  N   UNL     1      41.196 -15.991  -0.932  1.00  0.00    -0.170 NA
HETATM   20  N   UNL     1      41.497 -15.189  -1.969  1.00  0.00    -0.289 N 
HETATM   21  H   UNL     1      41.626 -15.610  -2.884  1.00  0.00     0.188 HD
HETATM   22  C   UNL     1      41.586 -13.872  -1.632  1.00  0.00     0.112 A 
HETATM   23  C   UNL     1      41.326 -13.807  -0.285  1.00  0.00     0.058 A 
ENDBRANCH  15  18
ENDBRANCH   1  14
BRANCH   1  24
HETATM   24  C   UNL     1      40.931 -13.836   4.783  1.00  0.00    -0.026 A 
HETATM   25  C   UNL     1      41.691 -12.660   4.669  1.00  0.00     0.010 A 
HETATM   26  C   UNL     1      41.446 -11.557   5.494  1.00  0.00     0.001 A 
HETATM   27  C   UNL     1      40.417 -11.597   6.430  1.00  0.00     0.000 A 
HETATM   28  C   UNL     1      39.624 -12.734   6.534  1.00  0.00     0.001 A 
HETATM   29  C   UNL     1      39.873 -13.837   5.713  1.00  0.00     0.010 A 
ENDBRANCH   1  24
TORSDOF 5
ENDMDL
MODEL 8
REMARK VINA RESULT:      -7.8      4.040      8.248
REMARK  5 active torsions:
REMARK  status: ('A' for Active; 'I' for Inactive)
REMARK    1  A    between atoms: C_3  and  N_4 
REMARK       I    between atoms: N_4  and  C_5 
REMARK    2  A    between atoms: C_5  and  C_6 
REMARK    3  A    between atoms: C_6  and  N_7 
REMARK    4  A    between atoms: C_6  and  C_16 
REMARK       I    between atoms: N_7  and  C_8 
REMARK    5  A    between atoms: C_8  and  C_9 
ROOT
HETATM    1  C   UNL     1      41.938 -15.261   0.285  1.00  0.00     0.210 C 
ENDROOT
BRANCH   1   2
HETATM    2  C   UNL     1      41.584 -14.139   1.316  1.00  0.00     0.249 C 
HETATM    3  N   UNL     1      40.457 -14.400   2.077  1.00  0.00    -0.324 N 
HETATM    4  H   UNL     1      40.095 -15.345   1.954  1.00  0.00     0.169 HD
HETATM    5  O   UNL     1      42.382 -13.221   1.511  1.00  0.00    -0.270 OA
BRANCH   3   6
HETATM    6  C   UNL     1      40.016 -13.724   3.241  1.00  0.00     0.046 A 
HETATM    7  C   UNL     1      39.328 -12.491   3.236  1.00  0.00    -0.035 A 
HETATM    8  C   UNL     1      38.868 -11.771   1.998  1.00  0.00     0.050 C 
HETATM    9  C   UNL     1      38.992 -11.886   4.464  1.00  0.00     0.009 A 
HETATM   10  C   UNL     1      39.266 -12.508   5.677  1.00  0.00     0.001 A 
HETATM   11  C   UNL     1      39.882 -13.750   5.686  1.00  0.00     0.009 A 
HETATM   12  C   UNL     1      40.266 -14.368   4.484  1.00  0.00    -0.035 A 
HETATM   13  C   UNL     1      40.956 -15.706   4.581  1.00  0.00     0.050 C 
ENDBRANCH   3   6
ENDBRANCH   1   2
BRANCH   1  14
HETATM   14  N   UNL     1      40.981 -15.375  -0.813  1.00  0.00    -0.338 N 
HETATM   15  C   UNL     1      40.938 -14.600  -1.945  1.00  0.00     0.273 C 
HETATM   16  O   UNL     1      41.789 -13.762  -2.224  1.00  0.00    -0.266 OA
HETATM   17  H   UNL     1      40.180 -15.989  -0.694  1.00  0.00     0.164 HD
BRANCH  15  18
HETATM   18  C   UNL     1      39.761 -14.865  -2.786  1.00  0.00     0.145 A 
HETATM   19  N   UNL     1      39.840 -15.617  -3.904  1.00  0.00    -0.170 NA
HETATM   20  N   UNL     1      38.580 -15.636  -4.375  1.00  0.00    -0.289 N 
HETATM   21  H   UNL     1      38.390 -16.154  -5.227  1.00  0.00     0.188 HD
HETATM   22  C   UNL     1      37.702 -14.931  -3.610  1.00  0.00     0.112 A 
HETATM   23  C   UNL     1      38.434 -14.417  -2.568  1.00  0.00     0.058 A 
ENDBRANCH  15  18
ENDBRANCH   1  14
BRANCH   1  24
HETATM   24  C   UNL     1      42.323 -16.580   0.963  1.00  0.00    -0.026 A 
HETATM   25  C   UNL     1      41.394 -17.599   1.227  1.00  0.00     0.010 A 
HETATM   26  C   UNL     1      41.785 -18.792   1.846  1.00  0.00     0.001 A 
HETATM   27  C   UNL     1      43.118 -19.000   2.186  1.00  0.00     0.000 A 
HETATM   28  C   UNL     1      44.064 -18.023   1.897  1.00  0.00     0.001 A 
HETATM   29  C   UNL     1      43.671 -16.831   1.285  1.00  0.00     0.010 A 
ENDBRANCH   1  24
TORSDOF 5
ENDMDL
MODEL 9
REMARK VINA RESULT:      -7.8      2.465      3.652
REMARK  5 active torsions:
REMARK  status: ('A' for Active; 'I' for Inactive)
REMARK    1  A    between atoms: C_3  and  N_4 
REMARK       I    between atoms: N_4  and  C_5 
REMARK    2  A    between atoms: C_5  and  C_6 
REMARK    3  A    between atoms: C_6  and  N_7 
REMARK    4  A    between atoms: C_6  and  C_16 
REMARK       I    between atoms: N_7  and  C_8 
REMARK    5  A    between atoms: C_8  and  C_9 
ROOT
HETATM    1  C   UNL     1      40.822 -14.340   2.346  1.00  0.00     0.210 C 
ENDROOT
BRANCH   1   2
HETATM    2  C   UNL     1      41.282 -15.824   2.524  1.00  0.00     0.249 C 
HETATM    3  N   UNL     1      42.569 -15.965   3.018  1.00  0.00    -0.324 N 
HETATM    4  H   UNL     1      42.985 -15.085   3.323  1.00  0.00     0.169 HD
HETATM    5  O   UNL     1      40.462 -16.734   2.396  1.00  0.00    -0.270 OA
BRANCH   3   6
HETATM    6  C   UNL     1      43.186 -17.138   3.518  1.00  0.00     0.046 A 
HETATM    7  C   UNL     1      43.698 -18.176   2.710  1.00  0.00    -0.035 A 
HETATM    8  C   UNL     1      43.760 -18.144   1.208  1.00  0.00     0.050 C 
HETATM    9  C   UNL     1      44.238 -19.324   3.326  1.00  0.00     0.009 A 
HETATM   10  C   UNL     1      44.338 -19.424   4.709  1.00  0.00     0.001 A 
HETATM   11  C   UNL     1      43.898 -18.378   5.505  1.00  0.00     0.009 A 
HETATM   12  C   UNL     1      43.319 -17.234   4.930  1.00  0.00    -0.035 A 
HETATM   13  C   UNL     1      42.841 -16.152   5.867  1.00  0.00     0.050 C 
ENDBRANCH   3   6
ENDBRANCH   1   2
BRANCH   1  14
HETATM   14  N   UNL     1      40.428 -13.691   3.593  1.00  0.00    -0.338 N 
HETATM   15  C   UNL     1      41.258 -13.065   4.489  1.00  0.00     0.273 C 
HETATM   16  O   UNL     1      42.455 -12.881   4.288  1.00  0.00    -0.266 OA
HETATM   17  H   UNL     1      39.474 -13.814   3.921  1.00  0.00     0.164 HD
BRANCH  15  18
HETATM   18  C   UNL     1      40.575 -12.647   5.721  1.00  0.00     0.145 A 
HETATM   19  N   UNL     1      39.656 -13.429   6.327  1.00  0.00    -0.170 NA
HETATM   20  N   UNL     1      39.281 -12.718   7.406  1.00  0.00    -0.289 N 
HETATM   21  H   UNL     1      38.584 -13.115   8.028  1.00  0.00     0.188 HD
HETATM   22  C   UNL     1      39.918 -11.519   7.516  1.00  0.00     0.112 A 
HETATM   23  C   UNL     1      40.767 -11.439   6.439  1.00  0.00     0.058 A 
ENDBRANCH  15  18
ENDBRANCH   1  14
BRANCH   1  24
HETATM   24  C   UNL     1      39.849 -14.164   1.176  1.00  0.00    -0.026 A 
HETATM   25  C   UNL     1      40.269 -14.128  -0.164  1.00  0.00     0.010 A 
HETATM   26  C   UNL     1      39.348 -13.968  -1.206  1.00  0.00     0.001 A 
HETATM   27  C   UNL     1      37.988 -13.871  -0.931  1.00  0.00     0.000 A 
HETATM   28  C   UNL     1      37.544 -13.946   0.384  1.00  0.00     0.001 A 
HETATM   29  C   UNL     1      38.464 -14.100   1.424  1.00  0.00     0.010 A 
ENDBRANCH   1  24
TORSDOF 5
ENDMDL
MODEL 10
REMARK VINA RESULT:      -7.7      2.269      4.952
REMARK  5 active torsions:
REMARK  status: ('A' for Active; 'I' for Inactive)
REMARK    1  A    between atoms: C_3  and  N_4 
REMARK       I    between atoms: N_4  and  C_5 
REMARK    2  A    between atoms: C_5  and  C_6 
REMARK    3  A    between atoms: C_6  and  N_7 
REMARK    4  A    between atoms: C_6  and  C_16 
REMARK       I    between atoms: N_7  and  C_8 
REMARK    5  A    between atoms: C_8  and  C_9 
ROOT
HETATM    1  C   UNL     1      41.260 -16.148   5.288  1.00  0.00     0.210 C 
ENDROOT
BRANCH   1   2
HETATM    2  C   UNL     1      41.577 -17.600   4.799  1.00  0.00     0.249 C 
HETATM    3  N   UNL     1      42.856 -17.762   4.291  1.00  0.00    -0.324 N 
HETATM    4  H   UNL     1      43.454 -16.948   4.432  1.00  0.00     0.169 HD
HETATM    5  O   UNL     1      40.784 -18.510   5.043  1.00  0.00    -0.270 OA
BRANCH   3   6
HETATM    6  C   UNL     1      43.530 -18.973   4.000  1.00  0.00     0.046 A 
HETATM    7  C   UNL     1      43.676 -19.514   2.705  1.00  0.00    -0.035 A 
HETATM    8  C   UNL     1      43.235 -18.835   1.437  1.00  0.00     0.050 C 
HETATM    9  C   UNL     1      44.319 -20.759   2.548  1.00  0.00     0.009 A 
HETATM   10  C   UNL     1      44.868 -21.432   3.633  1.00  0.00     0.001 A 
HETATM   11  C   UNL     1      44.786 -20.873   4.899  1.00  0.00     0.009 A 
HETATM   12  C   UNL     1      44.121 -19.652   5.101  1.00  0.00    -0.035 A 
HETATM   13  C   UNL     1      44.051 -19.124   6.513  1.00  0.00     0.050 C 
ENDBRANCH   3   6
ENDBRANCH   1   2
BRANCH   1  14
HETATM   14  N   UNL     1      40.391 -15.399   4.384  1.00  0.00    -0.338 N 
HETATM   15  C   UNL     1      40.493 -15.332   3.018  1.00  0.00     0.273 C 
HETATM   16  O   UNL     1      41.289 -16.000   2.365  1.00  0.00    -0.266 OA
HETATM   17  H   UNL     1      39.720 -14.749   4.787  1.00  0.00     0.164 HD
BRANCH  15  18
HETATM   18  C   UNL     1      39.561 -14.370   2.411  1.00  0.00     0.145 A 
HETATM   19  N   UNL     1      38.555 -14.766   1.601  1.00  0.00    -0.170 NA
HETATM   20  N   UNL     1      37.933 -13.621   1.269  1.00  0.00    -0.289 N 
HETATM   21  H   UNL     1      37.126 -13.670   0.654  1.00  0.00     0.188 HD
HETATM   22  C   UNL     1      38.495 -12.513   1.828  1.00  0.00     0.112 A 
HETATM   23  C   UNL     1      39.554 -12.962   2.577  1.00  0.00     0.058 A 
ENDBRANCH  15  18
ENDBRANCH   1  14
BRANCH   1  24
HETATM   24  C   UNL     1      42.509 -15.404   5.768  1.00  0.00    -0.026 A 
HETATM   25  C   UNL     1      43.216 -15.770   6.925  1.00  0.00     0.010 A 
HETATM   26  C   UNL     1      44.355 -15.066   7.330  1.00  0.00     0.001 A 
HETATM   27  C   UNL     1      44.828 -14.002   6.569  1.00  0.00     0.000 A 
HETATM   28  C   UNL     1      44.171 -13.646   5.398  1.00  0.00     0.001 A 
HETATM   29  C   UNL     1      43.030 -14.346   4.997  1.00  0.00     0.010 A 
ENDBRANCH   1  24
TORSDOF 5
ENDMDL
