MODEL 1
REMARK VINA RESULT:      -8.9      0.000      0.000
REMARK  3 active torsions:
REMARK  status: ('A' for Active; 'I' for Inactive)
REMARK    1  A    between atoms: C_5  and  C_6 
REMARK    2  A    between atoms: C_6  and  N_7 
REMARK    3  A    between atoms: C_11  and  C_12 
ROOT
HETATM    1  N   UNL     1      43.140 -16.738   5.918  1.00  0.00    -0.066 N 
HETATM    2  H   UNL     1      43.180 -16.421   6.893  1.00  0.00     0.280 HD
HETATM    3  C   UNL     1      43.269 -15.518   5.032  1.00  0.00     0.236 C 
HETATM    4  C   UNL     1      42.150 -14.543   5.363  1.00  0.00     0.037 C 
HETATM    5  C   UNL     1      40.759 -15.164   5.161  1.00  0.00     0.024 C 
HETATM    6  C   UNL     1      40.661 -16.466   5.972  1.00  0.00     0.037 C 
HETATM    7  C   UNL     1      41.815 -17.431   5.722  1.00  0.00     0.236 C 
ENDROOT
BRANCH   1   8
HETATM    8  C   UNL     1      44.291 -17.707   5.737  1.00  0.00     0.293 C 
BRANCH   8   9
HETATM    9  C   UNL     1      44.202 -18.497   4.492  1.00  0.00     0.061 A 
HETATM   10  N   UNL     1      44.373 -19.873   4.423  1.00  0.00    -0.307 N 
HETATM   11  C   UNL     1      44.214 -20.225   3.083  1.00  0.00     0.139 A 
HETATM   12  C   UNL     1      44.651 -20.805   5.422  1.00  0.00     0.099 A 
HETATM   13  C   UNL     1      44.333 -21.611   2.720  1.00  0.00    -0.016 A 
HETATM   14  N   UNL     1      43.980 -19.166   2.338  1.00  0.00    -0.240 NA
HETATM   15  C   UNL     1      44.180 -22.088   1.298  1.00  0.00     0.052 C 
HETATM   16  C   UNL     1      44.599 -22.499   3.706  1.00  0.00     0.012 A 
HETATM   17  C   UNL     1      44.766 -22.102   5.094  1.00  0.00     0.018 A 
HETATM   18  C   UNL     1      44.004 -18.100   3.184  1.00  0.00     0.146 A 
ENDBRANCH   8   9
ENDBRANCH   1   8
BRANCH   5  19
HETATM   19  C   UNL     1      40.400 -15.300   3.697  1.00  0.00    -0.024 A 
HETATM   20  C   UNL     1      39.776 -14.277   2.896  1.00  0.00     0.018 A 
HETATM   21  C   UNL     1      39.626 -14.787   1.612  1.00  0.00     0.138 A 
HETATM   22  C   UNL     1      39.312 -12.966   3.110  1.00  0.00     0.017 A 
HETATM   23  N   UNL     1      39.113 -14.173   0.533  1.00  0.00    -0.242 NA
HETATM   24  N   UNL     1      40.079 -16.072   1.612  1.00  0.00    -0.350 N 
HETATM   25  C   UNL     1      38.692 -12.915   0.792  1.00  0.00     0.119 A 
HETATM   26  C   UNL     1      38.761 -12.281   2.025  1.00  0.00     0.020 A 
HETATM   27  H   UNL     1      40.038 -16.673   0.801  1.00  0.00     0.166 HD
HETATM   28  C   UNL     1      40.540 -16.402   2.865  1.00  0.00     0.098 A 
ENDBRANCH   5  19
TORSDOF 3
ENDMDL
MODEL 2
REMARK VINA RESULT:      -8.9      2.713      8.063
REMARK  3 active torsions:
REMARK  status: ('A' for Active; 'I' for Inactive)
REMARK    1  A    between atoms: C_5  and  C_6 
REMARK    2  A    between atoms: C_6  and  N_7 
REMARK    3  A    between atoms: C_11  and  C_12 
ROOT
HETATM    1  N   UNL     1      41.584 -16.001   2.433  1.00  0.00    -0.066 N 
HETATM    2  H   UNL     1      41.642 -15.223   3.101  1.00  0.00     0.280 HD
HETATM    3  C   UNL     1      41.131 -17.227   3.196  1.00  0.00     0.236 C 
HETATM    4  C   UNL     1      42.119 -17.508   4.317  1.00  0.00     0.037 C 
HETATM    5  C   UNL     1      43.544 -17.742   3.792  1.00  0.00     0.024 C 
HETATM    6  C   UNL     1      43.968 -16.548   2.924  1.00  0.00     0.037 C 
HETATM    7  C   UNL     1      42.957 -16.191   1.839  1.00  0.00     0.236 C 
ENDROOT
BRANCH   1   8
HETATM    8  C   UNL     1      40.587 -15.580   1.373  1.00  0.00     0.293 C 
BRANCH   8   9
HETATM    9  C   UNL     1      41.044 -14.435   0.560  1.00  0.00     0.061 A 
HETATM   10  N   UNL     1      41.169 -14.456  -0.823  1.00  0.00    -0.307 N 
HETATM   11  C   UNL     1      41.627 -13.194  -1.198  1.00  0.00     0.139 A 
HETATM   12  C   UNL     1      40.919 -15.473  -1.742  1.00  0.00     0.099 A 
HETATM   13  C   UNL     1      41.840 -12.929  -2.595  1.00  0.00    -0.016 A 
HETATM   14  N   UNL     1      41.806 -12.421  -0.147  1.00  0.00    -0.240 NA
HETATM   15  C   UNL     1      42.336 -11.597  -3.097  1.00  0.00     0.052 C 
HETATM   16  C   UNL     1      41.587 -13.930  -3.471  1.00  0.00     0.012 A 
HETATM   17  C   UNL     1      41.117 -15.238  -3.049  1.00  0.00     0.018 A 
HETATM   18  C   UNL     1      41.485 -13.181   0.935  1.00  0.00     0.146 A 
ENDBRANCH   8   9
ENDBRANCH   1   8
BRANCH   5  19
HETATM   19  C   UNL     1      43.694 -19.095   3.130  1.00  0.00    -0.024 A 
HETATM   20  C   UNL     1      44.158 -20.293   3.782  1.00  0.00     0.018 A 
HETATM   21  C   UNL     1      44.142 -21.314   2.839  1.00  0.00     0.138 A 
HETATM   22  C   UNL     1      44.599 -20.637   5.073  1.00  0.00     0.017 A 
HETATM   23  N   UNL     1      44.470 -22.605   3.013  1.00  0.00    -0.242 NA
HETATM   24  N   UNL     1      43.741 -20.784   1.650  1.00  0.00    -0.350 N 
HETATM   25  C   UNL     1      44.878 -22.882   4.271  1.00  0.00     0.119 A 
HETATM   26  C   UNL     1      44.962 -21.964   5.309  1.00  0.00     0.020 A 
HETATM   27  H   UNL     1      43.687 -21.320   0.795  1.00  0.00     0.166 HD
HETATM   28  C   UNL     1      43.476 -19.444   1.804  1.00  0.00     0.098 A 
ENDBRANCH   5  19
TORSDOF 3
ENDMDL
MODEL 3
REMARK VINA RESULT:      -8.9      1.577      8.347
REMARK  3 active torsions:
REMARK  status: ('A' for Active; 'I' for Inactive)
REMARK    1  A    between atoms: C_5  and  C_6 
REMARK    2  A    between atoms: C_6  and  N_7 
REMARK    3  A    between atoms: C_11  and  C_12 
ROOT
HETATM    1  N   UNL     1      41.353 -15.581   2.984  1.00  0.00    -0.066 N 
HETATM    2  H   UNL     1      41.280 -15.036   2.117  1.00  0.00     0.280 HD
HETATM    3  C   UNL     1      42.784 -15.485   3.467  1.00  0.00     0.236 C 
HETATM    4  C   UNL     1      43.710 -16.010   2.381  1.00  0.00     0.037 C 
HETATM    5  C   UNL     1      43.403 -17.469   2.010  1.00  0.00     0.024 C 
HETATM    6  C   UNL     1      41.921 -17.594   1.625  1.00  0.00     0.037 C 
HETATM    7  C   UNL     1      40.968 -17.003   2.659  1.00  0.00     0.236 C 
ENDROOT
BRANCH   1   8
HETATM    8  C   UNL     1      40.372 -14.963   3.960  1.00  0.00     0.293 C 
BRANCH   8   9
HETATM    9  C   UNL     1      39.817 -13.675   3.496  1.00  0.00     0.061 A 
HETATM   10  N   UNL     1      38.939 -13.539   2.430  1.00  0.00    -0.307 N 
HETATM   11  C   UNL     1      38.661 -12.177   2.318  1.00  0.00     0.139 A 
HETATM   12  C   UNL     1      38.387 -14.495   1.580  1.00  0.00     0.099 A 
HETATM   13  C   UNL     1      37.758 -11.744   1.286  1.00  0.00    -0.016 A 
HETATM   14  N   UNL     1      39.319 -11.481   3.221  1.00  0.00    -0.240 NA
HETATM   15  C   UNL     1      37.399 -10.294   1.085  1.00  0.00     0.052 C 
HETATM   16  C   UNL     1      37.231 -12.691   0.473  1.00  0.00     0.012 A 
HETATM   17  C   UNL     1      37.545 -14.102   0.610  1.00  0.00     0.018 A 
HETATM   18  C   UNL     1      40.054 -12.384   3.926  1.00  0.00     0.146 A 
ENDBRANCH   8   9
ENDBRANCH   1   8
BRANCH   5  19
HETATM   19  C   UNL     1      43.867 -18.440   3.074  1.00  0.00    -0.024 A 
HETATM   20  C   UNL     1      44.039 -19.859   2.887  1.00  0.00     0.018 A 
HETATM   21  C   UNL     1      44.485 -20.387   4.092  1.00  0.00     0.138 A 
HETATM   22  C   UNL     1      43.864 -20.769   1.828  1.00  0.00     0.017 A 
HETATM   23  N   UNL     1      44.799 -21.664   4.370  1.00  0.00    -0.242 NA
HETATM   24  N   UNL     1      44.543 -19.375   5.002  1.00  0.00    -0.350 N 
HETATM   25  C   UNL     1      44.620 -22.492   3.317  1.00  0.00     0.119 A 
HETATM   26  C   UNL     1      44.166 -22.112   2.062  1.00  0.00     0.020 A 
HETATM   27  H   UNL     1      44.802 -19.514   5.968  1.00  0.00     0.166 HD
HETATM   28  C   UNL     1      44.164 -18.194   4.407  1.00  0.00     0.098 A 
ENDBRANCH   5  19
TORSDOF 3
ENDMDL
MODEL 4
REMARK VINA RESULT:      -8.8      1.392      2.340
REMARK  3 active torsions:
REMARK  status: ('A' for Active; 'I' for Inactive)
REMARK    1  A    between atoms: C_5  and  C_6 
REMARK    2  A    between atoms: C_6  and  N_7 
REMARK    3  A    between atoms: C_11  and  C_12 
ROOT
HETATM    1  N   UNL     1      42.741 -16.060   3.311  1.00  0.00    -0.066 N 
HETATM    2  H   UNL     1      43.278 -15.836   4.157  1.00  0.00     0.280 HD
HETATM    3  C   UNL     1      42.617 -14.791   2.497  1.00  0.00     0.236 C 
HETATM    4  C   UNL     1      41.936 -13.725   3.341  1.00  0.00     0.037 C 
HETATM    5  C   UNL     1      40.538 -14.159   3.810  1.00  0.00     0.024 C 
HETATM    6  C   UNL     1      40.644 -15.506   4.542  1.00  0.00     0.037 C 
HETATM    7  C   UNL     1      41.394 -16.574   3.752  1.00  0.00     0.236 C 
ENDROOT
BRANCH   1   8
HETATM    8  C   UNL     1      43.522 -17.137   2.584  1.00  0.00     0.293 C 
BRANCH   8   9
HETATM    9  C   UNL     1      43.980 -18.227   3.468  1.00  0.00     0.061 A 
HETATM   10  N   UNL     1      44.046 -19.563   3.097  1.00  0.00    -0.307 N 
HETATM   11  C   UNL     1      44.522 -20.260   4.207  1.00  0.00     0.139 A 
HETATM   12  C   UNL     1      43.727 -20.188   1.893  1.00  0.00     0.099 A 
HETATM   13  C   UNL     1      44.699 -21.683   4.100  1.00  0.00    -0.016 A 
HETATM   14  N   UNL     1      44.729 -19.450   5.224  1.00  0.00    -0.240 NA
HETATM   15  C   UNL     1      45.205 -22.521   5.246  1.00  0.00     0.052 C 
HETATM   16  C   UNL     1      44.386 -22.268   2.920  1.00  0.00     0.012 A 
HETATM   17  C   UNL     1      43.885 -21.517   1.782  1.00  0.00     0.018 A 
HETATM   18  C   UNL     1      44.369 -18.210   4.794  1.00  0.00     0.146 A 
ENDBRANCH   8   9
ENDBRANCH   1   8
BRANCH   5  19
HETATM   19  C   UNL     1      39.522 -14.123   2.689  1.00  0.00    -0.024 A 
HETATM   20  C   UNL     1      38.756 -12.966   2.299  1.00  0.00     0.018 A 
HETATM   21  C   UNL     1      37.950 -13.341   1.231  1.00  0.00     0.138 A 
HETATM   22  C   UNL     1      38.646 -11.631   2.731  1.00  0.00     0.017 A 
HETATM   23  N   UNL     1      37.091 -12.577   0.535  1.00  0.00    -0.242 NA
HETATM   24  N   UNL     1      38.154 -14.667   0.992  1.00  0.00    -0.350 N 
HETATM   25  C   UNL     1      37.031 -11.305   0.986  1.00  0.00     0.119 A 
HETATM   26  C   UNL     1      37.761 -10.793   2.050  1.00  0.00     0.020 A 
HETATM   27  H   UNL     1      37.651 -15.186   0.287  1.00  0.00     0.166 HD
HETATM   28  C   UNL     1      39.092 -15.157   1.870  1.00  0.00     0.098 A 
ENDBRANCH   5  19
TORSDOF 3
ENDMDL
MODEL 5
REMARK VINA RESULT:      -8.6      1.942      8.367
REMARK  3 active torsions:
REMARK  status: ('A' for Active; 'I' for Inactive)
REMARK    1  A    between atoms: C_5  and  C_6 
REMARK    2  A    between atoms: C_6  and  N_7 
REMARK    3  A    between atoms: C_11  and  C_12 
ROOT
HETATM    1  N   UNL     1      41.827 -16.069   1.766  1.00  0.00    -0.066 N 
HETATM    2  H   UNL     1      41.864 -15.878   0.758  1.00  0.00     0.280 HD
HETATM    3  C   UNL     1      43.229 -15.912   2.315  1.00  0.00     0.236 C 
HETATM    4  C   UNL     1      44.158 -16.870   1.585  1.00  0.00     0.037 C 
HETATM    5  C   UNL     1      43.720 -18.335   1.738  1.00  0.00     0.024 C 
HETATM    6  C   UNL     1      42.258 -18.478   1.286  1.00  0.00     0.037 C 
HETATM    7  C   UNL     1      41.314 -17.476   1.942  1.00  0.00     0.236 C 
ENDROOT
BRANCH   1   8
HETATM    8  C   UNL     1      40.861 -15.061   2.356  1.00  0.00     0.293 C 
BRANCH   8   9
HETATM    9  C   UNL     1      39.829 -14.610   1.401  1.00  0.00     0.061 A 
HETATM   10  N   UNL     1      40.100 -14.004   0.182  1.00  0.00    -0.307 N 
HETATM   11  C   UNL     1      38.867 -13.734  -0.410  1.00  0.00     0.139 A 
HETATM   12  C   UNL     1      41.314 -13.682  -0.423  1.00  0.00     0.099 A 
HETATM   13  C   UNL     1      38.849 -13.105  -1.703  1.00  0.00    -0.016 A 
HETATM   14  N   UNL     1      37.874 -14.113   0.367  1.00  0.00    -0.240 NA
HETATM   15  C   UNL     1      37.566 -12.772  -2.419  1.00  0.00     0.052 C 
HETATM   16  C   UNL     1      40.040 -12.804  -2.272  1.00  0.00     0.012 A 
HETATM   17  C   UNL     1      41.310 -13.092  -1.628  1.00  0.00     0.018 A 
HETATM   18  C   UNL     1      38.450 -14.620   1.491  1.00  0.00     0.146 A 
ENDBRANCH   8   9
ENDBRANCH   1   8
BRANCH   5  19
HETATM   19  C   UNL     1      44.013 -18.878   3.120  1.00  0.00    -0.024 A 
HETATM   20  C   UNL     1      44.268 -20.262   3.433  1.00  0.00     0.018 A 
HETATM   21  C   UNL     1      44.502 -20.344   4.800  1.00  0.00     0.138 A 
HETATM   22  C   UNL     1      44.324 -21.469   2.711  1.00  0.00     0.017 A 
HETATM   23  N   UNL     1      44.804 -21.436   5.523  1.00  0.00    -0.242 NA
HETATM   24  N   UNL     1      44.354 -19.098   5.330  1.00  0.00    -0.350 N 
HETATM   25  C   UNL     1      44.854 -22.564   4.780  1.00  0.00     0.119 A 
HETATM   26  C   UNL     1      44.626 -22.638   3.413  1.00  0.00     0.020 A 
HETATM   27  H   UNL     1      44.434 -18.904   6.318  1.00  0.00     0.166 HD
HETATM   28  C   UNL     1      44.049 -18.203   4.332  1.00  0.00     0.098 A 
ENDBRANCH   5  19
TORSDOF 3
ENDMDL
MODEL 6
REMARK VINA RESULT:      -8.6      3.817      8.372
REMARK  3 active torsions:
REMARK  status: ('A' for Active; 'I' for Inactive)
REMARK    1  A    between atoms: C_5  and  C_6 
REMARK    2  A    between atoms: C_6  and  N_7 
REMARK    3  A    between atoms: C_11  and  C_12 
ROOT
HETATM    1  N   UNL     1      43.311 -14.733   6.965  1.00  0.00    -0.066 N 
HETATM    2  H   UNL     1      42.806 -14.587   7.847  1.00  0.00     0.280 HD
HETATM    3  C   UNL     1      42.299 -14.679   5.842  1.00  0.00     0.236 C 
HETATM    4  C   UNL     1      41.239 -15.744   6.077  1.00  0.00     0.037 C 
HETATM    5  C   UNL     1      41.839 -17.157   6.145  1.00  0.00     0.024 C 
HETATM    6  C   UNL     1      42.947 -17.188   7.209  1.00  0.00     0.037 C 
HETATM    7  C   UNL     1      43.983 -16.081   7.047  1.00  0.00     0.236 C 
ENDROOT
BRANCH   1   8
HETATM    8  C   UNL     1      44.336 -13.620   6.872  1.00  0.00     0.293 C 
BRANCH   8   9
HETATM    9  C   UNL     1      44.430 -12.805   8.099  1.00  0.00     0.061 A 
HETATM   10  N   UNL     1      43.517 -11.825   8.461  1.00  0.00    -0.307 N 
HETATM   11  C   UNL     1      43.962 -11.295   9.672  1.00  0.00     0.139 A 
HETATM   12  C   UNL     1      42.361 -11.379   7.821  1.00  0.00     0.099 A 
HETATM   13  C   UNL     1      43.190 -10.251  10.289  1.00  0.00    -0.016 A 
HETATM   14  N   UNL     1      45.083 -11.867  10.057  1.00  0.00    -0.240 NA
HETATM   15  C   UNL     1      43.593  -9.615  11.595  1.00  0.00     0.052 C 
HETATM   16  C   UNL     1      42.069  -9.837   9.652  1.00  0.00     0.012 A 
HETATM   17  C   UNL     1      41.633 -10.403   8.387  1.00  0.00     0.018 A 
HETATM   18  C   UNL     1      45.396 -12.769   9.087  1.00  0.00     0.146 A 
ENDBRANCH   8   9
ENDBRANCH   1   8
BRANCH   5  19
HETATM   19  C   UNL     1      42.253 -17.669   4.782  1.00  0.00    -0.024 A 
HETATM   20  C   UNL     1      43.232 -18.699   4.543  1.00  0.00     0.018 A 
HETATM   21  C   UNL     1      43.315 -18.884   3.168  1.00  0.00     0.138 A 
HETATM   22  C   UNL     1      44.070 -19.504   5.337  1.00  0.00     0.017 A 
HETATM   23  N   UNL     1      44.082 -19.760   2.496  1.00  0.00    -0.242 NA
HETATM   24  N   UNL     1      42.479 -17.990   2.570  1.00  0.00    -0.350 N 
HETATM   25  C   UNL     1      44.859 -20.511   3.307  1.00  0.00     0.119 A 
HETATM   26  C   UNL     1      44.895 -20.427   4.692  1.00  0.00     0.020 A 
HETATM   27  H   UNL     1      42.392 -17.899   1.568  1.00  0.00     0.166 HD
HETATM   28  C   UNL     1      41.837 -17.242   3.528  1.00  0.00     0.098 A 
ENDBRANCH   5  19
TORSDOF 3
ENDMDL
MODEL 7
REMARK VINA RESULT:      -8.6      1.613      8.200
REMARK  3 active torsions:
REMARK  status: ('A' for Active; 'I' for Inactive)
REMARK    1  A    between atoms: C_5  and  C_6 
REMARK    2  A    between atoms: C_6  and  N_7 
REMARK    3  A    between atoms: C_11  and  C_12 
ROOT
HETATM    1  N   UNL     1      41.326 -16.405   1.913  1.00  0.00    -0.066 N 
HETATM    2  H   UNL     1      41.515 -15.805   1.101  1.00  0.00     0.280 HD
HETATM    3  C   UNL     1      42.272 -15.989   3.019  1.00  0.00     0.236 C 
HETATM    4  C   UNL     1      43.703 -16.129   2.526  1.00  0.00     0.037 C 
HETATM    5  C   UNL     1      44.033 -17.567   2.096  1.00  0.00     0.024 C 
HETATM    6  C   UNL     1      43.007 -18.034   1.053  1.00  0.00     0.037 C 
HETATM    7  C   UNL     1      41.559 -17.832   1.486  1.00  0.00     0.236 C 
ENDROOT
BRANCH   1   8
HETATM    8  C   UNL     1      39.873 -16.178   2.281  1.00  0.00     0.293 C 
BRANCH   8   9
HETATM    9  C   UNL     1      39.473 -14.757   2.238  1.00  0.00     0.061 A 
HETATM   10  N   UNL     1      39.429 -13.921   3.346  1.00  0.00    -0.307 N 
HETATM   11  C   UNL     1      39.003 -12.676   2.886  1.00  0.00     0.139 A 
HETATM   12  C   UNL     1      39.725 -14.171   4.685  1.00  0.00     0.099 A 
HETATM   13  C   UNL     1      38.875 -11.602   3.833  1.00  0.00    -0.016 A 
HETATM   14  N   UNL     1      38.769 -12.702   1.590  1.00  0.00    -0.240 NA
HETATM   15  C   UNL     1      38.419 -10.222   3.431  1.00  0.00     0.052 C 
HETATM   16  C   UNL     1      39.171 -11.866   5.127  1.00  0.00     0.012 A 
HETATM   17  C   UNL     1      39.606 -13.177   5.579  1.00  0.00     0.018 A 
HETATM   18  C   UNL     1      39.021 -13.978   1.191  1.00  0.00     0.146 A 
ENDBRANCH   8   9
ENDBRANCH   1   8
BRANCH   5  19
HETATM   19  C   UNL     1      44.201 -18.494   3.281  1.00  0.00    -0.024 A 
HETATM   20  C   UNL     1      44.326 -19.928   3.204  1.00  0.00     0.018 A 
HETATM   21  C   UNL     1      44.472 -20.403   4.502  1.00  0.00     0.138 A 
HETATM   22  C   UNL     1      44.329 -20.890   2.178  1.00  0.00     0.017 A 
HETATM   23  N   UNL     1      44.643 -21.674   4.902  1.00  0.00    -0.242 NA
HETATM   24  N   UNL     1      44.392 -19.342   5.353  1.00  0.00    -0.350 N 
HETATM   25  C   UNL     1      44.647 -22.555   3.877  1.00  0.00     0.119 A 
HETATM   26  C   UNL     1      44.495 -22.229   2.536  1.00  0.00     0.020 A 
HETATM   27  H   UNL     1      44.429 -19.435   6.358  1.00  0.00     0.166 HD
HETATM   28  C   UNL     1      44.219 -18.183   4.634  1.00  0.00     0.098 A 
ENDBRANCH   5  19
TORSDOF 3
ENDMDL
MODEL 8
REMARK VINA RESULT:      -8.6      2.687      7.918
REMARK  3 active torsions:
REMARK  status: ('A' for Active; 'I' for Inactive)
REMARK    1  A    between atoms: C_5  and  C_6 
REMARK    2  A    between atoms: C_6  and  N_7 
REMARK    3  A    between atoms: C_11  and  C_12 
ROOT
HETATM    1  N   UNL     1      41.195 -14.403   1.627  1.00  0.00    -0.066 N 
HETATM    2  H   UNL     1      40.560 -13.860   2.223  1.00  0.00     0.280 HD
HETATM    3  C   UNL     1      40.572 -15.765   1.413  1.00  0.00     0.236 C 
HETATM    4  C   UNL     1      40.350 -16.427   2.764  1.00  0.00     0.037 C 
HETATM    5  C   UNL     1      41.659 -16.592   3.553  1.00  0.00     0.024 C 
HETATM    6  C   UNL     1      42.353 -15.227   3.677  1.00  0.00     0.037 C 
HETATM    7  C   UNL     1      42.517 -14.501   2.346  1.00  0.00     0.236 C 
ENDROOT
BRANCH   1   8
HETATM    8  C   UNL     1      41.336 -13.625   0.334  1.00  0.00     0.293 C 
BRANCH   8   9
HETATM    9  C   UNL     1      40.122 -13.659  -0.506  1.00  0.00     0.061 A 
HETATM   10  N   UNL     1      39.980 -14.438  -1.647  1.00  0.00    -0.307 N 
HETATM   11  C   UNL     1      38.703 -14.183  -2.144  1.00  0.00     0.139 A 
HETATM   12  C   UNL     1      40.866 -15.324  -2.259  1.00  0.00     0.099 A 
HETATM   13  C   UNL     1      38.279 -14.871  -3.333  1.00  0.00    -0.016 A 
HETATM   14  N   UNL     1      38.072 -13.297  -1.402  1.00  0.00    -0.240 NA
HETATM   15  C   UNL     1      36.919 -14.659  -3.946  1.00  0.00     0.052 C 
HETATM   16  C   UNL     1      39.155 -15.729  -3.908  1.00  0.00     0.012 A 
HETATM   17  C   UNL     1      40.483 -15.970  -3.371  1.00  0.00     0.018 A 
HETATM   18  C   UNL     1      38.943 -12.945  -0.418  1.00  0.00     0.146 A 
ENDBRANCH   8   9
ENDBRANCH   1   8
BRANCH   5  19
HETATM   19  C   UNL     1      42.528 -17.699   2.995  1.00  0.00    -0.024 A 
HETATM   20  C   UNL     1      43.349 -18.587   3.779  1.00  0.00     0.018 A 
HETATM   21  C   UNL     1      43.976 -19.460   2.898  1.00  0.00     0.138 A 
HETATM   22  C   UNL     1      43.640 -18.754   5.145  1.00  0.00     0.017 A 
HETATM   23  N   UNL     1      44.813 -20.469   3.191  1.00  0.00    -0.242 NA
HETATM   24  N   UNL     1      43.616 -19.114   1.631  1.00  0.00    -0.350 N 
HETATM   25  C   UNL     1      45.052 -20.590   4.516  1.00  0.00     0.119 A 
HETATM   26  C   UNL     1      44.512 -19.783   5.508  1.00  0.00     0.020 A 
HETATM   27  H   UNL     1      43.975 -19.576   0.808  1.00  0.00     0.166 HD
HETATM   28  C   UNL     1      42.750 -18.046   1.670  1.00  0.00     0.098 A 
ENDBRANCH   5  19
TORSDOF 3
ENDMDL
MODEL 9
REMARK VINA RESULT:      -8.6      1.644      6.815
REMARK  3 active torsions:
REMARK  status: ('A' for Active; 'I' for Inactive)
REMARK    1  A    between atoms: C_5  and  C_6 
REMARK    2  A    between atoms: C_6  and  N_7 
REMARK    3  A    between atoms: C_11  and  C_12 
ROOT
HETATM    1  N   UNL     1      41.647 -15.361   6.233  1.00  0.00    -0.066 N 
HETATM    2  H   UNL     1      41.719 -15.057   7.211  1.00  0.00     0.280 HD
HETATM    3  C   UNL     1      41.309 -16.836   6.235  1.00  0.00     0.236 C 
HETATM    4  C   UNL     1      42.391 -17.592   6.990  1.00  0.00     0.037 C 
HETATM    5  C   UNL     1      43.781 -17.396   6.365  1.00  0.00     0.024 C 
HETATM    6  C   UNL     1      44.083 -15.894   6.258  1.00  0.00     0.037 C 
HETATM    7  C   UNL     1      42.978 -15.094   5.576  1.00  0.00     0.236 C 
ENDROOT
BRANCH   1   8
HETATM    8  C   UNL     1      40.553 -14.520   5.605  1.00  0.00     0.293 C 
BRANCH   8   9
HETATM    9  C   UNL     1      40.899 -14.018   4.260  1.00  0.00     0.061 A 
HETATM   10  N   UNL     1      40.900 -14.795   3.110  1.00  0.00    -0.307 N 
HETATM   11  C   UNL     1      41.283 -13.955   2.064  1.00  0.00     0.139 A 
HETATM   12  C   UNL     1      40.600 -16.144   2.924  1.00  0.00     0.099 A 
HETATM   13  C   UNL     1      41.360 -14.503   0.737  1.00  0.00    -0.016 A 
HETATM   14  N   UNL     1      41.531 -12.738   2.499  1.00  0.00    -0.240 NA
HETATM   15  C   UNL     1      41.767 -13.675  -0.455  1.00  0.00     0.052 C 
HETATM   16  C   UNL     1      41.061 -15.815   0.580  1.00  0.00     0.012 A 
HETATM   17  C   UNL     1      40.672 -16.667   1.690  1.00  0.00     0.018 A 
HETATM   18  C   UNL     1      41.332 -12.774   3.845  1.00  0.00     0.146 A 
ENDBRANCH   8   9
ENDBRANCH   1   8
BRANCH   5  19
HETATM   19  C   UNL     1      43.943 -18.170   5.074  1.00  0.00    -0.024 A 
HETATM   20  C   UNL     1      44.211 -19.583   4.980  1.00  0.00     0.018 A 
HETATM   21  C   UNL     1      44.277 -19.905   3.630  1.00  0.00     0.138 A 
HETATM   22  C   UNL     1      44.412 -20.638   5.889  1.00  0.00     0.017 A 
HETATM   23  N   UNL     1      44.484 -21.112   3.077  1.00  0.00    -0.242 NA
HETATM   24  N   UNL     1      44.112 -18.758   2.913  1.00  0.00    -0.350 N 
HETATM   25  C   UNL     1      44.662 -22.089   3.993  1.00  0.00     0.119 A 
HETATM   26  C   UNL     1      44.640 -21.914   5.370  1.00  0.00     0.020 A 
HETATM   27  H   UNL     1      44.161 -18.725   1.904  1.00  0.00     0.166 HD
HETATM   28  C   UNL     1      43.920 -17.700   3.769  1.00  0.00     0.098 A 
ENDBRANCH   5  19
TORSDOF 3
ENDMDL
MODEL 10
REMARK VINA RESULT:      -8.4      0.985      1.914
REMARK  3 active torsions:
REMARK  status: ('A' for Active; 'I' for Inactive)
REMARK    1  A    between atoms: C_5  and  C_6 
REMARK    2  A    between atoms: C_6  and  N_7 
REMARK    3  A    between atoms: C_11  and  C_12 
ROOT
HETATM    1  N   UNL     1      43.075 -16.136   6.262  1.00  0.00    -0.066 N 
HETATM    2  H   UNL     1      42.965 -15.792   7.224  1.00  0.00     0.280 HD
HETATM    3  C   UNL     1      43.045 -14.937   5.340  1.00  0.00     0.236 C 
HETATM    4  C   UNL     1      41.732 -14.194   5.534  1.00  0.00     0.037 C 
HETATM    5  C   UNL     1      40.512 -15.083   5.243  1.00  0.00     0.024 C 
HETATM    6  C   UNL     1      40.596 -16.357   6.098  1.00  0.00     0.037 C 
HETATM    7  C   UNL     1      41.934 -17.081   5.986  1.00  0.00     0.236 C 
ENDROOT
BRANCH   1   8
HETATM    8  C   UNL     1      44.405 -16.862   6.220  1.00  0.00     0.293 C 
BRANCH   8   9
HETATM    9  C   UNL     1      44.344 -18.153   5.506  1.00  0.00     0.061 A 
HETATM   10  N   UNL     1      44.148 -18.284   4.138  1.00  0.00    -0.307 N 
HETATM   11  C   UNL     1      44.152 -19.652   3.865  1.00  0.00     0.139 A 
HETATM   12  C   UNL     1      43.971 -17.318   3.149  1.00  0.00     0.099 A 
HETATM   13  C   UNL     1      43.975 -20.081   2.505  1.00  0.00    -0.016 A 
HETATM   14  N   UNL     1      44.316 -20.355   4.966  1.00  0.00    -0.240 NA
HETATM   15  C   UNL     1      43.962 -21.536   2.114  1.00  0.00     0.052 C 
HETATM   16  C   UNL     1      43.808 -19.125   1.560  1.00  0.00     0.012 A 
HETATM   17  C   UNL     1      43.802 -17.707   1.875  1.00  0.00     0.018 A 
HETATM   18  C   UNL     1      44.401 -19.450   5.979  1.00  0.00     0.146 A 
ENDBRANCH   8   9
ENDBRANCH   1   8
BRANCH   5  19
HETATM   19  C   UNL     1      40.320 -15.324   3.761  1.00  0.00    -0.024 A 
HETATM   20  C   UNL     1      39.866 -14.339   2.811  1.00  0.00     0.018 A 
HETATM   21  C   UNL     1      39.834 -14.949   1.563  1.00  0.00     0.138 A 
HETATM   22  C   UNL     1      39.470 -12.990   2.862  1.00  0.00     0.017 A 
HETATM   23  N   UNL     1      39.496 -14.402   0.384  1.00  0.00    -0.242 NA
HETATM   24  N   UNL     1      40.196 -16.253   1.720  1.00  0.00    -0.350 N 
HETATM   25  C   UNL     1      39.132 -13.104   0.489  1.00  0.00     0.119 A 
HETATM   26  C   UNL     1      39.098 -12.371   1.667  1.00  0.00     0.020 A 
HETATM   27  H   UNL     1      40.211 -16.919   0.960  1.00  0.00     0.166 HD
HETATM   28  C   UNL     1      40.483 -16.499   3.042  1.00  0.00     0.098 A 
ENDBRANCH   5  19
TORSDOF 3
ENDMDL
