MODEL 1
REMARK VINA RESULT:      -7.7      0.000      0.000
REMARK  5 active torsions:
REMARK  status: ('A' for Active; 'I' for Inactive)
REMARK    1  A    between atoms: N_2  and  C_4 
REMARK    2  A    between atoms: C_4  and  C_5 
REMARK    3  A    between atoms: C_8  and  C_9 
REMARK    4  A    between atoms: C_9  and  N_10 
REMARK       I    between atoms: N_10  and  C_11 
REMARK       I    between atoms: C_11  and  N_12 
REMARK    5  A    between atoms: N_12  and  C_13 
ROOT
HETATM    1  N   UNL     1      41.640 -16.233   4.455  1.00  0.00    -0.339 N 
HETATM    2  C   UNL     1      42.713 -15.897   5.218  1.00  0.00     0.322 C 
HETATM    3  N   UNL     1      43.723 -16.799   5.326  1.00  0.00    -0.287 N 
HETATM    4  O   UNL     1      42.792 -14.829   5.822  1.00  0.00    -0.247 OA
HETATM    5  H   UNL     1      41.671 -17.131   3.978  1.00  0.00     0.164 HD
HETATM    6  H   UNL     1      44.502 -16.522   5.905  1.00  0.00     0.172 HD
ENDROOT
BRANCH   1   7
HETATM    7  C   UNL     1      40.587 -15.303   4.127  1.00  0.00     0.162 C 
BRANCH   7   8
HETATM    8  C   UNL     1      40.381 -15.091   2.643  1.00  0.00    -0.040 A 
HETATM    9  C   UNL     1      39.334 -14.309   2.142  1.00  0.00     0.009 A 
HETATM   10  C   UNL     1      39.218 -14.051   0.774  1.00  0.00     0.009 A 
HETATM   11  C   UNL     1      40.165 -14.556  -0.127  1.00  0.00    -0.033 A 
HETATM   12  C   UNL     1      41.213 -15.345   0.366  1.00  0.00     0.009 A 
HETATM   13  C   UNL     1      41.319 -15.606   1.736  1.00  0.00     0.009 A 
BRANCH  11  14
HETATM   14  C   UNL     1      40.091 -14.204  -1.587  1.00  0.00     0.272 C 
BRANCH  14  15
HETATM   15  N   UNL     1      39.157 -15.108  -2.363  1.00  0.00    -0.075 N 
HETATM   16  C   UNL     1      39.832 -15.810  -3.509  1.00  0.00     0.269 C 
HETATM   17  H   UNL     1      38.860 -15.841  -1.709  1.00  0.00     0.279 HD
HETATM   18  C   UNL     1      37.924 -14.380  -2.811  1.00  0.00     0.269 C 
ENDBRANCH  14  15
ENDBRANCH  11  14
ENDBRANCH   7   8
ENDBRANCH   1   7
BRANCH   3  19
HETATM   19  C   UNL     1      43.820 -17.986   4.660  1.00  0.00     0.175 A 
HETATM   20  S   UNL     1      44.545 -19.237   5.554  1.00  0.00    -0.050 SA
HETATM   21  C   UNL     1      44.384 -20.283   4.192  1.00  0.00     0.037 A 
HETATM   22  C   UNL     1      43.768 -19.579   3.152  1.00  0.00     0.076 A 
HETATM   23  C   UNL     1      44.777 -21.623   4.055  1.00  0.00     0.021 A 
HETATM   24  N   UNL     1      43.440 -18.260   3.438  1.00  0.00    -0.223 NA
HETATM   25  C   UNL     1      43.541 -20.243   1.930  1.00  0.00     0.033 A 
HETATM   26  C   UNL     1      43.931 -21.579   1.781  1.00  0.00     0.002 A 
HETATM   27  C   UNL     1      44.541 -22.258   2.830  1.00  0.00     0.002 A 
ENDBRANCH   3  19
TORSDOF 5
ENDMDL
MODEL 2
REMARK VINA RESULT:      -7.3      0.742      1.407
REMARK  5 active torsions:
REMARK  status: ('A' for Active; 'I' for Inactive)
REMARK    1  A    between atoms: N_2  and  C_4 
REMARK    2  A    between atoms: C_4  and  C_5 
REMARK    3  A    between atoms: C_8  and  C_9 
REMARK    4  A    between atoms: C_9  and  N_10 
REMARK       I    between atoms: N_10  and  C_11 
REMARK       I    between atoms: C_11  and  N_12 
REMARK    5  A    between atoms: N_12  and  C_13 
ROOT
HETATM    1  N   UNL     1      41.804 -15.889   4.669  1.00  0.00    -0.339 N 
HETATM    2  C   UNL     1      42.874 -15.652   5.473  1.00  0.00     0.322 C 
HETATM    3  N   UNL     1      43.827 -16.615   5.563  1.00  0.00    -0.287 N 
HETATM    4  O   UNL     1      42.998 -14.618   6.128  1.00  0.00    -0.247 OA
HETATM    5  H   UNL     1      41.796 -16.765   4.153  1.00  0.00     0.164 HD
HETATM    6  H   UNL     1      44.605 -16.410   6.172  1.00  0.00     0.172 HD
ENDROOT
BRANCH   1   7
HETATM    7  C   UNL     1      40.815 -14.886   4.361  1.00  0.00     0.162 C 
BRANCH   7   8
HETATM    8  C   UNL     1      40.630 -14.626   2.882  1.00  0.00    -0.040 A 
HETATM    9  C   UNL     1      41.567 -15.046   1.930  1.00  0.00     0.009 A 
HETATM   10  C   UNL     1      41.330 -14.878   0.563  1.00  0.00     0.009 A 
HETATM   11  C   UNL     1      40.134 -14.302   0.115  1.00  0.00    -0.033 A 
HETATM   12  C   UNL     1      39.193 -13.875   1.061  1.00  0.00     0.009 A 
HETATM   13  C   UNL     1      39.440 -14.038   2.428  1.00  0.00     0.009 A 
BRANCH  11  14
HETATM   14  C   UNL     1      39.841 -14.205  -1.356  1.00  0.00     0.272 C 
BRANCH  14  15
HETATM   15  N   UNL     1      40.986 -14.695  -2.218  1.00  0.00    -0.075 N 
HETATM   16  C   UNL     1      41.708 -13.583  -2.928  1.00  0.00     0.269 C 
HETATM   17  H   UNL     1      41.666 -15.118  -1.576  1.00  0.00     0.279 HD
HETATM   18  C   UNL     1      40.544 -15.764  -3.172  1.00  0.00     0.269 C 
ENDBRANCH  14  15
ENDBRANCH  11  14
ENDBRANCH   7   8
ENDBRANCH   1   7
BRANCH   3  19
HETATM   19  C   UNL     1      43.874 -17.774   4.845  1.00  0.00     0.175 A 
HETATM   20  S   UNL     1      44.639 -19.065   5.642  1.00  0.00    -0.050 SA
HETATM   21  C   UNL     1      44.389 -20.053   4.251  1.00  0.00     0.037 A 
HETATM   22  C   UNL     1      43.718 -19.304   3.279  1.00  0.00     0.076 A 
HETATM   23  C   UNL     1      44.761 -21.390   4.036  1.00  0.00     0.021 A 
HETATM   24  N   UNL     1      43.420 -17.995   3.637  1.00  0.00    -0.223 NA
HETATM   25  C   UNL     1      43.413 -19.916   2.046  1.00  0.00     0.033 A 
HETATM   26  C   UNL     1      43.781 -21.246   1.820  1.00  0.00     0.002 A 
HETATM   27  C   UNL     1      44.447 -21.972   2.803  1.00  0.00     0.002 A 
ENDBRANCH   3  19
TORSDOF 5
ENDMDL
MODEL 3
REMARK VINA RESULT:      -7.3      2.151      2.684
REMARK  5 active torsions:
REMARK  status: ('A' for Active; 'I' for Inactive)
REMARK    1  A    between atoms: N_2  and  C_4 
REMARK    2  A    between atoms: C_4  and  C_5 
REMARK    3  A    between atoms: C_8  and  C_9 
REMARK    4  A    between atoms: C_9  and  N_10 
REMARK       I    between atoms: N_10  and  C_11 
REMARK       I    between atoms: C_11  and  N_12 
REMARK    5  A    between atoms: N_12  and  C_13 
ROOT
HETATM    1  N   UNL     1      42.331 -17.435   6.517  1.00  0.00    -0.339 N 
HETATM    2  C   UNL     1      43.227 -17.699   7.505  1.00  0.00     0.322 C 
HETATM    3  N   UNL     1      44.074 -18.746   7.331  1.00  0.00    -0.287 N 
HETATM    4  O   UNL     1      43.284 -17.043   8.543  1.00  0.00    -0.247 OA
HETATM    5  H   UNL     1      42.370 -18.021   5.686  1.00  0.00     0.164 HD
HETATM    6  H   UNL     1      44.723 -18.918   8.084  1.00  0.00     0.172 HD
ENDROOT
BRANCH   1   7
HETATM    7  C   UNL     1      41.496 -16.259   6.507  1.00  0.00     0.162 C 
BRANCH   7   8
HETATM    8  C   UNL     1      40.957 -15.889   5.142  1.00  0.00    -0.040 A 
HETATM    9  C   UNL     1      40.287 -14.682   4.910  1.00  0.00     0.009 A 
HETATM   10  C   UNL     1      39.881 -14.319   3.623  1.00  0.00     0.009 A 
HETATM   11  C   UNL     1      40.156 -15.152   2.531  1.00  0.00    -0.033 A 
HETATM   12  C   UNL     1      40.822 -16.364   2.755  1.00  0.00     0.009 A 
HETATM   13  C   UNL     1      41.219 -16.725   4.047  1.00  0.00     0.009 A 
BRANCH  11  14
HETATM   14  C   UNL     1      39.801 -14.720   1.135  1.00  0.00     0.272 C 
BRANCH  14  15
HETATM   15  N   UNL     1      38.774 -13.607   1.108  1.00  0.00    -0.075 N 
HETATM   16  C   UNL     1      37.387 -14.091   0.788  1.00  0.00     0.269 C 
HETATM   17  H   UNL     1      38.736 -13.230   2.063  1.00  0.00     0.279 HD
HETATM   18  C   UNL     1      39.192 -12.488   0.201  1.00  0.00     0.269 C 
ENDBRANCH  14  15
ENDBRANCH  11  14
ENDBRANCH   7   8
ENDBRANCH   1   7
BRANCH   3  19
HETATM   19  C   UNL     1      44.188 -19.515   6.210  1.00  0.00     0.175 A 
HETATM   20  S   UNL     1      44.258 -21.187   6.507  1.00  0.00    -0.050 SA
HETATM   21  C   UNL     1      44.434 -21.466   4.814  1.00  0.00     0.037 A 
HETATM   22  C   UNL     1      44.413 -20.236   4.149  1.00  0.00     0.076 A 
HETATM   23  C   UNL     1      44.583 -22.681   4.128  1.00  0.00     0.021 A 
HETATM   24  N   UNL     1      44.261 -19.121   4.964  1.00  0.00    -0.223 NA
HETATM   25  C   UNL     1      44.548 -20.224   2.746  1.00  0.00     0.033 A 
HETATM   26  C   UNL     1      44.700 -21.430   2.052  1.00  0.00     0.002 A 
HETATM   27  C   UNL     1      44.717 -22.642   2.736  1.00  0.00     0.002 A 
ENDBRANCH   3  19
TORSDOF 5
ENDMDL
MODEL 4
REMARK VINA RESULT:      -7.1      1.573      2.024
REMARK  5 active torsions:
REMARK  status: ('A' for Active; 'I' for Inactive)
REMARK    1  A    between atoms: N_2  and  C_4 
REMARK    2  A    between atoms: C_4  and  C_5 
REMARK    3  A    between atoms: C_8  and  C_9 
REMARK    4  A    between atoms: C_9  and  N_10 
REMARK       I    between atoms: N_10  and  C_11 
REMARK       I    between atoms: C_11  and  N_12 
REMARK    5  A    between atoms: N_12  and  C_13 
ROOT
HETATM    1  N   UNL     1      40.770 -15.655   3.049  1.00  0.00    -0.339 N 
HETATM    2  C   UNL     1      41.595 -15.099   3.975  1.00  0.00     0.322 C 
HETATM    3  N   UNL     1      42.610 -15.860   4.461  1.00  0.00    -0.287 N 
HETATM    4  O   UNL     1      41.446 -13.953   4.396  1.00  0.00    -0.247 OA
HETATM    5  H   UNL     1      40.983 -16.603   2.747  1.00  0.00     0.164 HD
HETATM    6  H   UNL     1      43.200 -15.420   5.150  1.00  0.00     0.172 HD
ENDROOT
BRANCH   1   7
HETATM    7  C   UNL     1      39.766 -14.902   2.338  1.00  0.00     0.162 C 
BRANCH   7   8
HETATM    8  C   UNL     1      39.977 -14.839   0.840  1.00  0.00    -0.040 A 
HETATM    9  C   UNL     1      39.265 -13.951   0.026  1.00  0.00     0.009 A 
HETATM   10  C   UNL     1      39.543 -13.844  -1.339  1.00  0.00     0.009 A 
HETATM   11  C   UNL     1      40.560 -14.614  -1.919  1.00  0.00    -0.033 A 
HETATM   12  C   UNL     1      41.274 -15.509  -1.112  1.00  0.00     0.009 A 
HETATM   13  C   UNL     1      40.986 -15.617   0.253  1.00  0.00     0.009 A 
BRANCH  11  14
HETATM   14  C   UNL     1      40.920 -14.434  -3.368  1.00  0.00     0.272 C 
BRANCH  14  15
HETATM   15  N   UNL     1      41.781 -13.212  -3.611  1.00  0.00    -0.075 N 
HETATM   16  C   UNL     1      42.725 -12.919  -2.477  1.00  0.00     0.269 C 
HETATM   17  H   UNL     1      42.367 -13.433  -4.425  1.00  0.00     0.279 HD
HETATM   18  C   UNL     1      40.955 -12.012  -3.967  1.00  0.00     0.269 C 
ENDBRANCH  14  15
ENDBRANCH  11  14
ENDBRANCH   7   8
ENDBRANCH   1   7
BRANCH   3  19
HETATM   19  C   UNL     1      42.953 -17.111   4.040  1.00  0.00     0.175 A 
HETATM   20  S   UNL     1      43.952 -17.967   5.117  1.00  0.00    -0.050 SA
HETATM   21  C   UNL     1      44.001 -19.283   4.004  1.00  0.00     0.037 A 
HETATM   22  C   UNL     1      43.225 -18.958   2.886  1.00  0.00     0.076 A 
HETATM   23  C   UNL     1      44.677 -20.509   4.111  1.00  0.00     0.021 A 
HETATM   24  N   UNL     1      42.620 -17.708   2.923  1.00  0.00    -0.223 NA
HETATM   25  C   UNL     1      43.127 -19.895   1.837  1.00  0.00     0.033 A 
HETATM   26  C   UNL     1      43.799 -21.119   1.933  1.00  0.00     0.002 A 
HETATM   27  C   UNL     1      44.563 -21.419   3.055  1.00  0.00     0.002 A 
ENDBRANCH   3  19
TORSDOF 5
ENDMDL
MODEL 5
REMARK VINA RESULT:      -7.1      1.559      2.109
REMARK  5 active torsions:
REMARK  status: ('A' for Active; 'I' for Inactive)
REMARK    1  A    between atoms: N_2  and  C_4 
REMARK    2  A    between atoms: C_4  and  C_5 
REMARK    3  A    between atoms: C_8  and  C_9 
REMARK    4  A    between atoms: C_9  and  N_10 
REMARK       I    between atoms: N_10  and  C_11 
REMARK       I    between atoms: C_11  and  N_12 
REMARK    5  A    between atoms: N_12  and  C_13 
ROOT
HETATM    1  N   UNL     1      41.510 -14.974   3.282  1.00  0.00    -0.339 N 
HETATM    2  C   UNL     1      40.711 -15.266   4.342  1.00  0.00     0.322 C 
HETATM    3  N   UNL     1      40.855 -16.481   4.931  1.00  0.00    -0.287 N 
HETATM    4  O   UNL     1      39.861 -14.486   4.769  1.00  0.00    -0.247 OA
HETATM    5  H   UNL     1      42.197 -15.674   3.011  1.00  0.00     0.164 HD
HETATM    6  H   UNL     1      40.243 -16.669   5.711  1.00  0.00     0.172 HD
ENDROOT
BRANCH   1   7
HETATM    7  C   UNL     1      41.571 -13.665   2.681  1.00  0.00     0.162 C 
BRANCH   7   8
HETATM    8  C   UNL     1      40.924 -13.575   1.315  1.00  0.00    -0.040 A 
HETATM    9  C   UNL     1      41.672 -13.617   0.133  1.00  0.00     0.009 A 
HETATM   10  C   UNL     1      41.047 -13.627  -1.116  1.00  0.00     0.009 A 
HETATM   11  C   UNL     1      39.649 -13.616  -1.210  1.00  0.00    -0.033 A 
HETATM   12  C   UNL     1      38.892 -13.569  -0.032  1.00  0.00     0.009 A 
HETATM   13  C   UNL     1      39.525 -13.551   1.215  1.00  0.00     0.009 A 
BRANCH  11  14
HETATM   14  C   UNL     1      38.976 -13.718  -2.550  1.00  0.00     0.272 C 
BRANCH  14  15
HETATM   15  N   UNL     1      38.566 -15.135  -2.896  1.00  0.00    -0.075 N 
HETATM   16  C   UNL     1      39.622 -15.885  -3.660  1.00  0.00     0.269 C 
HETATM   17  H   UNL     1      38.453 -15.626  -2.001  1.00  0.00     0.279 HD
HETATM   18  C   UNL     1      37.242 -15.174  -3.599  1.00  0.00     0.269 C 
ENDBRANCH  14  15
ENDBRANCH  11  14
ENDBRANCH   7   8
ENDBRANCH   1   7
BRANCH   3  19
HETATM   19  C   UNL     1      41.799 -17.419   4.628  1.00  0.00     0.175 A 
HETATM   20  S   UNL     1      42.714 -17.952   5.957  1.00  0.00    -0.050 SA
HETATM   21  C   UNL     1      43.627 -18.966   4.903  1.00  0.00     0.037 A 
HETATM   22  C   UNL     1      43.141 -18.818   3.600  1.00  0.00     0.076 A 
HETATM   23  C   UNL     1      44.697 -19.824   5.207  1.00  0.00     0.021 A 
HETATM   24  N   UNL     1      42.082 -17.931   3.457  1.00  0.00    -0.223 NA
HETATM   25  C   UNL     1      43.750 -19.556   2.564  1.00  0.00     0.033 A 
HETATM   26  C   UNL     1      44.818 -20.412   2.856  1.00  0.00     0.002 A 
HETATM   27  C   UNL     1      45.284 -20.542   4.160  1.00  0.00     0.002 A 
ENDBRANCH   3  19
TORSDOF 5
ENDMDL
MODEL 6
REMARK VINA RESULT:      -7.1      2.772      7.422
REMARK  5 active torsions:
REMARK  status: ('A' for Active; 'I' for Inactive)
REMARK    1  A    between atoms: N_2  and  C_4 
REMARK    2  A    between atoms: C_4  and  C_5 
REMARK    3  A    between atoms: C_8  and  C_9 
REMARK    4  A    between atoms: C_9  and  N_10 
REMARK       I    between atoms: N_10  and  C_11 
REMARK       I    between atoms: C_11  and  N_12 
REMARK    5  A    between atoms: N_12  and  C_13 
ROOT
HETATM    1  N   UNL     1      40.651 -15.162   3.947  1.00  0.00    -0.339 N 
HETATM    2  C   UNL     1      39.965 -14.021   4.222  1.00  0.00     0.322 C 
HETATM    3  N   UNL     1      39.528 -13.275   3.175  1.00  0.00    -0.287 N 
HETATM    4  O   UNL     1      39.745 -13.637   5.370  1.00  0.00    -0.247 OA
HETATM    5  H   UNL     1      40.769 -15.409   2.968  1.00  0.00     0.164 HD
HETATM    6  H   UNL     1      39.027 -12.432   3.413  1.00  0.00     0.172 HD
ENDROOT
BRANCH   1   7
HETATM    7  C   UNL     1      41.020 -16.121   4.960  1.00  0.00     0.162 C 
BRANCH   7   8
HETATM    8  C   UNL     1      41.891 -17.252   4.460  1.00  0.00    -0.040 A 
HETATM    9  C   UNL     1      42.064 -17.511   3.095  1.00  0.00     0.009 A 
HETATM   10  C   UNL     1      42.946 -18.501   2.654  1.00  0.00     0.009 A 
HETATM   11  C   UNL     1      43.696 -19.244   3.575  1.00  0.00    -0.033 A 
HETATM   12  C   UNL     1      43.525 -18.995   4.944  1.00  0.00     0.009 A 
HETATM   13  C   UNL     1      42.635 -18.008   5.378  1.00  0.00     0.009 A 
BRANCH  11  14
HETATM   14  C   UNL     1      44.711 -20.245   3.099  1.00  0.00     0.272 C 
BRANCH  14  15
HETATM   15  N   UNL     1      44.115 -21.617   2.857  1.00  0.00    -0.075 N 
HETATM   16  C   UNL     1      44.700 -22.680   3.746  1.00  0.00     0.269 C 
HETATM   17  H   UNL     1      43.122 -21.545   3.106  1.00  0.00     0.279 HD
HETATM   18  C   UNL     1      44.187 -22.005   1.410  1.00  0.00     0.269 C 
ENDBRANCH  14  15
ENDBRANCH  11  14
ENDBRANCH   7   8
ENDBRANCH   1   7
BRANCH   3  19
HETATM   19  C   UNL     1      39.622 -13.603   1.855  1.00  0.00     0.175 A 
HETATM   20  S   UNL     1      38.238 -13.238   0.938  1.00  0.00    -0.050 SA
HETATM   21  C   UNL     1      39.000 -13.911  -0.455  1.00  0.00     0.037 A 
HETATM   22  C   UNL     1      40.277 -14.357  -0.099  1.00  0.00     0.076 A 
HETATM   23  C   UNL     1      38.503 -14.038  -1.761  1.00  0.00     0.021 A 
HETATM   24  N   UNL     1      40.626 -14.166   1.231  1.00  0.00    -0.223 NA
HETATM   25  C   UNL     1      41.084 -14.954  -1.090  1.00  0.00     0.033 A 
HETATM   26  C   UNL     1      40.597 -15.087  -2.395  1.00  0.00     0.002 A 
HETATM   27  C   UNL     1      39.323 -14.635  -2.724  1.00  0.00     0.002 A 
ENDBRANCH   3  19
TORSDOF 5
ENDMDL
MODEL 7
REMARK VINA RESULT:      -7.0      5.347      8.289
REMARK  5 active torsions:
REMARK  status: ('A' for Active; 'I' for Inactive)
REMARK    1  A    between atoms: N_2  and  C_4 
REMARK    2  A    between atoms: C_4  and  C_5 
REMARK    3  A    between atoms: C_8  and  C_9 
REMARK    4  A    between atoms: C_9  and  N_10 
REMARK       I    between atoms: N_10  and  C_11 
REMARK       I    between atoms: C_11  and  N_12 
REMARK    5  A    between atoms: N_12  and  C_13 
ROOT
HETATM    1  N   UNL     1      44.089 -14.163   7.812  1.00  0.00    -0.339 N 
HETATM    2  C   UNL     1      45.139 -13.326   7.604  1.00  0.00     0.322 C 
HETATM    3  N   UNL     1      45.170 -12.160   8.299  1.00  0.00    -0.287 N 
HETATM    4  O   UNL     1      46.041 -13.575   6.806  1.00  0.00    -0.247 OA
HETATM    5  H   UNL     1      43.400 -13.881   8.505  1.00  0.00     0.164 HD
HETATM    6  H   UNL     1      45.959 -11.558   8.118  1.00  0.00     0.172 HD
ENDROOT
BRANCH   1   7
HETATM    7  C   UNL     1      44.027 -15.496   7.264  1.00  0.00     0.162 C 
BRANCH   7   8
HETATM    8  C   UNL     1      43.089 -15.643   6.085  1.00  0.00    -0.040 A 
HETATM    9  C   UNL     1      43.264 -14.917   4.901  1.00  0.00     0.009 A 
HETATM   10  C   UNL     1      42.442 -15.137   3.793  1.00  0.00     0.009 A 
HETATM   11  C   UNL     1      41.435 -16.110   3.838  1.00  0.00    -0.033 A 
HETATM   12  C   UNL     1      41.251 -16.838   5.021  1.00  0.00     0.009 A 
HETATM   13  C   UNL     1      42.071 -16.607   6.129  1.00  0.00     0.009 A 
BRANCH  11  14
HETATM   14  C   UNL     1      40.612 -16.410   2.616  1.00  0.00     0.272 C 
BRANCH  14  15
HETATM   15  N   UNL     1      41.099 -15.677   1.384  1.00  0.00    -0.075 N 
HETATM   16  C   UNL     1      40.079 -14.725   0.822  1.00  0.00     0.269 C 
HETATM   17  H   UNL     1      41.894 -15.103   1.689  1.00  0.00     0.279 HD
HETATM   18  C   UNL     1      41.605 -16.625   0.338  1.00  0.00     0.269 C 
ENDBRANCH  14  15
ENDBRANCH  11  14
ENDBRANCH   7   8
ENDBRANCH   1   7
BRANCH   3  19
HETATM   19  C   UNL     1      44.293 -11.777   9.272  1.00  0.00     0.175 A 
HETATM   20  S   UNL     1      44.832 -12.065  10.858  1.00  0.00    -0.050 SA
HETATM   21  C   UNL     1      43.341 -11.444  11.462  1.00  0.00     0.037 A 
HETATM   22  C   UNL     1      42.544 -11.050  10.381  1.00  0.00     0.076 A 
HETATM   23  C   UNL     1      42.907 -11.319  12.791  1.00  0.00     0.021 A 
HETATM   24  N   UNL     1      43.108 -11.239   9.126  1.00  0.00    -0.223 NA
HETATM   25  C   UNL     1      41.267 -10.514  10.644  1.00  0.00     0.033 A 
HETATM   26  C   UNL     1      40.825 -10.387  11.965  1.00  0.00     0.002 A 
HETATM   27  C   UNL     1      41.635 -10.785  13.023  1.00  0.00     0.002 A 
ENDBRANCH   3  19
TORSDOF 5
ENDMDL
MODEL 8
REMARK VINA RESULT:      -6.8      1.716      2.154
REMARK  5 active torsions:
REMARK  status: ('A' for Active; 'I' for Inactive)
REMARK    1  A    between atoms: N_2  and  C_4 
REMARK    2  A    between atoms: C_4  and  C_5 
REMARK    3  A    between atoms: C_8  and  C_9 
REMARK    4  A    between atoms: C_9  and  N_10 
REMARK       I    between atoms: N_10  and  C_11 
REMARK       I    between atoms: C_11  and  N_12 
REMARK    5  A    between atoms: N_12  and  C_13 
ROOT
HETATM    1  N   UNL     1      43.337 -15.264   3.891  1.00  0.00    -0.339 N 
HETATM    2  C   UNL     1      43.402 -15.477   5.232  1.00  0.00     0.322 C 
HETATM    3  N   UNL     1      43.488 -16.760   5.669  1.00  0.00    -0.287 N 
HETATM    4  O   UNL     1      43.367 -14.561   6.053  1.00  0.00    -0.247 OA
HETATM    5  H   UNL     1      43.390 -16.081   3.288  1.00  0.00     0.164 HD
HETATM    6  H   UNL     1      43.528 -16.883   6.669  1.00  0.00     0.172 HD
ENDROOT
BRANCH   1   7
HETATM    7  C   UNL     1      43.412 -13.951   3.299  1.00  0.00     0.162 C 
BRANCH   7   8
HETATM    8  C   UNL     1      42.427 -13.717   2.173  1.00  0.00    -0.040 A 
HETATM    9  C   UNL     1      42.046 -14.739   1.295  1.00  0.00     0.009 A 
HETATM   10  C   UNL     1      41.067 -14.524   0.322  1.00  0.00     0.009 A 
HETATM   11  C   UNL     1      40.428 -13.282   0.220  1.00  0.00    -0.033 A 
HETATM   12  C   UNL     1      40.807 -12.252   1.092  1.00  0.00     0.009 A 
HETATM   13  C   UNL     1      41.794 -12.471   2.058  1.00  0.00     0.009 A 
BRANCH  11  14
HETATM   14  C   UNL     1      39.311 -13.078  -0.766  1.00  0.00     0.272 C 
BRANCH  14  15
HETATM   15  N   UNL     1      38.037 -12.580  -0.116  1.00  0.00    -0.075 N 
HETATM   16  C   UNL     1      37.311 -13.647   0.655  1.00  0.00     0.269 C 
HETATM   17  H   UNL     1      38.324 -11.872   0.570  1.00  0.00     0.279 HD
HETATM   18  C   UNL     1      37.136 -11.905  -1.107  1.00  0.00     0.269 C 
ENDBRANCH  14  15
ENDBRANCH  11  14
ENDBRANCH   7   8
ENDBRANCH   1   7
BRANCH   3  19
HETATM   19  C   UNL     1      43.615 -17.871   4.888  1.00  0.00     0.175 A 
HETATM   20  S   UNL     1      44.664 -19.054   5.513  1.00  0.00    -0.050 SA
HETATM   21  C   UNL     1      44.387 -20.019   4.111  1.00  0.00     0.037 A 
HETATM   22  C   UNL     1      43.489 -19.351   3.272  1.00  0.00     0.076 A 
HETATM   23  C   UNL     1      44.926 -21.272   3.779  1.00  0.00     0.021 A 
HETATM   24  N   UNL     1      43.046 -18.119   3.735  1.00  0.00    -0.223 NA
HETATM   25  C   UNL     1      43.121 -19.960   2.055  1.00  0.00     0.033 A 
HETATM   26  C   UNL     1      43.655 -21.207   1.713  1.00  0.00     0.002 A 
HETATM   27  C   UNL     1      44.545 -21.853   2.565  1.00  0.00     0.002 A 
ENDBRANCH   3  19
TORSDOF 5
ENDMDL
MODEL 9
REMARK VINA RESULT:      -6.7      5.799      9.942
REMARK  5 active torsions:
REMARK  status: ('A' for Active; 'I' for Inactive)
REMARK    1  A    between atoms: N_2  and  C_4 
REMARK    2  A    between atoms: C_4  and  C_5 
REMARK    3  A    between atoms: C_8  and  C_9 
REMARK    4  A    between atoms: C_9  and  N_10 
REMARK       I    between atoms: N_10  and  C_11 
REMARK       I    between atoms: C_11  and  N_12 
REMARK    5  A    between atoms: N_12  and  C_13 
ROOT
HETATM    1  N   UNL     1      41.815 -12.451   6.571  1.00  0.00    -0.339 N 
HETATM    2  C   UNL     1      40.761 -11.603   6.432  1.00  0.00     0.322 C 
HETATM    3  N   UNL     1      40.415 -10.839   7.500  1.00  0.00    -0.287 N 
HETATM    4  O   UNL     1      40.109 -11.519   5.393  1.00  0.00    -0.247 OA
HETATM    5  H   UNL     1      42.306 -12.439   7.462  1.00  0.00     0.164 HD
HETATM    6  H   UNL     1      39.625 -10.226   7.366  1.00  0.00     0.172 HD
ENDROOT
BRANCH   1   7
HETATM    7  C   UNL     1      42.382 -13.186   5.468  1.00  0.00     0.162 C 
BRANCH   7   8
HETATM    8  C   UNL     1      42.792 -14.603   5.808  1.00  0.00    -0.040 A 
HETATM    9  C   UNL     1      42.086 -15.715   5.334  1.00  0.00     0.009 A 
HETATM   10  C   UNL     1      42.536 -17.014   5.583  1.00  0.00     0.009 A 
HETATM   11  C   UNL     1      43.721 -17.230   6.299  1.00  0.00    -0.033 A 
HETATM   12  C   UNL     1      44.431 -16.122   6.781  1.00  0.00     0.009 A 
HETATM   13  C   UNL     1      43.971 -14.825   6.535  1.00  0.00     0.009 A 
BRANCH  11  14
HETATM   14  C   UNL     1      44.253 -18.623   6.489  1.00  0.00     0.272 C 
BRANCH  14  15
HETATM   15  N   UNL     1      43.665 -19.317   7.699  1.00  0.00    -0.075 N 
HETATM   16  C   UNL     1      44.396 -19.000   8.975  1.00  0.00     0.269 C 
HETATM   17  H   UNL     1      42.715 -18.944   7.809  1.00  0.00     0.279 HD
HETATM   18  C   UNL     1      43.543 -20.797   7.486  1.00  0.00     0.269 C 
ENDBRANCH  14  15
ENDBRANCH  11  14
ENDBRANCH   7   8
ENDBRANCH   1   7
BRANCH   3  19
HETATM   19  C   UNL     1      41.082 -10.761   8.687  1.00  0.00     0.175 A 
HETATM   20  S   UNL     1      40.108 -10.994  10.060  1.00  0.00    -0.050 SA
HETATM   21  C   UNL     1      41.484 -10.725  11.064  1.00  0.00     0.037 A 
HETATM   22  C   UNL     1      42.597 -10.487  10.251  1.00  0.00     0.076 A 
HETATM   23  C   UNL     1      41.570 -10.723  12.465  1.00  0.00     0.021 A 
HETATM   24  N   UNL     1      42.354 -10.519   8.884  1.00  0.00    -0.223 NA
HETATM   25  C   UNL     1      43.840 -10.234  10.866  1.00  0.00     0.033 A 
HETATM   26  C   UNL     1      43.936 -10.227  12.262  1.00  0.00     0.002 A 
HETATM   27  C   UNL     1      42.815 -10.467  13.049  1.00  0.00     0.002 A 
ENDBRANCH   3  19
TORSDOF 5
ENDMDL
MODEL 10
REMARK VINA RESULT:      -6.7      6.060      9.827
REMARK  5 active torsions:
REMARK  status: ('A' for Active; 'I' for Inactive)
REMARK    1  A    between atoms: N_2  and  C_4 
REMARK    2  A    between atoms: C_4  and  C_5 
REMARK    3  A    between atoms: C_8  and  C_9 
REMARK    4  A    between atoms: C_9  and  N_10 
REMARK       I    between atoms: N_10  and  C_11 
REMARK       I    between atoms: C_11  and  N_12 
REMARK    5  A    between atoms: N_12  and  C_13 
ROOT
HETATM    1  N   UNL     1      43.292 -12.476   7.673  1.00  0.00    -0.339 N 
HETATM    2  C   UNL     1      42.220 -11.814   7.164  1.00  0.00     0.322 C 
HETATM    3  N   UNL     1      41.470 -11.067   8.016  1.00  0.00    -0.287 N 
HETATM    4  O   UNL     1      41.898 -11.880   5.979  1.00  0.00    -0.247 OA
HETATM    5  H   UNL     1      43.491 -12.346   8.662  1.00  0.00     0.164 HD
HETATM    6  H   UNL     1      40.679 -10.593   7.608  1.00  0.00     0.172 HD
ENDROOT
BRANCH   1   7
HETATM    7  C   UNL     1      44.257 -13.161   6.849  1.00  0.00     0.162 C 
BRANCH   7   8
HETATM    8  C   UNL     1      43.847 -14.560   6.442  1.00  0.00    -0.040 A 
HETATM    9  C   UNL     1      43.412 -14.860   5.146  1.00  0.00     0.009 A 
HETATM   10  C   UNL     1      43.129 -16.175   4.766  1.00  0.00     0.009 A 
HETATM   11  C   UNL     1      43.297 -17.227   5.676  1.00  0.00    -0.033 A 
HETATM   12  C   UNL     1      43.728 -16.935   6.977  1.00  0.00     0.009 A 
HETATM   13  C   UNL     1      44.002 -15.616   7.352  1.00  0.00     0.009 A 
BRANCH  11  14
HETATM   14  C   UNL     1      43.080 -18.650   5.241  1.00  0.00     0.272 C 
BRANCH  14  15
HETATM   15  N   UNL     1      44.125 -19.130   4.256  1.00  0.00    -0.075 N 
HETATM   16  C   UNL     1      43.574 -19.358   2.875  1.00  0.00     0.269 C 
HETATM   17  H   UNL     1      44.810 -18.369   4.173  1.00  0.00     0.279 HD
HETATM   18  C   UNL     1      44.856 -20.337   4.765  1.00  0.00     0.269 C 
ENDBRANCH  14  15
ENDBRANCH  11  14
ENDBRANCH   7   8
ENDBRANCH   1   7
BRANCH   3  19
HETATM   19  C   UNL     1      41.740 -10.830   9.332  1.00  0.00     0.175 A 
HETATM   20  S   UNL     1      40.398 -10.985  10.365  1.00  0.00    -0.050 SA
HETATM   21  C   UNL     1      41.392 -10.535  11.700  1.00  0.00     0.037 A 
HETATM   22  C   UNL     1      42.693 -10.310  11.239  1.00  0.00     0.076 A 
HETATM   23  C   UNL     1      41.044 -10.387  13.052  1.00  0.00     0.021 A 
HETATM   24  N   UNL     1      42.882 -10.493   9.875  1.00  0.00    -0.223 NA
HETATM   25  C   UNL     1      43.681  -9.922  12.168  1.00  0.00     0.033 A 
HETATM   26  C   UNL     1      43.344  -9.770  13.517  1.00  0.00     0.002 A 
HETATM   27  C   UNL     1      42.043 -10.000  13.952  1.00  0.00     0.002 A 
ENDBRANCH   3  19
TORSDOF 5
ENDMDL
