MODEL 1
REMARK VINA RESULT:      -9.4      0.000      0.000
REMARK  3 active torsions:
REMARK  status: ('A' for Active; 'I' for Inactive)
REMARK    1  A    between atoms: C_2  and  C_3 
REMARK    2  A    between atoms: C_6  and  N_7 
REMARK    3  A    between atoms: C_14  and  C_15 
REMARK       I    between atoms: C_15  and  N_16 
ROOT
HETATM    1  N   UNL     1      41.299 -16.012   2.316  1.00  0.00    -0.252 N 
HETATM    2  C   UNL     1      40.652 -15.333   3.316  1.00  0.00     0.238 C 
HETATM    3  O   UNL     1      40.733 -15.441   4.531  1.00  0.00    -0.272 OA
HETATM    4  C   UNL     1      39.880 -14.201   2.716  1.00  0.00     0.135 C 
HETATM    5  C   UNL     1      39.909 -14.454   1.219  1.00  0.00     0.130 C 
HETATM    6  C   UNL     1      40.941 -15.543   1.066  1.00  0.00     0.238 C 
HETATM    7  O   UNL     1      41.211 -16.029  -0.020  1.00  0.00    -0.272 OA
HETATM    8  C   UNL     1      40.575 -12.869   2.939  1.00  0.00     0.298 C 
HETATM    9  N   UNL     1      40.156 -12.084   1.686  1.00  0.00    -0.028 N 
HETATM   10  H   UNL     1      39.190 -11.761   1.834  1.00  0.00     0.287 HD
HETATM   11  C   UNL     1      40.081 -13.092   0.518  1.00  0.00     0.242 C 
HETATM   12  C   UNL     1      40.964 -10.916   1.490  1.00  0.00     0.203 C 
HETATM   13  C   UNL     1      41.786 -10.795   0.446  1.00  0.00     0.037 C 
HETATM   14  C   UNL     1      41.914 -11.799  -0.603  1.00  0.00    -0.026 A 
HETATM   15  C   UNL     1      41.065 -12.911  -0.601  1.00  0.00    -0.016 A 
HETATM   16  C   UNL     1      42.841 -11.613  -1.637  1.00  0.00     0.012 A 
HETATM   17  C   UNL     1      42.902 -12.516  -2.696  1.00  0.00     0.001 A 
HETATM   18  C   UNL     1      42.014 -13.582  -2.743  1.00  0.00     0.001 A 
HETATM   19  C   UNL     1      41.087 -13.764  -1.716  1.00  0.00     0.010 A 
ENDROOT
BRANCH   1  20
HETATM   20  C   UNL     1      42.183 -17.115   2.521  1.00  0.00     0.045 A 
HETATM   21  C   UNL     1      43.191 -17.078   3.499  1.00  0.00     0.031 A 
HETATM   22  C   UNL     1      44.004 -18.195   3.751  1.00  0.00     0.017 A 
HETATM   23  C   UNL     1      43.834 -19.367   3.014  1.00  0.00     0.009 A 
HETATM   24  C   UNL     1      42.880 -19.398   1.996  1.00  0.00     0.017 A 
HETATM   25  C   UNL     1      42.061 -18.289   1.760  1.00  0.00     0.031 A 
BRANCH  23  26
HETATM   26  C   UNL     1      44.631 -20.597   3.263  1.00  0.00     0.155 C 
HETATM   27  C   UNL     1      44.465 -21.786   2.353  1.00  0.00     0.096 C 
HETATM   28  O   UNL     1      45.454 -20.599   4.175  1.00  0.00    -0.293 OA
ENDBRANCH  23  26
ENDBRANCH   1  20
BRANCH   8  29
HETATM   29  C   UNL     1      42.100 -13.011   3.145  1.00  0.00     0.248 C 
HETATM   30  N   UNL     1      42.565 -12.877   4.418  1.00  0.00    -0.368 N 
HETATM   31  H   UNL     1      42.000 -13.126   5.226  1.00  0.00     0.159 HD
HETATM   32  H   UNL     1      43.557 -13.072   4.543  1.00  0.00     0.159 HD
HETATM   33  O   UNL     1      42.858 -13.275   2.218  1.00  0.00    -0.271 OA
ENDBRANCH   8  29
TORSDOF 3
ENDMDL
MODEL 2
REMARK VINA RESULT:      -9.1      3.698      7.184
REMARK  3 active torsions:
REMARK  status: ('A' for Active; 'I' for Inactive)
REMARK    1  A    between atoms: C_2  and  C_3 
REMARK    2  A    between atoms: C_6  and  N_7 
REMARK    3  A    between atoms: C_14  and  C_15 
REMARK       I    between atoms: C_15  and  N_16 
ROOT
HETATM    1  N   UNL     1      42.159 -14.368   5.874  1.00  0.00    -0.252 N 
HETATM    2  C   UNL     1      41.242 -13.876   4.980  1.00  0.00     0.238 C 
HETATM    3  O   UNL     1      41.024 -12.730   4.616  1.00  0.00    -0.272 OA
HETATM    4  C   UNL     1      40.575 -15.021   4.287  1.00  0.00     0.135 C 
HETATM    5  C   UNL     1      40.992 -16.253   5.070  1.00  0.00     0.130 C 
HETATM    6  C   UNL     1      42.096 -15.746   5.963  1.00  0.00     0.238 C 
HETATM    7  O   UNL     1      42.658 -16.469   6.770  1.00  0.00    -0.272 OA
HETATM    8  C   UNL     1      41.108 -15.208   2.876  1.00  0.00     0.298 C 
HETATM    9  N   UNL     1      40.967 -16.727   2.688  1.00  0.00    -0.028 N 
HETATM   10  H   UNL     1      39.976 -16.922   2.487  1.00  0.00     0.287 HD
HETATM   11  C   UNL     1      41.248 -17.386   4.056  1.00  0.00     0.242 C 
HETATM   12  C   UNL     1      41.724 -17.200   1.566  1.00  0.00     0.203 C 
HETATM   13  C   UNL     1      42.771 -18.014   1.716  1.00  0.00     0.037 C 
HETATM   14  C   UNL     1      43.219 -18.526   3.004  1.00  0.00    -0.026 A 
HETATM   15  C   UNL     1      42.467 -18.258   4.153  1.00  0.00    -0.016 A 
HETATM   16  C   UNL     1      44.361 -19.335   3.075  1.00  0.00     0.012 A 
HETATM   17  C   UNL     1      44.740 -19.911   4.285  1.00  0.00     0.001 A 
HETATM   18  C   UNL     1      43.960 -19.712   5.416  1.00  0.00     0.001 A 
HETATM   19  C   UNL     1      42.820 -18.911   5.345  1.00  0.00     0.010 A 
ENDROOT
BRANCH   1  20
HETATM   20  C   UNL     1      43.031 -13.565   6.670  1.00  0.00     0.045 A 
HETATM   21  C   UNL     1      42.581 -12.395   7.304  1.00  0.00     0.031 A 
HETATM   22  C   UNL     1      43.422 -11.654   8.150  1.00  0.00     0.017 A 
HETATM   23  C   UNL     1      44.738 -12.063   8.364  1.00  0.00     0.009 A 
HETATM   24  C   UNL     1      45.220 -13.187   7.691  1.00  0.00     0.017 A 
HETATM   25  C   UNL     1      44.373 -13.931   6.862  1.00  0.00     0.031 A 
BRANCH  23  26
HETATM   26  C   UNL     1      45.663 -11.348   9.282  1.00  0.00     0.155 C 
HETATM   27  C   UNL     1      45.430 -11.412  10.769  1.00  0.00     0.096 C 
HETATM   28  O   UNL     1      46.637 -10.764   8.812  1.00  0.00    -0.293 OA
ENDBRANCH  23  26
ENDBRANCH   1  20
BRANCH   8  29
HETATM   29  C   UNL     1      42.540 -14.655   2.694  1.00  0.00     0.248 C 
HETATM   30  N   UNL     1      42.660 -13.455   2.061  1.00  0.00    -0.368 N 
HETATM   31  H   UNL     1      41.930 -12.748   2.106  1.00  0.00     0.159 HD
HETATM   32  H   UNL     1      43.601 -13.065   2.040  1.00  0.00     0.159 HD
HETATM   33  O   UNL     1      43.523 -15.240   3.134  1.00  0.00    -0.271 OA
ENDBRANCH   8  29
TORSDOF 3
ENDMDL
MODEL 3
REMARK VINA RESULT:      -8.9      1.929      4.320
REMARK  3 active torsions:
REMARK  status: ('A' for Active; 'I' for Inactive)
REMARK    1  A    between atoms: C_2  and  C_3 
REMARK    2  A    between atoms: C_6  and  N_7 
REMARK    3  A    between atoms: C_14  and  C_15 
REMARK       I    between atoms: C_15  and  N_16 
ROOT
HETATM    1  N   UNL     1      42.329 -15.047   1.843  1.00  0.00    -0.252 N 
HETATM    2  C   UNL     1      41.693 -14.707   0.676  1.00  0.00     0.238 C 
HETATM    3  O   UNL     1      41.313 -15.404  -0.254  1.00  0.00    -0.272 OA
HETATM    4  C   UNL     1      41.309 -13.263   0.733  1.00  0.00     0.135 C 
HETATM    5  C   UNL     1      42.040 -12.708   1.943  1.00  0.00     0.130 C 
HETATM    6  C   UNL     1      42.544 -13.943   2.647  1.00  0.00     0.238 C 
HETATM    7  O   UNL     1      43.215 -13.879   3.663  1.00  0.00    -0.272 OA
HETATM    8  C   UNL     1      39.826 -13.088   1.011  1.00  0.00     0.298 C 
HETATM    9  N   UNL     1      39.808 -11.764   1.792  1.00  0.00    -0.028 N 
HETATM   10  H   UNL     1      39.909 -11.001   1.107  1.00  0.00     0.287 HD
HETATM   11  C   UNL     1      41.090 -11.722   2.652  1.00  0.00     0.242 C 
HETATM   12  C   UNL     1      38.560 -11.558   2.468  1.00  0.00     0.203 C 
HETATM   13  C   UNL     1      38.475 -11.544   3.800  1.00  0.00     0.037 C 
HETATM   14  C   UNL     1      39.622 -11.694   4.685  1.00  0.00    -0.026 A 
HETATM   15  C   UNL     1      40.911 -11.747   4.142  1.00  0.00    -0.016 A 
HETATM   16  C   UNL     1      39.435 -11.719   6.073  1.00  0.00     0.012 A 
HETATM   17  C   UNL     1      40.532 -11.761   6.930  1.00  0.00     0.001 A 
HETATM   18  C   UNL     1      41.817 -11.740   6.404  1.00  0.00     0.001 A 
HETATM   19  C   UNL     1      42.004 -11.709   5.022  1.00  0.00     0.010 A 
ENDROOT
BRANCH   1  20
HETATM   20  C   UNL     1      42.781 -16.361   2.170  1.00  0.00     0.045 A 
HETATM   21  C   UNL     1      42.151 -17.131   3.162  1.00  0.00     0.031 A 
HETATM   22  C   UNL     1      42.548 -18.452   3.423  1.00  0.00     0.017 A 
HETATM   23  C   UNL     1      43.598 -19.023   2.704  1.00  0.00     0.009 A 
HETATM   24  C   UNL     1      44.275 -18.251   1.759  1.00  0.00     0.017 A 
HETATM   25  C   UNL     1      43.865 -16.941   1.491  1.00  0.00     0.031 A 
BRANCH  23  26
HETATM   26  C   UNL     1      44.036 -20.430   2.900  1.00  0.00     0.155 C 
HETATM   27  C   UNL     1      43.757 -21.452   1.829  1.00  0.00     0.096 C 
HETATM   28  O   UNL     1      44.670 -20.721   3.912  1.00  0.00    -0.293 OA
ENDBRANCH  23  26
ENDBRANCH   1  20
BRANCH   8  29
HETATM   29  C   UNL     1      39.205 -14.294   1.751  1.00  0.00     0.248 C 
HETATM   30  N   UNL     1      38.319 -15.056   1.052  1.00  0.00    -0.368 N 
HETATM   31  H   UNL     1      38.378 -15.159   0.041  1.00  0.00     0.159 HD
HETATM   32  H   UNL     1      37.999 -15.900   1.526  1.00  0.00     0.159 HD
HETATM   33  O   UNL     1      39.521 -14.585   2.899  1.00  0.00    -0.271 OA
ENDBRANCH   8  29
TORSDOF 3
ENDMDL
MODEL 4
REMARK VINA RESULT:      -8.9      2.743      7.138
REMARK  3 active torsions:
REMARK  status: ('A' for Active; 'I' for Inactive)
REMARK    1  A    between atoms: C_2  and  C_3 
REMARK    2  A    between atoms: C_6  and  N_7 
REMARK    3  A    between atoms: C_14  and  C_15 
REMARK       I    between atoms: C_15  and  N_16 
ROOT
HETATM    1  N   UNL     1      41.106 -13.004   2.734  1.00  0.00    -0.252 N 
HETATM    2  C   UNL     1      41.371 -12.477   3.972  1.00  0.00     0.238 C 
HETATM    3  O   UNL     1      40.702 -11.738   4.681  1.00  0.00    -0.272 OA
HETATM    4  C   UNL     1      42.620 -13.100   4.510  1.00  0.00     0.135 C 
HETATM    5  C   UNL     1      43.226 -13.845   3.335  1.00  0.00     0.130 C 
HETATM    6  C   UNL     1      42.125 -13.833   2.303  1.00  0.00     0.238 C 
HETATM    7  O   UNL     1      42.271 -14.325   1.197  1.00  0.00    -0.272 OA
HETATM    8  C   UNL     1      42.313 -14.145   5.569  1.00  0.00     0.298 C 
HETATM    9  N   UNL     1      43.474 -15.133   5.378  1.00  0.00    -0.028 N 
HETATM   10  H   UNL     1      44.305 -14.723   5.828  1.00  0.00     0.287 HD
HETATM   11  C   UNL     1      43.799 -15.173   3.869  1.00  0.00     0.242 C 
HETATM   12  C   UNL     1      43.223 -16.387   6.027  1.00  0.00     0.203 C 
HETATM   13  C   UNL     1      43.060 -17.517   5.336  1.00  0.00     0.037 C 
HETATM   14  C   UNL     1      43.160 -17.599   3.884  1.00  0.00    -0.026 A 
HETATM   15  C   UNL     1      43.553 -16.471   3.155  1.00  0.00    -0.016 A 
HETATM   16  C   UNL     1      42.924 -18.817   3.236  1.00  0.00     0.012 A 
HETATM   17  C   UNL     1      43.113 -18.931   1.861  1.00  0.00     0.001 A 
HETATM   18  C   UNL     1      43.574 -17.838   1.138  1.00  0.00     0.001 A 
HETATM   19  C   UNL     1      43.815 -16.625   1.784  1.00  0.00     0.010 A 
ENDROOT
BRANCH   1  20
HETATM   20  C   UNL     1      39.957 -12.692   1.946  1.00  0.00     0.045 A 
HETATM   21  C   UNL     1      38.900 -13.604   1.791  1.00  0.00     0.031 A 
HETATM   22  C   UNL     1      37.738 -13.261   1.082  1.00  0.00     0.017 A 
HETATM   23  C   UNL     1      37.619 -12.000   0.498  1.00  0.00     0.009 A 
HETATM   24  C   UNL     1      38.686 -11.105   0.588  1.00  0.00     0.017 A 
HETATM   25  C   UNL     1      39.835 -11.446   1.310  1.00  0.00     0.031 A 
BRANCH  23  26
HETATM   26  C   UNL     1      36.398 -11.560  -0.226  1.00  0.00     0.155 C 
HETATM   27  C   UNL     1      35.188 -11.121   0.557  1.00  0.00     0.096 C 
HETATM   28  O   UNL     1      36.418 -11.509  -1.454  1.00  0.00    -0.293 OA
ENDBRANCH  23  26
ENDBRANCH   1  20
BRANCH   8  29
HETATM   29  C   UNL     1      40.901 -14.756   5.422  1.00  0.00     0.248 C 
HETATM   30  N   UNL     1      39.972 -14.390   6.348  1.00  0.00    -0.368 N 
HETATM   31  H   UNL     1      40.000 -13.483   6.808  1.00  0.00     0.159 HD
HETATM   32  H   UNL     1      39.026 -14.727   6.174  1.00  0.00     0.159 HD
HETATM   33  O   UNL     1      40.610 -15.502   4.494  1.00  0.00    -0.271 OA
ENDBRANCH   8  29
TORSDOF 3
ENDMDL
MODEL 5
REMARK VINA RESULT:      -8.7      1.249      1.464
REMARK  3 active torsions:
REMARK  status: ('A' for Active; 'I' for Inactive)
REMARK    1  A    between atoms: C_2  and  C_3 
REMARK    2  A    between atoms: C_6  and  N_7 
REMARK    3  A    between atoms: C_14  and  C_15 
REMARK       I    between atoms: C_15  and  N_16 
ROOT
HETATM    1  N   UNL     1      40.823 -15.624   2.829  1.00  0.00    -0.252 N 
HETATM    2  C   UNL     1      40.239 -14.649   3.597  1.00  0.00     0.238 C 
HETATM    3  O   UNL     1      40.399 -14.362   4.775  1.00  0.00    -0.272 OA
HETATM    4  C   UNL     1      39.422 -13.759   2.715  1.00  0.00     0.135 C 
HETATM    5  C   UNL     1      39.355 -14.480   1.381  1.00  0.00     0.130 C 
HETATM    6  C   UNL     1      40.382 -15.576   1.521  1.00  0.00     0.238 C 
HETATM    7  O   UNL     1      40.583 -16.389   0.634  1.00  0.00    -0.272 OA
HETATM    8  C   UNL     1      40.121 -12.436   2.453  1.00  0.00     0.298 C 
HETATM    9  N   UNL     1      39.617 -12.089   1.044  1.00  0.00    -0.028 N 
HETATM   10  H   UNL     1      38.660 -11.721   1.141  1.00  0.00     0.287 HD
HETATM   11  C   UNL     1      39.472 -13.418   0.269  1.00  0.00     0.242 C 
HETATM   12  C   UNL     1      40.403 -11.058   0.432  1.00  0.00     0.203 C 
HETATM   13  C   UNL     1      41.155 -11.292  -0.646  1.00  0.00     0.037 C 
HETATM   14  C   UNL     1      41.220 -12.581  -1.322  1.00  0.00    -0.026 A 
HETATM   15  C   UNL     1      40.380 -13.621  -0.909  1.00  0.00    -0.016 A 
HETATM   16  C   UNL     1      42.076 -12.752  -2.418  1.00  0.00     0.012 A 
HETATM   17  C   UNL     1      42.074 -13.948  -3.132  1.00  0.00     0.001 A 
HETATM   18  C   UNL     1      41.191 -14.959  -2.777  1.00  0.00     0.001 A 
HETATM   19  C   UNL     1      40.334 -14.787  -1.689  1.00  0.00     0.010 A 
ENDROOT
BRANCH   1  20
HETATM   20  C   UNL     1      41.726 -16.615   3.322  1.00  0.00     0.045 A 
HETATM   21  C   UNL     1      43.015 -16.767   2.787  1.00  0.00     0.031 A 
HETATM   22  C   UNL     1      43.926 -17.688   3.329  1.00  0.00     0.017 A 
HETATM   23  C   UNL     1      43.555 -18.488   4.409  1.00  0.00     0.009 A 
HETATM   24  C   UNL     1      42.256 -18.394   4.911  1.00  0.00     0.017 A 
HETATM   25  C   UNL     1      41.358 -17.463   4.379  1.00  0.00     0.031 A 
BRANCH  23  26
HETATM   26  C   UNL     1      44.487 -19.449   5.057  1.00  0.00     0.155 C 
HETATM   27  C   UNL     1      45.123 -20.537   4.231  1.00  0.00     0.096 C 
HETATM   28  O   UNL     1      44.764 -19.302   6.245  1.00  0.00    -0.293 OA
ENDBRANCH  23  26
ENDBRANCH   1  20
BRANCH   8  29
HETATM   29  C   UNL     1      41.658 -12.528   2.596  1.00  0.00     0.248 C 
HETATM   30  N   UNL     1      42.197 -12.059   3.755  1.00  0.00    -0.368 N 
HETATM   31  H   UNL     1      41.684 -12.078   4.634  1.00  0.00     0.159 HD
HETATM   32  H   UNL     1      43.197 -12.220   3.867  1.00  0.00     0.159 HD
HETATM   33  O   UNL     1      42.361 -13.036   1.730  1.00  0.00    -0.271 OA
ENDBRANCH   8  29
TORSDOF 3
ENDMDL
MODEL 6
REMARK VINA RESULT:      -8.6      2.880      7.143
REMARK  3 active torsions:
REMARK  status: ('A' for Active; 'I' for Inactive)
REMARK    1  A    between atoms: C_2  and  C_3 
REMARK    2  A    between atoms: C_6  and  N_7 
REMARK    3  A    between atoms: C_14  and  C_15 
REMARK       I    between atoms: C_15  and  N_16 
ROOT
HETATM    1  N   UNL     1      39.856 -13.188   3.453  1.00  0.00    -0.252 N 
HETATM    2  C   UNL     1      39.400 -13.029   2.170  1.00  0.00     0.238 C 
HETATM    3  O   UNL     1      39.223 -12.015   1.509  1.00  0.00    -0.272 OA
HETATM    4  C   UNL     1      39.291 -14.372   1.521  1.00  0.00     0.135 C 
HETATM    5  C   UNL     1      39.460 -15.370   2.652  1.00  0.00     0.130 C 
HETATM    6  C   UNL     1      39.945 -14.523   3.801  1.00  0.00     0.238 C 
HETATM    7  O   UNL     1      40.162 -14.994   4.905  1.00  0.00    -0.272 OA
HETATM    8  C   UNL     1      40.436 -14.621   0.554  1.00  0.00     0.298 C 
HETATM    9  N   UNL     1      40.605 -16.145   0.655  1.00  0.00    -0.028 N 
HETATM   10  H   UNL     1      39.856 -16.576   0.094  1.00  0.00     0.287 HD
HETATM   11  C   UNL     1      40.307 -16.543   2.118  1.00  0.00     0.242 C 
HETATM   12  C   UNL     1      41.851 -16.585   0.099  1.00  0.00     0.203 C 
HETATM   13  C   UNL     1      42.809 -17.123   0.856  1.00  0.00     0.037 C 
HETATM   14  C   UNL     1      42.674 -17.354   2.288  1.00  0.00    -0.026 A 
HETATM   15  C   UNL     1      41.447 -17.108   2.914  1.00  0.00    -0.016 A 
HETATM   16  C   UNL     1      43.750 -17.878   3.015  1.00  0.00     0.012 A 
HETATM   17  C   UNL     1      43.601 -18.194   4.363  1.00  0.00     0.001 A 
HETATM   18  C   UNL     1      42.367 -18.024   4.977  1.00  0.00     0.001 A 
HETATM   19  C   UNL     1      41.292 -17.507   4.251  1.00  0.00     0.010 A 
ENDROOT
BRANCH   1  20
HETATM   20  C   UNL     1      40.143 -12.117   4.353  1.00  0.00     0.045 A 
HETATM   21  C   UNL     1      39.241 -11.740   5.362  1.00  0.00     0.031 A 
HETATM   22  C   UNL     1      39.564 -10.741   6.294  1.00  0.00     0.017 A 
HETATM   23  C   UNL     1      40.794 -10.087   6.223  1.00  0.00     0.009 A 
HETATM   24  C   UNL     1      41.675 -10.405   5.188  1.00  0.00     0.017 A 
HETATM   25  C   UNL     1      41.356 -11.413   4.272  1.00  0.00     0.031 A 
BRANCH  23  26
HETATM   26  C   UNL     1      41.213  -9.053   7.205  1.00  0.00     0.155 C 
HETATM   27  C   UNL     1      40.920  -9.257   8.669  1.00  0.00     0.096 C 
HETATM   28  O   UNL     1      41.843  -8.075   6.809  1.00  0.00    -0.293 OA
ENDBRANCH  23  26
ENDBRANCH   1  20
BRANCH   8  29
HETATM   29  C   UNL     1      41.700 -13.798   0.891  1.00  0.00     0.248 C 
HETATM   30  N   UNL     1      41.982 -12.741   0.079  1.00  0.00    -0.368 N 
HETATM   31  H   UNL     1      41.251 -12.224  -0.404  1.00  0.00     0.159 HD
HETATM   32  H   UNL     1      42.761 -12.157   0.378  1.00  0.00     0.159 HD
HETATM   33  O   UNL     1      42.398 -14.050   1.867  1.00  0.00    -0.271 OA
ENDBRANCH   8  29
TORSDOF 3
ENDMDL
MODEL 7
REMARK VINA RESULT:      -8.5      3.328      7.140
REMARK  3 active torsions:
REMARK  status: ('A' for Active; 'I' for Inactive)
REMARK    1  A    between atoms: C_2  and  C_3 
REMARK    2  A    between atoms: C_6  and  N_7 
REMARK    3  A    between atoms: C_14  and  C_15 
REMARK       I    between atoms: C_15  and  N_16 
ROOT
HETATM    1  N   UNL     1      40.098 -13.205   4.664  1.00  0.00    -0.252 N 
HETATM    2  C   UNL     1      39.686 -12.751   3.437  1.00  0.00     0.238 C 
HETATM    3  O   UNL     1      39.553 -11.611   3.015  1.00  0.00    -0.272 OA
HETATM    4  C   UNL     1      39.566 -13.912   2.502  1.00  0.00     0.135 C 
HETATM    5  C   UNL     1      39.677 -15.142   3.385  1.00  0.00     0.130 C 
HETATM    6  C   UNL     1      40.146 -14.586   4.707  1.00  0.00     0.238 C 
HETATM    7  O   UNL     1      40.317 -15.297   5.683  1.00  0.00    -0.272 OA
HETATM    8  C   UNL     1      40.735 -13.973   1.533  1.00  0.00     0.298 C 
HETATM    9  N   UNL     1      40.865 -15.486   1.295  1.00  0.00    -0.028 N 
HETATM   10  H   UNL     1      40.124 -15.759   0.634  1.00  0.00     0.287 HD
HETATM   11  C   UNL     1      40.512 -16.191   2.624  1.00  0.00     0.242 C 
HETATM   12  C   UNL     1      42.117 -15.828   0.686  1.00  0.00     0.203 C 
HETATM   13  C   UNL     1      43.038 -16.549   1.328  1.00  0.00     0.037 C 
HETATM   14  C   UNL     1      42.854 -17.088   2.669  1.00  0.00    -0.026 A 
HETATM   15  C   UNL     1      41.614 -16.952   3.303  1.00  0.00    -0.016 A 
HETATM   16  C   UNL     1      43.895 -17.792   3.287  1.00  0.00     0.012 A 
HETATM   17  C   UNL     1      43.696 -18.397   4.526  1.00  0.00     0.001 A 
HETATM   18  C   UNL     1      42.448 -18.331   5.132  1.00  0.00     0.001 A 
HETATM   19  C   UNL     1      41.409 -17.634   4.513  1.00  0.00     0.010 A 
ENDROOT
BRANCH   1  20
HETATM   20  C   UNL     1      40.382 -12.371   5.787  1.00  0.00     0.045 A 
HETATM   21  C   UNL     1      39.386 -12.013   6.709  1.00  0.00     0.031 A 
HETATM   22  C   UNL     1      39.687 -11.260   7.855  1.00  0.00     0.017 A 
HETATM   23  C   UNL     1      40.995 -10.834   8.090  1.00  0.00     0.009 A 
HETATM   24  C   UNL     1      41.985 -11.126   7.150  1.00  0.00     0.017 A 
HETATM   25  C   UNL     1      41.682 -11.892   6.019  1.00  0.00     0.031 A 
BRANCH  23  26
HETATM   26  C   UNL     1      41.388 -10.073   9.305  1.00  0.00     0.155 C 
HETATM   27  C   UNL     1      40.440  -9.053   9.881  1.00  0.00     0.096 C 
HETATM   28  O   UNL     1      42.458 -10.332   9.850  1.00  0.00    -0.293 OA
ENDBRANCH  23  26
ENDBRANCH   1  20
BRANCH   8  29
HETATM   29  C   UNL     1      42.006 -13.284   2.077  1.00  0.00     0.248 C 
HETATM   30  N   UNL     1      42.307 -12.057   1.566  1.00  0.00    -0.368 N 
HETATM   31  H   UNL     1      41.587 -11.423   1.231  1.00  0.00     0.159 HD
HETATM   32  H   UNL     1      43.091 -11.581   2.010  1.00  0.00     0.159 HD
HETATM   33  O   UNL     1      42.693 -13.789   2.957  1.00  0.00    -0.271 OA
ENDBRANCH   8  29
TORSDOF 3
ENDMDL
MODEL 8
REMARK VINA RESULT:      -8.4      2.418      4.567
REMARK  3 active torsions:
REMARK  status: ('A' for Active; 'I' for Inactive)
REMARK    1  A    between atoms: C_2  and  C_3 
REMARK    2  A    between atoms: C_6  and  N_7 
REMARK    3  A    between atoms: C_14  and  C_15 
REMARK       I    between atoms: C_15  and  N_16 
ROOT
HETATM    1  N   UNL     1      42.533 -15.521   3.161  1.00  0.00    -0.252 N 
HETATM    2  C   UNL     1      42.080 -15.447   1.868  1.00  0.00     0.238 C 
HETATM    3  O   UNL     1      41.788 -16.332   1.077  1.00  0.00    -0.272 OA
HETATM    4  C   UNL     1      41.779 -14.020   1.538  1.00  0.00     0.135 C 
HETATM    5  C   UNL     1      42.372 -13.217   2.681  1.00  0.00     0.130 C 
HETATM    6  C   UNL     1      42.703 -14.266   3.714  1.00  0.00     0.238 C 
HETATM    7  O   UNL     1      43.234 -13.983   4.775  1.00  0.00    -0.272 OA
HETATM    8  C   UNL     1      40.285 -13.746   1.551  1.00  0.00     0.298 C 
HETATM    9  N   UNL     1      40.241 -12.276   1.998  1.00  0.00    -0.028 N 
HETATM   10  H   UNL     1      40.479 -11.697   1.180  1.00  0.00     0.287 HD
HETATM   11  C   UNL     1      41.397 -12.067   3.001  1.00  0.00     0.242 C 
HETATM   12  C   UNL     1      38.928 -11.883   2.421  1.00  0.00     0.203 C 
HETATM   13  C   UNL     1      38.666 -11.556   3.688  1.00  0.00     0.037 C 
HETATM   14  C   UNL     1      39.673 -11.524   4.741  1.00  0.00    -0.026 A 
HETATM   15  C   UNL     1      41.017 -11.738   4.416  1.00  0.00    -0.016 A 
HETATM   16  C   UNL     1      39.300 -11.218   6.055  1.00  0.00     0.012 A 
HETATM   17  C   UNL     1      40.267 -11.087   7.049  1.00  0.00     0.001 A 
HETATM   18  C   UNL     1      41.610 -11.224   6.724  1.00  0.00     0.001 A 
HETATM   19  C   UNL     1      41.983 -11.523   5.413  1.00  0.00     0.010 A 
ENDROOT
BRANCH   1  20
HETATM   20  C   UNL     1      42.857 -16.733   3.841  1.00  0.00     0.045 A 
HETATM   21  C   UNL     1      43.992 -17.488   3.501  1.00  0.00     0.031 A 
HETATM   22  C   UNL     1      44.350 -18.635   4.227  1.00  0.00     0.017 A 
HETATM   23  C   UNL     1      43.565 -19.060   5.299  1.00  0.00     0.009 A 
HETATM   24  C   UNL     1      42.400 -18.358   5.609  1.00  0.00     0.017 A 
HETATM   25  C   UNL     1      42.057 -17.205   4.894  1.00  0.00     0.031 A 
BRANCH  23  26
HETATM   26  C   UNL     1      43.914 -20.239   6.134  1.00  0.00     0.155 C 
HETATM   27  C   UNL     1      44.553 -21.442   5.491  1.00  0.00     0.096 C 
HETATM   28  O   UNL     1      43.725 -20.187   7.348  1.00  0.00    -0.293 OA
ENDBRANCH  23  26
ENDBRANCH   1  20
BRANCH   8  29
HETATM   29  C   UNL     1      39.499 -14.728   2.450  1.00  0.00     0.248 C 
HETATM   30  N   UNL     1      38.786 -15.702   1.820  1.00  0.00    -0.368 N 
HETATM   31  H   UNL     1      39.071 -16.081   0.919  1.00  0.00     0.159 HD
HETATM   32  H   UNL     1      38.359 -16.395   2.432  1.00  0.00     0.159 HD
HETATM   33  O   UNL     1      39.545 -14.666   3.673  1.00  0.00    -0.271 OA
ENDBRANCH   8  29
TORSDOF 3
ENDMDL
MODEL 9
REMARK VINA RESULT:      -7.9      2.580      7.450
REMARK  3 active torsions:
REMARK  status: ('A' for Active; 'I' for Inactive)
REMARK    1  A    between atoms: C_2  and  C_3 
REMARK    2  A    between atoms: C_6  and  N_7 
REMARK    3  A    between atoms: C_14  and  C_15 
REMARK       I    between atoms: C_15  and  N_16 
ROOT
HETATM    1  N   UNL     1      40.507 -12.955   1.018  1.00  0.00    -0.252 N 
HETATM    2  C   UNL     1      39.824 -14.048   0.549  1.00  0.00     0.238 C 
HETATM    3  O   UNL     1      39.630 -14.433  -0.595  1.00  0.00    -0.272 OA
HETATM    4  C   UNL     1      39.442 -14.917   1.705  1.00  0.00     0.135 C 
HETATM    5  C   UNL     1      39.724 -14.078   2.938  1.00  0.00     0.130 C 
HETATM    6  C   UNL     1      40.518 -12.914   2.399  1.00  0.00     0.238 C 
HETATM    7  O   UNL     1      40.898 -12.004   3.117  1.00  0.00    -0.272 OA
HETATM    8  C   UNL     1      40.338 -16.140   1.805  1.00  0.00     0.298 C 
HETATM    9  N   UNL     1      40.356 -16.391   3.321  1.00  0.00    -0.028 N 
HETATM   10  H   UNL     1      39.468 -16.851   3.568  1.00  0.00     0.287 HD
HETATM   11  C   UNL     1      40.314 -15.011   4.014  1.00  0.00     0.242 C 
HETATM   12  C   UNL     1      41.410 -17.284   3.704  1.00  0.00     0.203 C 
HETATM   13  C   UNL     1      42.436 -16.880   4.456  1.00  0.00     0.037 C 
HETATM   14  C   UNL     1      42.566 -15.531   4.990  1.00  0.00    -0.026 A 
HETATM   15  C   UNL     1      41.523 -14.615   4.812  1.00  0.00    -0.016 A 
HETATM   16  C   UNL     1      43.702 -15.179   5.729  1.00  0.00     0.012 A 
HETATM   17  C   UNL     1      43.791 -13.924   6.328  1.00  0.00     0.001 A 
HETATM   18  C   UNL     1      42.730 -13.034   6.220  1.00  0.00     0.001 A 
HETATM   19  C   UNL     1      41.595 -13.387   5.488  1.00  0.00     0.010 A 
ENDROOT
BRANCH   1  20
HETATM   20  C   UNL     1      41.083 -11.941   0.194  1.00  0.00     0.045 A 
HETATM   21  C   UNL     1      42.351 -12.097  -0.389  1.00  0.00     0.031 A 
HETATM   22  C   UNL     1      42.876 -11.132  -1.263  1.00  0.00     0.017 A 
HETATM   23  C   UNL     1      42.147  -9.980  -1.556  1.00  0.00     0.009 A 
HETATM   24  C   UNL     1      40.913  -9.779  -0.935  1.00  0.00     0.017 A 
HETATM   25  C   UNL     1      40.387 -10.752  -0.078  1.00  0.00     0.031 A 
BRANCH  23  26
HETATM   26  C   UNL     1      42.627  -8.943  -2.507  1.00  0.00     0.155 C 
HETATM   27  C   UNL     1      42.421  -9.139  -3.987  1.00  0.00     0.096 C 
HETATM   28  O   UNL     1      43.135  -7.916  -2.062  1.00  0.00    -0.293 OA
ENDBRANCH  23  26
ENDBRANCH   1  20
BRANCH   8  29
HETATM   29  C   UNL     1      41.725 -15.927   1.158  1.00  0.00     0.248 C 
HETATM   30  N   UNL     1      41.937 -16.513  -0.053  1.00  0.00    -0.368 N 
HETATM   31  H   UNL     1      41.179 -16.675  -0.712  1.00  0.00     0.159 HD
HETATM   32  H   UNL     1      42.820 -16.277  -0.503  1.00  0.00     0.159 HD
HETATM   33  O   UNL     1      42.585 -15.230   1.684  1.00  0.00    -0.271 OA
ENDBRANCH   8  29
TORSDOF 3
ENDMDL
MODEL 10
REMARK VINA RESULT:      -7.7      2.793      4.927
REMARK  3 active torsions:
REMARK  status: ('A' for Active; 'I' for Inactive)
REMARK    1  A    between atoms: C_2  and  C_3 
REMARK    2  A    between atoms: C_6  and  N_7 
REMARK    3  A    between atoms: C_14  and  C_15 
REMARK       I    between atoms: C_15  and  N_16 
ROOT
HETATM    1  N   UNL     1      41.309 -14.836  -1.101  1.00  0.00    -0.252 N 
HETATM    2  C   UNL     1      40.957 -15.328  -2.332  1.00  0.00     0.238 C 
HETATM    3  O   UNL     1      40.598 -16.447  -2.667  1.00  0.00    -0.272 OA
HETATM    4  C   UNL     1      40.880 -14.195  -3.305  1.00  0.00     0.135 C 
HETATM    5  C   UNL     1      41.502 -13.013  -2.584  1.00  0.00     0.130 C 
HETATM    6  C   UNL     1      41.615 -13.489  -1.158  1.00  0.00     0.238 C 
HETATM    7  O   UNL     1      42.109 -12.798  -0.283  1.00  0.00    -0.272 OA
HETATM    8  C   UNL     1      39.441 -13.808  -3.600  1.00  0.00     0.298 C 
HETATM    9  N   UNL     1      39.572 -12.301  -3.875  1.00  0.00    -0.028 N 
HETATM   10  H   UNL     1      39.942 -12.193  -4.830  1.00  0.00     0.287 HD
HETATM   11  C   UNL     1      40.677 -11.760  -2.940  1.00  0.00     0.242 C 
HETATM   12  C   UNL     1      38.302 -11.637  -3.839  1.00  0.00     0.203 C 
HETATM   13  C   UNL     1      38.005 -10.737  -2.899  1.00  0.00     0.037 C 
HETATM   14  C   UNL     1      38.935 -10.315  -1.860  1.00  0.00    -0.026 A 
HETATM   15  C   UNL     1      40.254 -10.779  -1.885  1.00  0.00    -0.016 A 
HETATM   16  C   UNL     1      38.521  -9.402  -0.882  1.00  0.00     0.012 A 
HETATM   17  C   UNL     1      39.429  -8.916   0.056  1.00  0.00     0.001 A 
HETATM   18  C   UNL     1      40.759  -9.313  -0.005  1.00  0.00     0.001 A 
HETATM   19  C   UNL     1      41.173 -10.219  -0.983  1.00  0.00     0.010 A 
ENDROOT
BRANCH   1  20
HETATM   20  C   UNL     1      41.416 -15.620   0.088  1.00  0.00     0.045 A 
HETATM   21  C   UNL     1      42.459 -16.542   0.271  1.00  0.00     0.031 A 
HETATM   22  C   UNL     1      42.605 -17.250   1.474  1.00  0.00     0.017 A 
HETATM   23  C   UNL     1      41.695 -17.060   2.514  1.00  0.00     0.009 A 
HETATM   24  C   UNL     1      40.616 -16.195   2.325  1.00  0.00     0.017 A 
HETATM   25  C   UNL     1      40.485 -15.479   1.130  1.00  0.00     0.031 A 
BRANCH  23  26
HETATM   26  C   UNL     1      41.819 -17.745   3.828  1.00  0.00     0.155 C 
HETATM   27  C   UNL     1      43.045 -18.570   4.122  1.00  0.00     0.096 C 
HETATM   28  O   UNL     1      40.942 -17.578   4.672  1.00  0.00    -0.293 OA
ENDBRANCH  23  26
ENDBRANCH   1  20
BRANCH   8  29
HETATM   29  C   UNL     1      38.469 -14.184  -2.459  1.00  0.00     0.248 C 
HETATM   30  N   UNL     1      37.609 -15.214  -2.697  1.00  0.00    -0.368 N 
HETATM   31  H   UNL     1      37.845 -15.977  -3.327  1.00  0.00     0.159 HD
HETATM   32  H   UNL     1      37.048 -15.507  -1.899  1.00  0.00     0.159 HD
HETATM   33  O   UNL     1      38.493 -13.617  -1.373  1.00  0.00    -0.271 OA
ENDBRANCH   8  29
TORSDOF 3
ENDMDL
