MODEL 1
REMARK VINA RESULT:      -6.7      0.000      0.000
REMARK  3 active torsions:
REMARK  status: ('A' for Active; 'I' for Inactive)
REMARK    1  A    between atoms: N_7  and  O_8 
REMARK    2  A    between atoms: O_8  and  C_9 
REMARK    3  A    between atoms: C_9  and  C_10 
ROOT
HETATM    1  O   UNL     1      43.441 -17.789   6.819  1.00  0.00    -0.170 OA
ENDROOT
BRANCH   1   2
HETATM    2  N   UNL     1      43.236 -16.420   6.576  1.00  0.00    -0.134 NA
HETATM    3  C   UNL     1      42.061 -16.152   6.111  1.00  0.00     0.043 C 
HETATM    4  C   UNL     1      40.976 -17.143   5.792  1.00  0.00     0.084 C 
HETATM    5  C   UNL     1      41.777 -14.735   5.691  1.00  0.00     0.084 C 
HETATM    6  C   UNL     1      40.857 -17.165   4.276  1.00  0.00     0.240 C 
HETATM    7  N   UNL     1      40.612 -15.758   3.743  1.00  0.00    -0.074 N 
HETATM    8  C   UNL     1      40.459 -15.767   2.242  1.00  0.00     0.269 C 
HETATM    9  H   UNL     1      39.714 -15.424   4.119  1.00  0.00     0.279 HD
HETATM   10  C   UNL     1      41.691 -14.768   4.175  1.00  0.00     0.240 C 
ENDBRANCH   1   2
BRANCH   1  11
HETATM   11  C   UNL     1      44.663 -18.154   6.312  1.00  0.00     0.317 C 
HETATM   12  O   UNL     1      45.757 -17.777   6.708  1.00  0.00    -0.257 OA
BRANCH  11  13
HETATM   13  C   UNL     1      44.500 -19.022   5.113  1.00  0.00     0.041 A 
HETATM   14  C   UNL     1      44.818 -20.383   5.248  1.00  0.00     0.019 A 
HETATM   15  C   UNL     1      44.713 -21.247   4.155  1.00  0.00     0.020 A 
HETATM   16  C   UNL     1      44.287 -20.754   2.926  1.00  0.00     0.011 A 
HETATM   17 BR   UNL     1      44.158 -21.918   1.442  1.00  0.00    -0.051 Br
HETATM   18  C   UNL     1      43.956 -19.406   2.779  1.00  0.00     0.020 A 
HETATM   19  C   UNL     1      44.060 -18.538   3.872  1.00  0.00     0.019 A 
ENDBRANCH  11  13
ENDBRANCH   1  11
TORSDOF 3
ENDMDL
MODEL 2
REMARK VINA RESULT:      -6.7      2.434      3.148
REMARK  3 active torsions:
REMARK  status: ('A' for Active; 'I' for Inactive)
REMARK    1  A    between atoms: N_7  and  O_8 
REMARK    2  A    between atoms: O_8  and  C_9 
REMARK    3  A    between atoms: C_9  and  C_10 
ROOT
HETATM    1  O   UNL     1      42.575 -16.484   3.114  1.00  0.00    -0.170 OA
ENDROOT
BRANCH   1   2
HETATM    2  N   UNL     1      43.080 -15.236   3.518  1.00  0.00    -0.134 NA
HETATM    3  C   UNL     1      42.753 -14.917   4.726  1.00  0.00     0.043 C 
HETATM    4  C   UNL     1      41.889 -15.718   5.661  1.00  0.00     0.084 C 
HETATM    5  C   UNL     1      43.128 -13.545   5.218  1.00  0.00     0.084 C 
HETATM    6  C   UNL     1      40.587 -14.945   5.798  1.00  0.00     0.240 C 
HETATM    7  N   UNL     1      40.864 -13.516   6.252  1.00  0.00    -0.074 N 
HETATM    8  C   UNL     1      39.579 -12.745   6.425  1.00  0.00     0.269 C 
HETATM    9  H   UNL     1      41.301 -13.554   7.183  1.00  0.00     0.279 HD
HETATM   10  C   UNL     1      41.822 -12.777   5.321  1.00  0.00     0.240 C 
ENDBRANCH   1   2
BRANCH   1  11
HETATM   11  C   UNL     1      43.546 -17.149   2.406  1.00  0.00     0.317 C 
HETATM   12  O   UNL     1      43.990 -16.837   1.311  1.00  0.00    -0.257 OA
BRANCH  11  13
HETATM   13  C   UNL     1      43.948 -18.399   3.108  1.00  0.00     0.041 A 
HETATM   14  C   UNL     1      44.087 -19.563   2.335  1.00  0.00     0.019 A 
HETATM   15  C   UNL     1      44.436 -20.775   2.935  1.00  0.00     0.020 A 
HETATM   16  C   UNL     1      44.649 -20.827   4.310  1.00  0.00     0.011 A 
HETATM   17 BR   UNL     1      45.107 -22.469   5.126  1.00  0.00    -0.051 Br
HETATM   18  C   UNL     1      44.525 -19.677   5.090  1.00  0.00     0.020 A 
HETATM   19  C   UNL     1      44.177 -18.460   4.491  1.00  0.00     0.019 A 
ENDBRANCH  11  13
ENDBRANCH   1  11
TORSDOF 3
ENDMDL
MODEL 3
REMARK VINA RESULT:      -6.7      2.480      3.424
REMARK  3 active torsions:
REMARK  status: ('A' for Active; 'I' for Inactive)
REMARK    1  A    between atoms: N_7  and  O_8 
REMARK    2  A    between atoms: O_8  and  C_9 
REMARK    3  A    between atoms: C_9  and  C_10 
ROOT
HETATM    1  O   UNL     1      43.601 -18.901   5.454  1.00  0.00    -0.170 OA
ENDROOT
BRANCH   1   2
HETATM    2  N   UNL     1      44.356 -17.772   5.816  1.00  0.00    -0.134 NA
HETATM    3  C   UNL     1      43.693 -16.916   6.520  1.00  0.00     0.043 C 
HETATM    4  C   UNL     1      42.247 -17.014   6.922  1.00  0.00     0.084 C 
HETATM    5  C   UNL     1      44.362 -15.609   6.852  1.00  0.00     0.084 C 
HETATM    6  C   UNL     1      41.515 -15.947   6.124  1.00  0.00     0.240 C 
HETATM    7  N   UNL     1      42.150 -14.581   6.357  1.00  0.00    -0.074 N 
HETATM    8  C   UNL     1      41.413 -13.505   5.598  1.00  0.00     0.269 C 
HETATM    9  H   UNL     1      42.049 -14.346   7.355  1.00  0.00     0.279 HD
HETATM   10  C   UNL     1      43.640 -14.559   6.026  1.00  0.00     0.240 C 
ENDBRANCH   1   2
BRANCH   1  11
HETATM   11  C   UNL     1      44.033 -19.353   4.232  1.00  0.00     0.317 C 
HETATM   12  O   UNL     1      44.839 -20.251   4.032  1.00  0.00    -0.257 OA
BRANCH  11  13
HETATM   13  C   UNL     1      43.459 -18.530   3.132  1.00  0.00     0.041 A 
HETATM   14  C   UNL     1      42.134 -18.089   3.274  1.00  0.00     0.019 A 
HETATM   15  C   UNL     1      41.525 -17.337   2.266  1.00  0.00     0.020 A 
HETATM   16  C   UNL     1      42.242 -17.020   1.116  1.00  0.00     0.011 A 
HETATM   17 BR   UNL     1      41.417 -16.014  -0.255  1.00  0.00    -0.051 Br
HETATM   18  C   UNL     1      43.563 -17.442   0.965  1.00  0.00     0.020 A 
HETATM   19  C   UNL     1      44.175 -18.195   1.974  1.00  0.00     0.019 A 
ENDBRANCH  11  13
ENDBRANCH   1  11
TORSDOF 3
ENDMDL
MODEL 4
REMARK VINA RESULT:      -6.6      2.336      3.468
REMARK  3 active torsions:
REMARK  status: ('A' for Active; 'I' for Inactive)
REMARK    1  A    between atoms: N_7  and  O_8 
REMARK    2  A    between atoms: O_8  and  C_9 
REMARK    3  A    between atoms: C_9  and  C_10 
ROOT
HETATM    1  O   UNL     1      42.851 -16.113   3.180  1.00  0.00    -0.170 OA
ENDROOT
BRANCH   1   2
HETATM    2  N   UNL     1      41.539 -15.608   3.200  1.00  0.00    -0.134 NA
HETATM    3  C   UNL     1      40.839 -15.958   2.173  1.00  0.00     0.043 C 
HETATM    4  C   UNL     1      41.309 -16.783   1.007  1.00  0.00     0.084 C 
HETATM    5  C   UNL     1      39.462 -15.367   2.025  1.00  0.00     0.084 C 
HETATM    6  C   UNL     1      41.378 -15.834  -0.180  1.00  0.00     0.240 C 
HETATM    7  N   UNL     1      40.035 -15.145  -0.387  1.00  0.00    -0.074 N 
HETATM    8  C   UNL     1      40.078 -14.224  -1.582  1.00  0.00     0.269 C 
HETATM    9  H   UNL     1      39.335 -15.866  -0.608  1.00  0.00     0.279 HD
HETATM   10  C   UNL     1      39.556 -14.401   0.857  1.00  0.00     0.240 C 
ENDBRANCH   1   2
BRANCH   1  11
HETATM   11  C   UNL     1      43.225 -16.435   4.461  1.00  0.00     0.317 C 
HETATM   12  O   UNL     1      43.292 -15.670   5.412  1.00  0.00    -0.257 OA
BRANCH  11  13
HETATM   13  C   UNL     1      43.648 -17.860   4.546  1.00  0.00     0.041 A 
HETATM   14  C   UNL     1      43.761 -18.429   5.824  1.00  0.00     0.019 A 
HETATM   15  C   UNL     1      44.180 -19.753   5.976  1.00  0.00     0.020 A 
HETATM   16  C   UNL     1      44.483 -20.513   4.850  1.00  0.00     0.011 A 
HETATM   17 BR   UNL     1      45.063 -22.300   5.053  1.00  0.00    -0.051 Br
HETATM   18  C   UNL     1      44.365 -19.964   3.572  1.00  0.00     0.020 A 
HETATM   19  C   UNL     1      43.945 -18.638   3.417  1.00  0.00     0.019 A 
ENDBRANCH  11  13
ENDBRANCH   1  11
TORSDOF 3
ENDMDL
MODEL 5
REMARK VINA RESULT:      -6.6      2.655      4.084
REMARK  3 active torsions:
REMARK  status: ('A' for Active; 'I' for Inactive)
REMARK    1  A    between atoms: N_7  and  O_8 
REMARK    2  A    between atoms: O_8  and  C_9 
REMARK    3  A    between atoms: C_9  and  C_10 
ROOT
HETATM    1  O   UNL     1      42.605 -15.036   2.469  1.00  0.00    -0.170 OA
ENDROOT
BRANCH   1   2
HETATM    2  N   UNL     1      41.224 -14.937   2.714  1.00  0.00    -0.134 NA
HETATM    3  C   UNL     1      40.497 -15.321   1.718  1.00  0.00     0.043 C 
HETATM    4  C   UNL     1      40.991 -15.800   0.381  1.00  0.00     0.084 C 
HETATM    5  C   UNL     1      39.007 -15.135   1.821  1.00  0.00     0.084 C 
HETATM    6  C   UNL     1      40.628 -14.710  -0.617  1.00  0.00     0.240 C 
HETATM    7  N   UNL     1      39.135 -14.413  -0.557  1.00  0.00    -0.074 N 
HETATM    8  C   UNL     1      38.753 -13.357  -1.565  1.00  0.00     0.269 C 
HETATM    9  H   UNL     1      38.627 -15.265  -0.832  1.00  0.00     0.279 HD
HETATM   10  C   UNL     1      38.666 -14.025   0.843  1.00  0.00     0.240 C 
ENDBRANCH   1   2
BRANCH   1  11
HETATM   11  C   UNL     1      43.210 -15.612   3.558  1.00  0.00     0.317 C 
HETATM   12  O   UNL     1      43.552 -15.044   4.585  1.00  0.00    -0.257 OA
BRANCH  11  13
HETATM   13  C   UNL     1      43.503 -17.049   3.301  1.00  0.00     0.041 A 
HETATM   14  C   UNL     1      43.692 -17.445   1.967  1.00  0.00     0.019 A 
HETATM   15  C   UNL     1      43.943 -18.783   1.654  1.00  0.00     0.020 A 
HETATM   16  C   UNL     1      44.008 -19.728   2.674  1.00  0.00     0.011 A 
HETATM   17 BR   UNL     1      44.334 -21.542   2.251  1.00  0.00    -0.051 Br
HETATM   18  C   UNL     1      43.833 -19.348   4.004  1.00  0.00     0.020 A 
HETATM   19  C   UNL     1      43.583 -18.008   4.321  1.00  0.00     0.019 A 
ENDBRANCH  11  13
ENDBRANCH   1  11
TORSDOF 3
ENDMDL
MODEL 6
REMARK VINA RESULT:      -6.4      1.597      2.117
REMARK  3 active torsions:
REMARK  status: ('A' for Active; 'I' for Inactive)
REMARK    1  A    between atoms: N_7  and  O_8 
REMARK    2  A    between atoms: O_8  and  C_9 
REMARK    3  A    between atoms: C_9  and  C_10 
ROOT
HETATM    1  O   UNL     1      42.747 -16.522   5.522  1.00  0.00    -0.170 OA
ENDROOT
BRANCH   1   2
HETATM    2  N   UNL     1      43.027 -15.145   5.583  1.00  0.00    -0.134 NA
HETATM    3  C   UNL     1      41.968 -14.410   5.661  1.00  0.00     0.043 C 
HETATM    4  C   UNL     1      40.542 -14.889   5.650  1.00  0.00     0.084 C 
HETATM    5  C   UNL     1      42.142 -12.917   5.600  1.00  0.00     0.084 C 
HETATM    6  C   UNL     1      39.959 -14.447   4.317  1.00  0.00     0.240 C 
HETATM    7  N   UNL     1      40.129 -12.943   4.136  1.00  0.00    -0.074 N 
HETATM    8  C   UNL     1      39.525 -12.483   2.832  1.00  0.00     0.269 C 
HETATM    9  H   UNL     1      39.596 -12.469   4.879  1.00  0.00     0.279 HD
HETATM   10  C   UNL     1      41.583 -12.495   4.252  1.00  0.00     0.240 C 
ENDBRANCH   1   2
BRANCH   1  11
HETATM   11  C   UNL     1      43.902 -17.222   5.769  1.00  0.00     0.317 C 
HETATM   12  O   UNL     1      44.761 -16.941   6.592  1.00  0.00    -0.257 OA
BRANCH  11  13
HETATM   13  C   UNL     1      44.045 -18.358   4.816  1.00  0.00     0.041 A 
HETATM   14  C   UNL     1      43.428 -18.235   3.561  1.00  0.00     0.019 A 
HETATM   15  C   UNL     1      43.500 -19.275   2.631  1.00  0.00     0.020 A 
HETATM   16  C   UNL     1      44.191 -20.440   2.953  1.00  0.00     0.011 A 
HETATM   17 BR   UNL     1      44.278 -21.854   1.702  1.00  0.00    -0.051 Br
HETATM   18  C   UNL     1      44.818 -20.572   4.192  1.00  0.00     0.020 A 
HETATM   19  C   UNL     1      44.748 -19.531   5.125  1.00  0.00     0.019 A 
ENDBRANCH  11  13
ENDBRANCH   1  11
TORSDOF 3
ENDMDL
MODEL 7
REMARK VINA RESULT:      -6.4      3.031      3.986
REMARK  3 active torsions:
REMARK  status: ('A' for Active; 'I' for Inactive)
REMARK    1  A    between atoms: N_7  and  O_8 
REMARK    2  A    between atoms: O_8  and  C_9 
REMARK    3  A    between atoms: C_9  and  C_10 
ROOT
HETATM    1  O   UNL     1      42.340 -17.629   1.236  1.00  0.00    -0.170 OA
ENDROOT
BRANCH   1   2
HETATM    2  N   UNL     1      41.192 -17.148   1.891  1.00  0.00    -0.134 NA
HETATM    3  C   UNL     1      40.642 -16.145   1.293  1.00  0.00     0.043 C 
HETATM    4  C   UNL     1      41.135 -15.467   0.043  1.00  0.00     0.084 C 
HETATM    5  C   UNL     1      39.484 -15.467   1.975  1.00  0.00     0.084 C 
HETATM    6  C   UNL     1      41.637 -14.099   0.477  1.00  0.00     0.240 C 
HETATM    7  N   UNL     1      40.544 -13.344   1.223  1.00  0.00    -0.074 N 
HETATM    8  C   UNL     1      41.017 -11.970   1.631  1.00  0.00     0.269 C 
HETATM    9  H   UNL     1      39.758 -13.194   0.576  1.00  0.00     0.279 HD
HETATM   10  C   UNL     1      40.011 -14.116   2.427  1.00  0.00     0.240 C 
ENDBRANCH   1   2
BRANCH   1  11
HETATM   11  C   UNL     1      43.443 -17.337   1.998  1.00  0.00     0.317 C 
HETATM   12  O   UNL     1      44.075 -16.291   1.992  1.00  0.00    -0.257 OA
BRANCH  11  13
HETATM   13  C   UNL     1      43.859 -18.521   2.800  1.00  0.00     0.041 A 
HETATM   14  C   UNL     1      44.020 -19.740   2.123  1.00  0.00     0.019 A 
HETATM   15  C   UNL     1      44.382 -20.895   2.820  1.00  0.00     0.020 A 
HETATM   16  C   UNL     1      44.588 -20.834   4.195  1.00  0.00     0.011 A 
HETATM   17 BR   UNL     1      45.065 -22.398   5.142  1.00  0.00    -0.051 Br
HETATM   18  C   UNL     1      44.443 -19.627   4.879  1.00  0.00     0.020 A 
HETATM   19  C   UNL     1      44.081 -18.468   4.184  1.00  0.00     0.019 A 
ENDBRANCH  11  13
ENDBRANCH   1  11
TORSDOF 3
ENDMDL
MODEL 8
REMARK VINA RESULT:      -6.2      3.274      6.034
REMARK  3 active torsions:
REMARK  status: ('A' for Active; 'I' for Inactive)
REMARK    1  A    between atoms: N_7  and  O_8 
REMARK    2  A    between atoms: O_8  and  C_9 
REMARK    3  A    between atoms: C_9  and  C_10 
ROOT
HETATM    1  O   UNL     1      41.771 -18.125   5.143  1.00  0.00    -0.170 OA
ENDROOT
BRANCH   1   2
HETATM    2  N   UNL     1      42.920 -18.852   5.501  1.00  0.00    -0.134 NA
HETATM    3  C   UNL     1      43.750 -19.013   4.525  1.00  0.00     0.043 C 
HETATM    4  C   UNL     1      43.569 -18.541   3.108  1.00  0.00     0.084 C 
HETATM    5  C   UNL     1      44.952 -19.888   4.761  1.00  0.00     0.084 C 
HETATM    6  C   UNL     1      43.354 -19.793   2.272  1.00  0.00     0.240 C 
HETATM    7  N   UNL     1      44.505 -20.772   2.477  1.00  0.00    -0.074 N 
HETATM    8  C   UNL     1      44.323 -22.006   1.628  1.00  0.00     0.269 C 
HETATM    9  H   UNL     1      45.370 -20.324   2.146  1.00  0.00     0.279 HD
HETATM   10  C   UNL     1      44.708 -21.144   3.943  1.00  0.00     0.240 C 
ENDBRANCH   1   2
BRANCH   1  11
HETATM   11  C   UNL     1      41.689 -17.006   5.933  1.00  0.00     0.317 C 
HETATM   12  O   UNL     1      42.021 -16.917   7.106  1.00  0.00    -0.257 OA
BRANCH  11  13
HETATM   13  C   UNL     1      41.033 -15.888   5.198  1.00  0.00     0.041 A 
HETATM   14  C   UNL     1      41.035 -15.944   3.795  1.00  0.00     0.019 A 
HETATM   15  C   UNL     1      40.461 -14.915   3.044  1.00  0.00     0.020 A 
HETATM   16  C   UNL     1      39.882 -13.829   3.694  1.00  0.00     0.011 A 
HETATM   17 BR   UNL     1      39.118 -12.429   2.681  1.00  0.00    -0.051 Br
HETATM   18  C   UNL     1      39.864 -13.765   5.088  1.00  0.00     0.020 A 
HETATM   19  C   UNL     1      40.437 -14.795   5.842  1.00  0.00     0.019 A 
ENDBRANCH  11  13
ENDBRANCH   1  11
TORSDOF 3
ENDMDL
MODEL 9
REMARK VINA RESULT:      -6.2      5.519      7.851
REMARK  3 active torsions:
REMARK  status: ('A' for Active; 'I' for Inactive)
REMARK    1  A    between atoms: N_7  and  O_8 
REMARK    2  A    between atoms: O_8  and  C_9 
REMARK    3  A    between atoms: C_9  and  C_10 
ROOT
HETATM    1  O   UNL     1      44.555 -14.624   7.854  1.00  0.00    -0.170 OA
ENDROOT
BRANCH   1   2
HETATM    2  N   UNL     1      43.896 -14.995   6.668  1.00  0.00    -0.134 NA
HETATM    3  C   UNL     1      43.256 -16.112   6.764  1.00  0.00     0.043 C 
HETATM    4  C   UNL     1      43.201 -17.012   7.968  1.00  0.00     0.084 C 
HETATM    5  C   UNL     1      42.624 -16.670   5.518  1.00  0.00     0.084 C 
HETATM    6  C   UNL     1      44.002 -18.252   7.603  1.00  0.00     0.240 C 
HETATM    7  N   UNL     1      43.465 -18.872   6.318  1.00  0.00    -0.074 N 
HETATM    8  C   UNL     1      44.229 -20.123   5.961  1.00  0.00     0.269 C 
HETATM    9  H   UNL     1      42.494 -19.169   6.487  1.00  0.00     0.279 HD
HETATM   10  C   UNL     1      43.453 -17.889   5.151  1.00  0.00     0.240 C 
ENDBRANCH   1   2
BRANCH   1  11
HETATM   11  C   UNL     1      45.152 -13.402   7.669  1.00  0.00     0.317 C 
HETATM   12  O   UNL     1      45.989 -13.122   6.823  1.00  0.00    -0.257 OA
BRANCH  11  13
HETATM   13  C   UNL     1      44.719 -12.439   8.719  1.00  0.00     0.041 A 
HETATM   14  C   UNL     1      43.507 -11.760   8.518  1.00  0.00     0.019 A 
HETATM   15  C   UNL     1      43.056 -10.822   9.450  1.00  0.00     0.020 A 
HETATM   16  C   UNL     1      43.815 -10.563  10.588  1.00  0.00     0.011 A 
HETATM   17 BR   UNL     1      43.214  -9.285  11.844  1.00  0.00    -0.051 Br
HETATM   18  C   UNL     1      45.016 -11.239  10.807  1.00  0.00     0.020 A 
HETATM   19  C   UNL     1      45.469 -12.179   9.875  1.00  0.00     0.019 A 
ENDBRANCH  11  13
ENDBRANCH   1  11
TORSDOF 3
ENDMDL
MODEL 10
REMARK VINA RESULT:      -6.2      3.648      4.975
REMARK  3 active torsions:
REMARK  status: ('A' for Active; 'I' for Inactive)
REMARK    1  A    between atoms: N_7  and  O_8 
REMARK    2  A    between atoms: O_8  and  C_9 
REMARK    3  A    between atoms: C_9  and  C_10 
ROOT
HETATM    1  O   UNL     1      42.042 -14.292   2.600  1.00  0.00    -0.170 OA
ENDROOT
BRANCH   1   2
HETATM    2  N   UNL     1      42.178 -13.197   1.729  1.00  0.00    -0.134 NA
HETATM    3  C   UNL     1      41.352 -13.226   0.736  1.00  0.00     0.043 C 
HETATM    4  C   UNL     1      40.343 -14.302   0.441  1.00  0.00     0.084 C 
HETATM    5  C   UNL     1      41.497 -12.174  -0.330  1.00  0.00     0.084 C 
HETATM    6  C   UNL     1      40.846 -15.021  -0.801  1.00  0.00     0.240 C 
HETATM    7  N   UNL     1      41.070 -14.028  -1.935  1.00  0.00    -0.074 N 
HETATM    8  C   UNL     1      41.536 -14.731  -3.186  1.00  0.00     0.269 C 
HETATM    9  H   UNL     1      40.163 -13.600  -2.171  1.00  0.00     0.279 HD
HETATM   10  C   UNL     1      42.027 -12.902  -1.553  1.00  0.00     0.240 C 
ENDBRANCH   1   2
BRANCH   1  11
HETATM   11  C   UNL     1      43.291 -14.726   2.969  1.00  0.00     0.317 C 
HETATM   12  O   UNL     1      44.228 -14.027   3.326  1.00  0.00    -0.257 OA
BRANCH  11  13
HETATM   13  C   UNL     1      43.413 -16.199   2.787  1.00  0.00     0.041 A 
HETATM   14  C   UNL     1      43.570 -16.682   1.478  1.00  0.00     0.019 A 
HETATM   15  C   UNL     1      43.663 -18.054   1.234  1.00  0.00     0.020 A 
HETATM   16  C   UNL     1      43.602 -18.948   2.299  1.00  0.00     0.011 A 
HETATM   17 BR   UNL     1      43.713 -20.806   1.972  1.00  0.00    -0.051 Br
HETATM   18  C   UNL     1      43.458 -18.483   3.607  1.00  0.00     0.020 A 
HETATM   19  C   UNL     1      43.365 -17.108   3.854  1.00  0.00     0.019 A 
ENDBRANCH  11  13
ENDBRANCH   1  11
TORSDOF 3
ENDMDL
