MODEL 1
REMARK VINA RESULT:      -7.0      0.000      0.000
REMARK  4 active torsions:
REMARK  status: ('A' for Active; 'I' for Inactive)
REMARK    1  A    between atoms: O_2  and  C_3 
REMARK    2  A    between atoms: C_5  and  N_6 
REMARK    3  A    between atoms: N_6  and  C_7 
REMARK    4  A    between atoms: C_7  and  C_8 
ROOT
HETATM    1  N   UNL     1      42.048 -15.991   0.144  1.00  0.00    -0.371 N 
HETATM    2  H   UNL     1      43.039 -16.134  -0.011  1.00  0.00     0.161 HD
ENDROOT
BRANCH   1   3
HETATM    3  C   UNL     1      41.290 -15.278  -0.748  1.00  0.00     0.103 A 
HETATM    4  C   UNL     1      40.999 -15.665  -2.058  1.00  0.00     0.085 A 
HETATM    5  C   UNL     1      40.192 -14.871  -2.877  1.00  0.00     0.073 A 
HETATM    6  C   UNL     1      39.673 -13.688  -2.375  1.00  0.00     0.053 A 
HETATM    7  C   UNL     1      39.974 -13.336  -1.069  1.00  0.00     0.092 A 
HETATM    8  N   UNL     1      40.751 -14.125  -0.316  1.00  0.00    -0.352 N 
HETATM    9  H   UNL     1      40.944 -13.852   0.643  1.00  0.00     0.166 HD
BRANCH   5  10
HETATM   10  O   UNL     1      39.990 -15.370  -4.130  1.00  0.00    -0.356 OA
HETATM   11  C   UNL     1      38.848 -16.197  -4.339  1.00  0.00     0.210 C 
ENDBRANCH   5  10
ENDBRANCH   1   3
BRANCH   1  12
HETATM   12  C   UNL     1      41.481 -16.925   1.113  1.00  0.00     0.180 C 
BRANCH  12  13
HETATM   13  C   UNL     1      42.220 -17.031   2.395  1.00  0.00     0.053 A 
HETATM   14  N   UNL     1      42.964 -18.141   2.759  1.00  0.00    -0.306 N 
HETATM   15  C   UNL     1      43.493 -17.872   4.019  1.00  0.00     0.133 A 
HETATM   16  C   UNL     1      43.197 -19.337   2.077  1.00  0.00     0.118 A 
HETATM   17  C   UNL     1      44.302 -18.877   4.619  1.00  0.00     0.052 A 
HETATM   18  N   UNL     1      43.127 -16.686   4.451  1.00  0.00    -0.241 NA
HETATM   19  C   UNL     1      44.530 -20.032   3.966  1.00  0.00     0.024 A 
HETATM   20  C   UNL     1      43.963 -20.284   2.647  1.00  0.00     0.027 A 
HETATM   21 BR   UNL     1      44.329 -21.908   1.817  1.00  0.00    -0.050 Br
HETATM   22  C   UNL     1      42.340 -16.165   3.465  1.00  0.00     0.146 A 
ENDBRANCH  12  13
ENDBRANCH   1  12
TORSDOF 4
ENDMDL
MODEL 2
REMARK VINA RESULT:      -7.0      1.600      2.108
REMARK  4 active torsions:
REMARK  status: ('A' for Active; 'I' for Inactive)
REMARK    1  A    between atoms: O_2  and  C_3 
REMARK    2  A    between atoms: C_5  and  N_6 
REMARK    3  A    between atoms: N_6  and  C_7 
REMARK    4  A    between atoms: C_7  and  C_8 
ROOT
HETATM    1  N   UNL     1      40.653 -15.922   0.559  1.00  0.00    -0.371 N 
HETATM    2  H   UNL     1      40.243 -15.413   1.334  1.00  0.00     0.161 HD
ENDROOT
BRANCH   1   3
HETATM    3  C   UNL     1      40.958 -15.290  -0.618  1.00  0.00     0.103 A 
HETATM    4  C   UNL     1      41.570 -14.039  -0.733  1.00  0.00     0.085 A 
HETATM    5  C   UNL     1      41.860 -13.497  -1.988  1.00  0.00     0.073 A 
HETATM    6  C   UNL     1      41.538 -14.216  -3.128  1.00  0.00     0.053 A 
HETATM    7  C   UNL     1      40.939 -15.457  -2.980  1.00  0.00     0.092 A 
HETATM    8  N   UNL     1      40.678 -15.943  -1.759  1.00  0.00    -0.352 N 
HETATM    9  H   UNL     1      40.252 -16.861  -1.678  1.00  0.00     0.166 HD
BRANCH   5  10
HETATM   10  O   UNL     1      42.457 -12.272  -1.952  1.00  0.00    -0.356 OA
HETATM   11  C   UNL     1      42.484 -11.511  -3.157  1.00  0.00     0.210 C 
ENDBRANCH   5  10
ENDBRANCH   1   3
BRANCH   1  12
HETATM   12  C   UNL     1      41.239 -17.199   0.961  1.00  0.00     0.180 C 
BRANCH  12  13
HETATM   13  C   UNL     1      42.019 -17.166   2.223  1.00  0.00     0.053 A 
HETATM   14  N   UNL     1      42.833 -18.205   2.644  1.00  0.00    -0.306 N 
HETATM   15  C   UNL     1      43.382 -17.813   3.862  1.00  0.00     0.133 A 
HETATM   16  C   UNL     1      43.110 -19.436   2.047  1.00  0.00     0.118 A 
HETATM   17  C   UNL     1      44.262 -18.724   4.509  1.00  0.00     0.052 A 
HETATM   18  N   UNL     1      42.966 -16.617   4.215  1.00  0.00    -0.241 NA
HETATM   19  C   UNL     1      44.533 -19.914   3.938  1.00  0.00     0.024 A 
HETATM   20  C   UNL     1      43.943 -20.295   2.661  1.00  0.00     0.027 A 
HETATM   21 BR   UNL     1      44.372 -21.957   1.944  1.00  0.00    -0.050 Br
HETATM   22  C   UNL     1      42.123 -16.216   3.219  1.00  0.00     0.146 A 
ENDBRANCH  12  13
ENDBRANCH   1  12
TORSDOF 4
ENDMDL
MODEL 3
REMARK VINA RESULT:      -6.9      3.895      5.203
REMARK  4 active torsions:
REMARK  status: ('A' for Active; 'I' for Inactive)
REMARK    1  A    between atoms: O_2  and  C_3 
REMARK    2  A    between atoms: C_5  and  N_6 
REMARK    3  A    between atoms: N_6  and  C_7 
REMARK    4  A    between atoms: C_7  and  C_8 
ROOT
HETATM    1  N   UNL     1      41.468 -16.168   6.637  1.00  0.00    -0.371 N 
HETATM    2  H   UNL     1      40.969 -16.619   7.394  1.00  0.00     0.161 HD
ENDROOT
BRANCH   1   3
HETATM    3  C   UNL     1      40.871 -15.190   5.884  1.00  0.00     0.103 A 
HETATM    4  C   UNL     1      40.757 -15.194   4.491  1.00  0.00     0.085 A 
HETATM    5  C   UNL     1      40.104 -14.154   3.824  1.00  0.00     0.073 A 
HETATM    6  C   UNL     1      39.560 -13.112   4.558  1.00  0.00     0.053 A 
HETATM    7  C   UNL     1      39.684 -13.142   5.939  1.00  0.00     0.092 A 
HETATM    8  N   UNL     1      40.317 -14.157   6.541  1.00  0.00    -0.352 N 
HETATM    9  H   UNL     1      40.380 -14.163   7.555  1.00  0.00     0.166 HD
BRANCH   5  10
HETATM   10  O   UNL     1      40.067 -14.287   2.467  1.00  0.00    -0.356 OA
HETATM   11  C   UNL     1      39.297 -15.357   1.926  1.00  0.00     0.210 C 
ENDBRANCH   5  10
ENDBRANCH   1   3
BRANCH   1  12
HETATM   12  C   UNL     1      42.915 -16.349   6.718  1.00  0.00     0.180 C 
BRANCH  12  13
HETATM   13  C   UNL     1      43.395 -17.727   6.450  1.00  0.00     0.053 A 
HETATM   14  N   UNL     1      43.660 -18.209   5.179  1.00  0.00    -0.306 N 
HETATM   15  C   UNL     1      44.075 -19.530   5.332  1.00  0.00     0.133 A 
HETATM   16  C   UNL     1      43.559 -17.584   3.935  1.00  0.00     0.118 A 
HETATM   17  C   UNL     1      44.406 -20.254   4.153  1.00  0.00     0.052 A 
HETATM   18  N   UNL     1      44.083 -19.889   6.596  1.00  0.00    -0.241 NA
HETATM   19  C   UNL     1      44.310 -19.656   2.950  1.00  0.00     0.024 A 
HETATM   20  C   UNL     1      43.873 -18.272   2.823  1.00  0.00     0.027 A 
HETATM   21 BR   UNL     1      43.769 -17.524   1.122  1.00  0.00    -0.050 Br
HETATM   22  C   UNL     1      43.659 -18.791   7.289  1.00  0.00     0.146 A 
ENDBRANCH  12  13
ENDBRANCH   1  12
TORSDOF 4
ENDMDL
MODEL 4
REMARK VINA RESULT:      -6.8      3.859      7.767
REMARK  4 active torsions:
REMARK  status: ('A' for Active; 'I' for Inactive)
REMARK    1  A    between atoms: O_2  and  C_3 
REMARK    2  A    between atoms: C_5  and  N_6 
REMARK    3  A    between atoms: N_6  and  C_7 
REMARK    4  A    between atoms: C_7  and  C_8 
ROOT
HETATM    1  N   UNL     1      42.513 -16.303   0.139  1.00  0.00    -0.371 N 
HETATM    2  H   UNL     1      43.320 -15.948  -0.359  1.00  0.00     0.161 HD
ENDROOT
BRANCH   1   3
HETATM    3  C   UNL     1      42.660 -17.100   1.244  1.00  0.00     0.103 A 
HETATM    4  C   UNL     1      43.542 -18.178   1.356  1.00  0.00     0.085 A 
HETATM    5  C   UNL     1      43.630 -18.910   2.543  1.00  0.00     0.073 A 
HETATM    6  C   UNL     1      42.834 -18.554   3.621  1.00  0.00     0.053 A 
HETATM    7  C   UNL     1      41.976 -17.474   3.480  1.00  0.00     0.092 A 
HETATM    8  N   UNL     1      41.921 -16.797   2.325  1.00  0.00    -0.352 N 
HETATM    9  H   UNL     1      41.295 -16.001   2.253  1.00  0.00     0.166 HD
BRANCH   5  10
HETATM   10  O   UNL     1      44.530 -19.934   2.512  1.00  0.00    -0.356 OA
HETATM   11  C   UNL     1      44.059 -21.220   2.118  1.00  0.00     0.210 C 
ENDBRANCH   5  10
ENDBRANCH   1   3
BRANCH   1  12
HETATM   12  C   UNL     1      41.286 -15.570  -0.166  1.00  0.00     0.180 C 
BRANCH  12  13
HETATM   13  C   UNL     1      41.181 -15.065  -1.557  1.00  0.00     0.053 A 
HETATM   14  N   UNL     1      41.613 -13.807  -1.947  1.00  0.00    -0.306 N 
HETATM   15  C   UNL     1      41.340 -13.697  -3.309  1.00  0.00     0.133 A 
HETATM   16  C   UNL     1      42.206 -12.785  -1.206  1.00  0.00     0.118 A 
HETATM   17  C   UNL     1      41.691 -12.477  -3.951  1.00  0.00     0.052 A 
HETATM   18  N   UNL     1      40.777 -14.788  -3.777  1.00  0.00    -0.241 NA
HETATM   19  C   UNL     1      42.264 -11.486  -3.240  1.00  0.00     0.024 A 
HETATM   20  C   UNL     1      42.537 -11.633  -1.816  1.00  0.00     0.027 A 
HETATM   21 BR   UNL     1      43.331 -10.214  -0.913  1.00  0.00    -0.050 Br
HETATM   22  C   UNL     1      40.668 -15.630  -2.708  1.00  0.00     0.146 A 
ENDBRANCH  12  13
ENDBRANCH   1  12
TORSDOF 4
ENDMDL
MODEL 5
REMARK VINA RESULT:      -6.7      3.486      4.642
REMARK  4 active torsions:
REMARK  status: ('A' for Active; 'I' for Inactive)
REMARK    1  A    between atoms: O_2  and  C_3 
REMARK    2  A    between atoms: C_5  and  N_6 
REMARK    3  A    between atoms: N_6  and  C_7 
REMARK    4  A    between atoms: C_7  and  C_8 
ROOT
HETATM    1  N   UNL     1      41.284 -17.572   1.481  1.00  0.00    -0.371 N 
HETATM    2  H   UNL     1      40.821 -18.466   1.595  1.00  0.00     0.161 HD
ENDROOT
BRANCH   1   3
HETATM    3  C   UNL     1      40.645 -16.401   1.801  1.00  0.00     0.103 A 
HETATM    4  C   UNL     1      40.509 -15.877   3.089  1.00  0.00     0.085 A 
HETATM    5  C   UNL     1      39.859 -14.658   3.300  1.00  0.00     0.073 A 
HETATM    6  C   UNL     1      39.350 -13.964   2.214  1.00  0.00     0.053 A 
HETATM    7  C   UNL     1      39.508 -14.508   0.949  1.00  0.00     0.092 A 
HETATM    8  N   UNL     1      40.138 -15.679   0.788  1.00  0.00    -0.352 N 
HETATM    9  H   UNL     1      40.254 -16.048  -0.151  1.00  0.00     0.166 HD
BRANCH   5  10
HETATM   10  O   UNL     1      39.799 -14.266   4.604  1.00  0.00    -0.356 OA
HETATM   11  C   UNL     1      40.470 -15.070   5.570  1.00  0.00     0.210 C 
ENDBRANCH   5  10
ENDBRANCH   1   3
BRANCH   1  12
HETATM   12  C   UNL     1      42.735 -17.690   1.367  1.00  0.00     0.180 C 
BRANCH  12  13
HETATM   13  C   UNL     1      43.348 -18.763   2.187  1.00  0.00     0.053 A 
HETATM   14  N   UNL     1      43.730 -18.591   3.508  1.00  0.00    -0.306 N 
HETATM   15  C   UNL     1      44.267 -19.804   3.930  1.00  0.00     0.133 A 
HETATM   16  C   UNL     1      43.642 -17.470   4.336  1.00  0.00     0.118 A 
HETATM   17  C   UNL     1      44.743 -19.882   5.268  1.00  0.00     0.052 A 
HETATM   18  N   UNL     1      44.243 -20.701   2.969  1.00  0.00    -0.241 NA
HETATM   19  C   UNL     1      44.661 -18.804   6.071  1.00  0.00     0.024 A 
HETATM   20  C   UNL     1      44.093 -17.547   5.600  1.00  0.00     0.027 A 
HETATM   21 BR   UNL     1      44.019 -16.108   6.778  1.00  0.00    -0.050 Br
HETATM   22  C   UNL     1      43.688 -20.069   1.894  1.00  0.00     0.146 A 
ENDBRANCH  12  13
ENDBRANCH   1  12
TORSDOF 4
ENDMDL
MODEL 6
REMARK VINA RESULT:      -6.7      3.202      3.838
REMARK  4 active torsions:
REMARK  status: ('A' for Active; 'I' for Inactive)
REMARK    1  A    between atoms: O_2  and  C_3 
REMARK    2  A    between atoms: C_5  and  N_6 
REMARK    3  A    between atoms: N_6  and  C_7 
REMARK    4  A    between atoms: C_7  and  C_8 
ROOT
HETATM    1  N   UNL     1      39.982 -16.441   2.681  1.00  0.00    -0.371 N 
HETATM    2  H   UNL     1      39.609 -17.003   3.437  1.00  0.00     0.161 HD
ENDROOT
BRANCH   1   3
HETATM    3  C   UNL     1      39.451 -15.211   2.387  1.00  0.00     0.103 A 
HETATM    4  C   UNL     1      39.840 -14.000   2.964  1.00  0.00     0.085 A 
HETATM    5  C   UNL     1      39.247 -12.797   2.571  1.00  0.00     0.073 A 
HETATM    6  C   UNL     1      38.266 -12.813   1.592  1.00  0.00     0.053 A 
HETATM    7  C   UNL     1      37.909 -14.030   1.034  1.00  0.00     0.092 A 
HETATM    8  N   UNL     1      38.501 -15.162   1.438  1.00  0.00    -0.352 N 
HETATM    9  H   UNL     1      38.231 -16.038   1.003  1.00  0.00     0.166 HD
BRANCH   5  10
HETATM   10  O   UNL     1      39.723 -11.693   3.215  1.00  0.00    -0.356 OA
HETATM   11  C   UNL     1      40.700 -11.890   4.234  1.00  0.00     0.210 C 
ENDBRANCH   5  10
ENDBRANCH   1   3
BRANCH   1  12
HETATM   12  C   UNL     1      41.318 -16.859   2.265  1.00  0.00     0.180 C 
BRANCH  12  13
HETATM   13  C   UNL     1      42.273 -17.115   3.370  1.00  0.00     0.053 A 
HETATM   14  N   UNL     1      43.073 -18.245   3.443  1.00  0.00    -0.306 N 
HETATM   15  C   UNL     1      43.817 -18.132   4.615  1.00  0.00     0.133 A 
HETATM   16  C   UNL     1      43.181 -19.333   2.576  1.00  0.00     0.118 A 
HETATM   17  C   UNL     1      44.722 -19.186   4.921  1.00  0.00     0.052 A 
HETATM   18  N   UNL     1      43.533 -17.023   5.261  1.00  0.00    -0.241 NA
HETATM   19  C   UNL     1      44.831 -20.239   4.088  1.00  0.00     0.024 A 
HETATM   20  C   UNL     1      44.038 -20.327   2.868  1.00  0.00     0.027 A 
HETATM   21 BR   UNL     1      44.252 -21.817   1.775  1.00  0.00    -0.050 Br
HETATM   22  C   UNL     1      42.581 -16.396   4.508  1.00  0.00     0.146 A 
ENDBRANCH  12  13
ENDBRANCH   1  12
TORSDOF 4
ENDMDL
MODEL 7
REMARK VINA RESULT:      -6.7      1.971      2.251
REMARK  4 active torsions:
REMARK  status: ('A' for Active; 'I' for Inactive)
REMARK    1  A    between atoms: O_2  and  C_3 
REMARK    2  A    between atoms: C_5  and  N_6 
REMARK    3  A    between atoms: N_6  and  C_7 
REMARK    4  A    between atoms: C_7  and  C_8 
ROOT
HETATM    1  N   UNL     1      39.884 -15.918   2.451  1.00  0.00    -0.371 N 
HETATM    2  H   UNL     1      39.811 -15.631   3.420  1.00  0.00     0.161 HD
ENDROOT
BRANCH   1   3
HETATM    3  C   UNL     1      39.434 -15.108   1.440  1.00  0.00     0.103 A 
HETATM    4  C   UNL     1      40.215 -14.602   0.397  1.00  0.00     0.085 A 
HETATM    5  C   UNL     1      39.647 -13.804  -0.599  1.00  0.00     0.073 A 
HETATM    6  C   UNL     1      38.291 -13.521  -0.551  1.00  0.00     0.053 A 
HETATM    7  C   UNL     1      37.543 -14.045   0.492  1.00  0.00     0.092 A 
HETATM    8  N   UNL     1      38.125 -14.806   1.428  1.00  0.00    -0.352 N 
HETATM    9  H   UNL     1      37.552 -15.191   2.173  1.00  0.00     0.166 HD
BRANCH   5  10
HETATM   10  O   UNL     1      40.523 -13.379  -1.554  1.00  0.00    -0.356 OA
HETATM   11  C   UNL     1      41.900 -13.290  -1.197  1.00  0.00     0.210 C 
ENDBRANCH   5  10
ENDBRANCH   1   3
BRANCH   1  12
HETATM   12  C   UNL     1      40.841 -17.002   2.247  1.00  0.00     0.180 C 
BRANCH  12  13
HETATM   13  C   UNL     1      41.848 -17.167   3.324  1.00  0.00     0.053 A 
HETATM   14  N   UNL     1      42.742 -18.225   3.379  1.00  0.00    -0.306 N 
HETATM   15  C   UNL     1      43.509 -18.039   4.526  1.00  0.00     0.133 A 
HETATM   16  C   UNL     1      42.916 -19.307   2.515  1.00  0.00     0.118 A 
HETATM   17  C   UNL     1      44.509 -19.011   4.811  1.00  0.00     0.052 A 
HETATM   18  N   UNL     1      43.152 -16.953   5.174  1.00  0.00    -0.241 NA
HETATM   19  C   UNL     1      44.681 -20.058   3.981  1.00  0.00     0.024 A 
HETATM   20  C   UNL     1      43.862 -20.223   2.787  1.00  0.00     0.027 A 
HETATM   21 BR   UNL     1      44.168 -21.699   1.697  1.00  0.00    -0.050 Br
HETATM   22  C   UNL     1      42.128 -16.415   4.448  1.00  0.00     0.146 A 
ENDBRANCH  12  13
ENDBRANCH   1  12
TORSDOF 4
ENDMDL
MODEL 8
REMARK VINA RESULT:      -6.7      4.401      7.354
REMARK  4 active torsions:
REMARK  status: ('A' for Active; 'I' for Inactive)
REMARK    1  A    between atoms: O_2  and  C_3 
REMARK    2  A    between atoms: C_5  and  N_6 
REMARK    3  A    between atoms: N_6  and  C_7 
REMARK    4  A    between atoms: C_7  and  C_8 
ROOT
HETATM    1  N   UNL     1      43.582 -18.835   1.588  1.00  0.00    -0.371 N 
HETATM    2  H   UNL     1      43.540 -19.216   0.650  1.00  0.00     0.161 HD
ENDROOT
BRANCH   1   3
HETATM    3  C   UNL     1      43.996 -19.605   2.644  1.00  0.00     0.103 A 
HETATM    4  C   UNL     1      44.138 -19.165   3.962  1.00  0.00     0.085 A 
HETATM    5  C   UNL     1      44.543 -20.044   4.971  1.00  0.00     0.073 A 
HETATM    6  C   UNL     1      44.800 -21.368   4.653  1.00  0.00     0.053 A 
HETATM    7  C   UNL     1      44.643 -21.774   3.337  1.00  0.00     0.092 A 
HETATM    8  N   UNL     1      44.252 -20.901   2.399  1.00  0.00    -0.352 N 
HETATM    9  H   UNL     1      44.129 -21.228   1.446  1.00  0.00     0.166 HD
BRANCH   5  10
HETATM   10  O   UNL     1      44.639 -19.481   6.209  1.00  0.00    -0.356 OA
HETATM   11  C   UNL     1      45.140 -18.149   6.295  1.00  0.00     0.210 C 
ENDBRANCH   5  10
ENDBRANCH   1   3
BRANCH   1  12
HETATM   12  C   UNL     1      43.576 -17.374   1.611  1.00  0.00     0.180 C 
BRANCH  12  13
HETATM   13  C   UNL     1      42.305 -16.755   2.058  1.00  0.00     0.053 A 
HETATM   14  N   UNL     1      42.190 -15.991   3.208  1.00  0.00    -0.306 N 
HETATM   15  C   UNL     1      40.857 -15.598   3.294  1.00  0.00     0.133 A 
HETATM   16  C   UNL     1      43.150 -15.633   4.155  1.00  0.00     0.118 A 
HETATM   17  C   UNL     1      40.480 -14.797   4.408  1.00  0.00     0.052 A 
HETATM   18  N   UNL     1      40.151 -16.064   2.288  1.00  0.00    -0.241 NA
HETATM   19  C   UNL     1      41.402 -14.449   5.325  1.00  0.00     0.024 A 
HETATM   20  C   UNL     1      42.790 -14.876   5.206  1.00  0.00     0.027 A 
HETATM   21 BR   UNL     1      43.998 -14.349   6.520  1.00  0.00    -0.050 Br
HETATM   22  C   UNL     1      41.030 -16.781   1.528  1.00  0.00     0.146 A 
ENDBRANCH  12  13
ENDBRANCH   1  12
TORSDOF 4
ENDMDL
MODEL 9
REMARK VINA RESULT:      -6.6      4.616      7.790
REMARK  4 active torsions:
REMARK  status: ('A' for Active; 'I' for Inactive)
REMARK    1  A    between atoms: O_2  and  C_3 
REMARK    2  A    between atoms: C_5  and  N_6 
REMARK    3  A    between atoms: N_6  and  C_7 
REMARK    4  A    between atoms: C_7  and  C_8 
ROOT
HETATM    1  N   UNL     1      44.196 -18.355   4.759  1.00  0.00    -0.371 N 
HETATM    2  H   UNL     1      45.004 -17.757   4.888  1.00  0.00     0.161 HD
ENDROOT
BRANCH   1   3
HETATM    3  C   UNL     1      44.333 -19.717   4.675  1.00  0.00     0.103 A 
HETATM    4  C   UNL     1      44.488 -20.446   3.493  1.00  0.00     0.085 A 
HETATM    5  C   UNL     1      44.646 -21.834   3.524  1.00  0.00     0.073 A 
HETATM    6  C   UNL     1      44.652 -22.489   4.745  1.00  0.00     0.053 A 
HETATM    7  C   UNL     1      44.503 -21.736   5.900  1.00  0.00     0.092 A 
HETATM    8  N   UNL     1      44.355 -20.406   5.828  1.00  0.00    -0.352 N 
HETATM    9  H   UNL     1      44.263 -19.876   6.689  1.00  0.00     0.166 HD
BRANCH   5  10
HETATM   10  O   UNL     1      44.788 -22.416   2.299  1.00  0.00    -0.356 OA
HETATM   11  C   UNL     1      43.915 -21.989   1.257  1.00  0.00     0.210 C 
ENDBRANCH   5  10
ENDBRANCH   1   3
BRANCH   1  12
HETATM   12  C   UNL     1      42.937 -17.692   5.088  1.00  0.00     0.180 C 
BRANCH  12  13
HETATM   13  C   UNL     1      42.146 -17.224   3.924  1.00  0.00     0.053 A 
HETATM   14  N   UNL     1      41.336 -16.099   3.954  1.00  0.00    -0.306 N 
HETATM   15  C   UNL     1      40.758 -15.991   2.691  1.00  0.00     0.133 A 
HETATM   16  C   UNL     1      41.080 -15.197   4.987  1.00  0.00     0.118 A 
HETATM   17  C   UNL     1      39.869 -14.903   2.468  1.00  0.00     0.052 A 
HETATM   18  N   UNL     1      41.152 -16.961   1.896  1.00  0.00    -0.241 NA
HETATM   19  C   UNL     1      39.617 -14.030   3.462  1.00  0.00     0.024 A 
HETATM   20  C   UNL     1      40.239 -14.170   4.772  1.00  0.00     0.027 A 
HETATM   21 BR   UNL     1      39.834 -12.916   6.087  1.00  0.00    -0.050 Br
HETATM   22  C   UNL     1      41.998 -17.726   2.647  1.00  0.00     0.146 A 
ENDBRANCH  12  13
ENDBRANCH   1  12
TORSDOF 4
ENDMDL
MODEL 10
REMARK VINA RESULT:      -6.6      2.262      2.990
REMARK  4 active torsions:
REMARK  status: ('A' for Active; 'I' for Inactive)
REMARK    1  A    between atoms: O_2  and  C_3 
REMARK    2  A    between atoms: C_5  and  N_6 
REMARK    3  A    between atoms: N_6  and  C_7 
REMARK    4  A    between atoms: C_7  and  C_8 
ROOT
HETATM    1  N   UNL     1      41.639 -16.916   3.399  1.00  0.00    -0.371 N 
HETATM    2  H   UNL     1      41.112 -17.484   4.052  1.00  0.00     0.161 HD
ENDROOT
BRANCH   1   3
HETATM    3  C   UNL     1      41.002 -16.113   2.490  1.00  0.00     0.103 A 
HETATM    4  C   UNL     1      41.435 -15.860   1.186  1.00  0.00     0.085 A 
HETATM    5  C   UNL     1      40.692 -15.043   0.330  1.00  0.00     0.073 A 
HETATM    6  C   UNL     1      39.509 -14.482   0.785  1.00  0.00     0.053 A 
HETATM    7  C   UNL     1      39.103 -14.759   2.082  1.00  0.00     0.092 A 
HETATM    8  N   UNL     1      39.843 -15.548   2.871  1.00  0.00    -0.352 N 
HETATM    9  H   UNL     1      39.515 -15.747   3.811  1.00  0.00     0.166 HD
BRANCH   5  10
HETATM   10  O   UNL     1      41.231 -14.883  -0.912  1.00  0.00    -0.356 OA
HETATM   11  C   UNL     1      41.796 -13.615  -1.232  1.00  0.00     0.210 C 
ENDBRANCH   5  10
ENDBRANCH   1   3
BRANCH   1  12
HETATM   12  C   UNL     1      43.032 -16.730   3.799  1.00  0.00     0.180 C 
BRANCH  12  13
HETATM   13  C   UNL     1      43.548 -17.724   4.771  1.00  0.00     0.053 A 
HETATM   14  N   UNL     1      43.902 -19.019   4.424  1.00  0.00    -0.306 N 
HETATM   15  C   UNL     1      44.326 -19.643   5.594  1.00  0.00     0.133 A 
HETATM   16  C   UNL     1      43.873 -19.663   3.187  1.00  0.00     0.118 A 
HETATM   17  C   UNL     1      44.743 -21.000   5.500  1.00  0.00     0.052 A 
HETATM   18  N   UNL     1      44.258 -18.832   6.626  1.00  0.00    -0.241 NA
HETATM   19  C   UNL     1      44.716 -21.628   4.308  1.00  0.00     0.024 A 
HETATM   20  C   UNL     1      44.267 -20.946   3.101  1.00  0.00     0.027 A 
HETATM   21 BR   UNL     1      44.263 -21.889   1.497  1.00  0.00    -0.050 Br
HETATM   22  C   UNL     1      43.774 -17.654   6.131  1.00  0.00     0.146 A 
ENDBRANCH  12  13
ENDBRANCH   1  12
TORSDOF 4
ENDMDL
