MODEL 1
REMARK VINA RESULT:     -10.8      0.000      0.000
REMARK  4 active torsions:
REMARK  status: ('A' for Active; 'I' for Inactive)
REMARK    1  A    between atoms: N_5  and  C_6 
REMARK    2  A    between atoms: C_6  and  C_7 
REMARK    3  A    between atoms: C_7  and  C_8 
REMARK    4  A    between atoms: C_8  and  N_9 
ROOT
HETATM    1  C   UNL     1      41.795 -16.582   0.966  1.00  0.00     0.236 C 
ENDROOT
BRANCH   1   2
HETATM    2  C   UNL     1      43.048 -17.451   0.870  1.00  0.00     0.048 C 
BRANCH   2   3
HETATM    3  C   UNL     1      43.966 -17.150   2.069  1.00  0.00     0.131 C 
BRANCH   3   4
HETATM    4  N   UNL     1      43.674 -18.037   3.210  1.00  0.00    -0.346 N 
HETATM    5  C   UNL     1      43.966 -19.418   3.064  1.00  0.00     0.041 A 
HETATM    6  C   UNL     1      44.420 -20.250   4.111  1.00  0.00    -0.031 A 
HETATM    7  C   UNL     1      43.720 -20.049   1.821  1.00  0.00     0.030 A 
HETATM    8  C   UNL     1      44.641 -21.630   3.867  1.00  0.00     0.009 A 
HETATM    9  C   UNL     1      44.669 -19.823   5.541  1.00  0.00     0.045 C 
HETATM   10  C   UNL     1      44.431 -22.200   2.618  1.00  0.00     0.001 A 
HETATM   11  C   UNL     1      43.959 -21.408   1.590  1.00  0.00     0.002 A 
HETATM   12  C   UNL     1      45.036 -18.364   5.761  1.00  0.00     0.045 C 
HETATM   13  C   UNL     1      43.826 -17.485   5.607  1.00  0.00    -0.031 A 
HETATM   14  C   UNL     1      43.191 -17.372   4.361  1.00  0.00     0.042 A 
HETATM   15  C   UNL     1      43.329 -16.789   6.726  1.00  0.00     0.011 A 
HETATM   16  C   UNL     1      42.051 -16.552   4.275  1.00  0.00     0.054 A 
HETATM   17  C   UNL     1      41.581 -15.844   5.382  1.00  0.00     0.036 A 
HETATM   18 CL   UNL     1      40.244 -14.778   5.202  1.00  0.00    -0.084 Cl
HETATM   19  C   UNL     1      42.213 -15.963   6.611  1.00  0.00     0.024 A 
ENDBRANCH   3   4
ENDBRANCH   2   3
ENDBRANCH   1   2
BRANCH   1  20
HETATM   20  N   UNL     1      41.651 -15.537  -0.161  1.00  0.00    -0.071 N 
HETATM   21  H   UNL     1      42.637 -15.366  -0.414  1.00  0.00     0.279 HD
HETATM   22  C   UNL     1      41.068 -14.201   0.225  1.00  0.00     0.238 C 
HETATM   23  C   UNL     1      40.139 -13.582  -0.816  1.00  0.00     0.077 C 
HETATM   24  C   UNL     1      40.395 -13.929  -2.289  1.00  0.00     0.212 C 
HETATM   25  N   UNL     1      41.058 -12.802  -3.084  1.00  0.00    -0.032 N 
HETATM   26  C   UNL     1      39.022 -13.991  -2.990  1.00  0.00     0.256 C 
HETATM   27  C   UNL     1      41.145 -15.237  -2.535  1.00  0.00     0.077 C 
HETATM   28  H   UNL     1      41.353 -13.236  -3.972  1.00  0.00     0.283 HD
HETATM   29  C   UNL     1      39.933 -11.918  -3.536  1.00  0.00     0.290 C 
HETATM   30  C   UNL     1      42.232 -12.038  -2.573  1.00  0.00     0.239 C 
HETATM   31  C   UNL     1      40.412 -11.087  -4.714  1.00  0.00     0.055 C 
HETATM   32  N   UNL     1      38.928 -12.877  -3.806  1.00  0.00    -0.331 N 
HETATM   33  C   UNL     1      41.668 -10.292  -4.331  1.00  0.00     0.005 C 
HETATM   34  C   UNL     1      42.759 -11.176  -3.717  1.00  0.00     0.028 C 
HETATM   35  H   UNL     1      38.025 -12.648  -4.219  1.00  0.00     0.164 HD
HETATM   36  O   UNL     1      38.188 -14.862  -2.842  1.00  0.00    -0.271 OA
HETATM   37  C   UNL     1      40.984 -16.180  -1.359  1.00  0.00     0.238 C 
ENDBRANCH   1  20
TORSDOF 4
ENDMDL
MODEL 2
REMARK VINA RESULT:     -10.6      2.427      4.398
REMARK  4 active torsions:
REMARK  status: ('A' for Active; 'I' for Inactive)
REMARK    1  A    between atoms: N_5  and  C_6 
REMARK    2  A    between atoms: C_6  and  C_7 
REMARK    3  A    between atoms: C_7  and  C_8 
REMARK    4  A    between atoms: C_8  and  N_9 
ROOT
HETATM    1  C   UNL     1      40.223 -16.976   1.931  1.00  0.00     0.236 C 
ENDROOT
BRANCH   1   2
HETATM    2  C   UNL     1      41.626 -17.324   2.425  1.00  0.00     0.048 C 
BRANCH   2   3
HETATM    3  C   UNL     1      41.561 -17.681   3.922  1.00  0.00     0.131 C 
BRANCH   3   4
HETATM    4  N   UNL     1      42.904 -17.708   4.529  1.00  0.00    -0.346 N 
HETATM    5  C   UNL     1      43.362 -16.530   5.174  1.00  0.00     0.041 A 
HETATM    6  C   UNL     1      44.183 -16.518   6.323  1.00  0.00    -0.031 A 
HETATM    7  C   UNL     1      43.059 -15.269   4.605  1.00  0.00     0.030 A 
HETATM    8  C   UNL     1      44.619 -15.282   6.863  1.00  0.00     0.009 A 
HETATM    9  C   UNL     1      44.705 -17.737   7.053  1.00  0.00     0.045 C 
HETATM   10  C   UNL     1      44.261 -14.064   6.299  1.00  0.00     0.001 A 
HETATM   11  C   UNL     1      43.483 -14.056   5.158  1.00  0.00     0.002 A 
HETATM   12  C   UNL     1      43.869 -19.002   6.951  1.00  0.00     0.045 C 
HETATM   13  C   UNL     1      44.022 -19.630   5.594  1.00  0.00    -0.031 A 
HETATM   14  C   UNL     1      43.557 -18.961   4.451  1.00  0.00     0.042 A 
HETATM   15  C   UNL     1      44.647 -20.887   5.479  1.00  0.00     0.011 A 
HETATM   16  C   UNL     1      43.743 -19.583   3.203  1.00  0.00     0.054 A 
HETATM   17  C   UNL     1      44.338 -20.840   3.100  1.00  0.00     0.036 A 
HETATM   18 CL   UNL     1      44.451 -21.602   1.563  1.00  0.00    -0.084 Cl
HETATM   19  C   UNL     1      44.797 -21.494   4.234  1.00  0.00     0.024 A 
ENDBRANCH   3   4
ENDBRANCH   2   3
ENDBRANCH   1   2
BRANCH   1  20
HETATM   20  N   UNL     1      40.162 -15.771   0.967  1.00  0.00    -0.071 N 
HETATM   21  H   UNL     1      39.196 -15.839   0.611  1.00  0.00     0.279 HD
HETATM   22  C   UNL     1      41.070 -15.821  -0.237  1.00  0.00     0.238 C 
HETATM   23  C   UNL     1      41.687 -14.482  -0.629  1.00  0.00     0.077 C 
HETATM   24  C   UNL     1      40.893 -13.211  -0.299  1.00  0.00     0.212 C 
HETATM   25  N   UNL     1      40.213 -12.574  -1.513  1.00  0.00    -0.032 N 
HETATM   26  C   UNL     1      41.915 -12.111   0.055  1.00  0.00     0.256 C 
HETATM   27  C   UNL     1      39.884 -13.345   0.840  1.00  0.00     0.077 C 
HETATM   28  H   UNL     1      39.563 -11.874  -1.122  1.00  0.00     0.283 HD
HETATM   29  C   UNL     1      41.257 -11.701  -2.143  1.00  0.00     0.290 C 
HETATM   30  C   UNL     1      39.436 -13.366  -2.508  1.00  0.00     0.239 C 
HETATM   31  C   UNL     1      40.566 -10.671  -3.019  1.00  0.00     0.055 C 
HETATM   32  N   UNL     1      41.925 -11.209  -0.995  1.00  0.00    -0.331 N 
HETATM   33  C   UNL     1      39.676 -11.366  -4.058  1.00  0.00     0.005 C 
HETATM   34  C   UNL     1      38.716 -12.381  -3.426  1.00  0.00     0.028 C 
HETATM   35  H   UNL     1      42.661 -10.505  -1.028  1.00  0.00     0.164 HD
HETATM   36  O   UNL     1      42.581 -12.060   1.069  1.00  0.00    -0.271 OA
HETATM   37  C   UNL     1      40.261 -14.487   1.764  1.00  0.00     0.238 C 
ENDBRANCH   1  20
TORSDOF 4
ENDMDL
MODEL 3
REMARK VINA RESULT:     -10.6      2.048      3.887
REMARK  4 active torsions:
REMARK  status: ('A' for Active; 'I' for Inactive)
REMARK    1  A    between atoms: N_5  and  C_6 
REMARK    2  A    between atoms: C_6  and  C_7 
REMARK    3  A    between atoms: C_7  and  C_8 
REMARK    4  A    between atoms: C_8  and  N_9 
ROOT
HETATM    1  C   UNL     1      40.432 -16.395   2.095  1.00  0.00     0.236 C 
ENDROOT
BRANCH   1   2
HETATM    2  C   UNL     1      41.534 -17.392   2.450  1.00  0.00     0.048 C 
BRANCH   2   3
HETATM    3  C   UNL     1      41.505 -17.660   3.966  1.00  0.00     0.131 C 
BRANCH   3   4
HETATM    4  N   UNL     1      42.864 -17.685   4.537  1.00  0.00    -0.346 N 
HETATM    5  C   UNL     1      43.333 -16.510   5.180  1.00  0.00     0.041 A 
HETATM    6  C   UNL     1      44.184 -16.504   6.306  1.00  0.00    -0.031 A 
HETATM    7  C   UNL     1      43.007 -15.246   4.631  1.00  0.00     0.030 A 
HETATM    8  C   UNL     1      44.628 -15.270   6.846  1.00  0.00     0.009 A 
HETATM    9  C   UNL     1      44.734 -17.726   7.010  1.00  0.00     0.045 C 
HETATM   10  C   UNL     1      44.248 -14.049   6.304  1.00  0.00     0.001 A 
HETATM   11  C   UNL     1      43.439 -14.036   5.185  1.00  0.00     0.002 A 
HETATM   12  C   UNL     1      43.902 -18.995   6.919  1.00  0.00     0.045 C 
HETATM   13  C   UNL     1      44.022 -19.610   5.552  1.00  0.00    -0.031 A 
HETATM   14  C   UNL     1      43.522 -18.933   4.429  1.00  0.00     0.042 A 
HETATM   15  C   UNL     1      44.651 -20.861   5.408  1.00  0.00     0.011 A 
HETATM   16  C   UNL     1      43.678 -19.542   3.170  1.00  0.00     0.054 A 
HETATM   17  C   UNL     1      44.277 -20.795   3.039  1.00  0.00     0.036 A 
HETATM   18 CL   UNL     1      44.353 -21.542   1.493  1.00  0.00    -0.084 Cl
HETATM   19  C   UNL     1      44.771 -21.457   4.154  1.00  0.00     0.024 A 
ENDBRANCH   3   4
ENDBRANCH   2   3
ENDBRANCH   1   2
BRANCH   1  20
HETATM   20  N   UNL     1      40.806 -15.396   0.979  1.00  0.00    -0.071 N 
HETATM   21  H   UNL     1      41.714 -15.038   1.316  1.00  0.00     0.279 HD
HETATM   22  C   UNL     1      39.905 -14.197   0.814  1.00  0.00     0.238 C 
HETATM   23  C   UNL     1      39.669 -13.767  -0.630  1.00  0.00     0.077 C 
HETATM   24  C   UNL     1      40.782 -14.056  -1.647  1.00  0.00     0.212 C 
HETATM   25  N   UNL     1      41.595 -12.822  -2.042  1.00  0.00    -0.032 N 
HETATM   26  C   UNL     1      40.100 -14.381  -2.993  1.00  0.00     0.256 C 
HETATM   27  C   UNL     1      41.730 -15.195  -1.276  1.00  0.00     0.077 C 
HETATM   28  H   UNL     1      42.414 -13.190  -2.550  1.00  0.00     0.283 HD
HETATM   29  C   UNL     1      40.819 -12.170  -3.148  1.00  0.00     0.290 C 
HETATM   30  C   UNL     1      42.117 -11.848  -1.042  1.00  0.00     0.239 C 
HETATM   31  C   UNL     1      41.754 -11.260  -3.927  1.00  0.00     0.055 C 
HETATM   32  N   UNL     1      40.323 -13.304  -3.834  1.00  0.00    -0.331 N 
HETATM   33  C   UNL     1      42.410 -10.240  -2.988  1.00  0.00     0.005 C 
HETATM   34  C   UNL     1      43.066 -10.898  -1.769  1.00  0.00     0.028 C 
HETATM   35  H   UNL     1      39.804 -13.253  -4.710  1.00  0.00     0.164 HD
HETATM   36  O   UNL     1      39.485 -15.395  -3.251  1.00  0.00    -0.271 OA
HETATM   37  C   UNL     1      41.068 -16.154  -0.306  1.00  0.00     0.238 C 
ENDBRANCH   1  20
TORSDOF 4
ENDMDL
MODEL 4
REMARK VINA RESULT:     -10.6      1.841      2.393
REMARK  4 active torsions:
REMARK  status: ('A' for Active; 'I' for Inactive)
REMARK    1  A    between atoms: N_5  and  C_6 
REMARK    2  A    between atoms: C_6  and  C_7 
REMARK    3  A    between atoms: C_7  and  C_8 
REMARK    4  A    between atoms: C_8  and  N_9 
ROOT
HETATM    1  C   UNL     1      41.420 -17.414   1.410  1.00  0.00     0.236 C 
ENDROOT
BRANCH   1   2
HETATM    2  C   UNL     1      42.874 -17.618   0.987  1.00  0.00     0.048 C 
BRANCH   2   3
HETATM    3  C   UNL     1      43.799 -17.240   2.158  1.00  0.00     0.131 C 
BRANCH   3   4
HETATM    4  N   UNL     1      43.600 -18.133   3.314  1.00  0.00    -0.346 N 
HETATM    5  C   UNL     1      43.923 -19.505   3.153  1.00  0.00     0.041 A 
HETATM    6  C   UNL     1      44.460 -20.322   4.171  1.00  0.00    -0.031 A 
HETATM    7  C   UNL     1      43.622 -20.145   1.926  1.00  0.00     0.030 A 
HETATM    8  C   UNL     1      44.706 -21.695   3.915  1.00  0.00     0.009 A 
HETATM    9  C   UNL     1      44.780 -19.884   5.585  1.00  0.00     0.045 C 
HETATM   10  C   UNL     1      44.440 -22.274   2.681  1.00  0.00     0.001 A 
HETATM   11  C   UNL     1      43.887 -21.497   1.682  1.00  0.00     0.002 A 
HETATM   12  C   UNL     1      45.117 -18.415   5.781  1.00  0.00     0.045 C 
HETATM   13  C   UNL     1      43.875 -17.571   5.699  1.00  0.00    -0.031 A 
HETATM   14  C   UNL     1      43.166 -17.479   4.492  1.00  0.00     0.042 A 
HETATM   15  C   UNL     1      43.425 -16.888   6.844  1.00  0.00     0.011 A 
HETATM   16  C   UNL     1      41.999 -16.693   4.472  1.00  0.00     0.054 A 
HETATM   17  C   UNL     1      41.575 -15.996   5.604  1.00  0.00     0.036 A 
HETATM   18 CL   UNL     1      40.200 -14.969   5.502  1.00  0.00    -0.084 Cl
HETATM   19  C   UNL     1      42.280 -16.095   6.795  1.00  0.00     0.024 A 
ENDBRANCH   3   4
ENDBRANCH   2   3
ENDBRANCH   1   2
BRANCH   1  20
HETATM   20  N   UNL     1      40.673 -16.311   0.629  1.00  0.00    -0.071 N 
HETATM   21  H   UNL     1      39.899 -16.845   0.203  1.00  0.00     0.279 HD
HETATM   22  C   UNL     1      41.423 -15.660  -0.507  1.00  0.00     0.238 C 
HETATM   23  C   UNL     1      41.181 -14.162  -0.660  1.00  0.00     0.077 C 
HETATM   24  C   UNL     1      39.822 -13.613  -0.202  1.00  0.00     0.212 C 
HETATM   25  N   UNL     1      38.871 -13.277  -1.353  1.00  0.00    -0.032 N 
HETATM   26  C   UNL     1      40.067 -12.203   0.374  1.00  0.00     0.256 C 
HETATM   27  C   UNL     1      39.089 -14.460   0.836  1.00  0.00     0.077 C 
HETATM   28  H   UNL     1      37.952 -13.126  -0.908  1.00  0.00     0.283 HD
HETATM   29  C   UNL     1      39.236 -11.886  -1.779  1.00  0.00     0.290 C 
HETATM   30  C   UNL     1      38.640 -14.199  -2.502  1.00  0.00     0.239 C 
HETATM   31  C   UNL     1      38.065 -11.289  -2.541  1.00  0.00     0.055 C 
HETATM   32  N   UNL     1      39.546 -11.295  -0.531  1.00  0.00    -0.331 N 
HETATM   33  C   UNL     1      37.686 -12.186  -3.726  1.00  0.00     0.005 C 
HETATM   34  C   UNL     1      37.471 -13.647  -3.313  1.00  0.00     0.028 C 
HETATM   35  H   UNL     1      39.765 -10.306  -0.413  1.00  0.00     0.164 HD
HETATM   36  O   UNL     1      40.618 -11.952   1.427  1.00  0.00    -0.271 OA
HETATM   37  C   UNL     1      40.061 -15.331   1.608  1.00  0.00     0.238 C 
ENDBRANCH   1  20
TORSDOF 4
ENDMDL
MODEL 5
REMARK VINA RESULT:     -10.4      6.036      9.900
REMARK  4 active torsions:
REMARK  status: ('A' for Active; 'I' for Inactive)
REMARK    1  A    between atoms: N_5  and  C_6 
REMARK    2  A    between atoms: C_6  and  C_7 
REMARK    3  A    between atoms: C_7  and  C_8 
REMARK    4  A    between atoms: C_8  and  N_9 
ROOT
HETATM    1  C   UNL     1      39.359 -12.582   6.178  1.00  0.00     0.236 C 
ENDROOT
BRANCH   1   2
HETATM    2  C   UNL     1      39.941 -13.920   5.724  1.00  0.00     0.048 C 
BRANCH   2   3
HETATM    3  C   UNL     1      40.663 -13.726   4.377  1.00  0.00     0.131 C 
BRANCH   3   4
HETATM    4  N   UNL     1      41.745 -14.712   4.198  1.00  0.00    -0.346 N 
HETATM    5  C   UNL     1      42.719 -14.819   5.224  1.00  0.00     0.041 A 
HETATM    6  C   UNL     1      43.346 -16.026   5.603  1.00  0.00    -0.031 A 
HETATM    7  C   UNL     1      43.170 -13.645   5.874  1.00  0.00     0.030 A 
HETATM    8  C   UNL     1      44.340 -16.014   6.615  1.00  0.00     0.009 A 
HETATM    9  C   UNL     1      43.094 -17.388   4.993  1.00  0.00     0.045 C 
HETATM   10  C   UNL     1      44.721 -14.845   7.261  1.00  0.00     0.001 A 
HETATM   11  C   UNL     1      44.139 -13.651   6.883  1.00  0.00     0.002 A 
HETATM   12  C   UNL     1      41.720 -17.616   4.383  1.00  0.00     0.045 C 
HETATM   13  C   UNL     1      41.599 -16.898   3.068  1.00  0.00    -0.031 A 
HETATM   14  C   UNL     1      41.634 -15.496   3.025  1.00  0.00     0.042 A 
HETATM   15  C   UNL     1      41.465 -17.644   1.881  1.00  0.00     0.011 A 
HETATM   16  C   UNL     1      41.537 -14.873   1.767  1.00  0.00     0.054 A 
HETATM   17  C   UNL     1      41.376 -15.618   0.599  1.00  0.00     0.036 A 
HETATM   18 CL   UNL     1      41.162 -14.807  -0.902  1.00  0.00    -0.084 Cl
HETATM   19  C   UNL     1      41.346 -17.004   0.649  1.00  0.00     0.024 A 
ENDBRANCH   3   4
ENDBRANCH   2   3
ENDBRANCH   1   2
BRANCH   1  20
HETATM   20  N   UNL     1      40.130 -11.907   7.334  1.00  0.00    -0.071 N 
HETATM   21  H   UNL     1      40.900 -12.577   7.490  1.00  0.00     0.279 HD
HETATM   22  C   UNL     1      39.401 -11.776   8.648  1.00  0.00     0.238 C 
HETATM   23  C   UNL     1      39.668 -10.477   9.402  1.00  0.00     0.077 C 
HETATM   24  C   UNL     1      41.031  -9.803   9.191  1.00  0.00     0.212 C 
HETATM   25  N   UNL     1      41.998  -9.982  10.364  1.00  0.00    -0.032 N 
HETATM   26  C   UNL     1      40.802  -8.278   9.252  1.00  0.00     0.256 C 
HETATM   27  C   UNL     1      41.741 -10.153   7.885  1.00  0.00     0.077 C 
HETATM   28  H   UNL     1      42.914  -9.670  10.008  1.00  0.00     0.283 HD
HETATM   29  C   UNL     1      41.658  -8.887  11.332  1.00  0.00     0.290 C 
HETATM   30  C   UNL     1      42.224 -11.298  11.026  1.00  0.00     0.239 C 
HETATM   31  C   UNL     1      42.845  -8.670  12.254  1.00  0.00     0.055 C 
HETATM   32  N   UNL     1      41.346  -7.830  10.443  1.00  0.00    -0.331 N 
HETATM   33  C   UNL     1      43.221  -9.980  12.958  1.00  0.00     0.005 C 
HETATM   34  C   UNL     1      43.410 -11.142  11.976  1.00  0.00     0.028 C 
HETATM   35  H   UNL     1      41.141  -6.878  10.747  1.00  0.00     0.164 HD
HETATM   36  O   UNL     1      40.246  -7.609   8.405  1.00  0.00    -0.271 OA
HETATM   37  C   UNL     1      40.748 -10.617   6.838  1.00  0.00     0.238 C 
ENDBRANCH   1  20
TORSDOF 4
ENDMDL
MODEL 6
REMARK VINA RESULT:     -10.3      2.947      9.396
REMARK  4 active torsions:
REMARK  status: ('A' for Active; 'I' for Inactive)
REMARK    1  A    between atoms: N_5  and  C_6 
REMARK    2  A    between atoms: C_6  and  C_7 
REMARK    3  A    between atoms: C_7  and  C_8 
REMARK    4  A    between atoms: C_8  and  N_9 
ROOT
HETATM    1  C   UNL     1      40.755 -14.784   1.650  1.00  0.00     0.236 C 
ENDROOT
BRANCH   1   2
HETATM    2  C   UNL     1      41.502 -13.701   0.872  1.00  0.00     0.048 C 
BRANCH   2   3
HETATM    3  C   UNL     1      41.736 -14.185  -0.571  1.00  0.00     0.131 C 
BRANCH   3   4
HETATM    4  N   UNL     1      40.890 -13.453  -1.530  1.00  0.00    -0.346 N 
HETATM    5  C   UNL     1      40.017 -14.211  -2.354  1.00  0.00     0.041 A 
HETATM    6  C   UNL     1      38.740 -13.777  -2.772  1.00  0.00    -0.031 A 
HETATM    7  C   UNL     1      40.461 -15.452  -2.872  1.00  0.00     0.030 A 
HETATM    8  C   UNL     1      37.966 -14.597  -3.632  1.00  0.00     0.009 A 
HETATM    9  C   UNL     1      38.092 -12.455  -2.420  1.00  0.00     0.045 C 
HETATM   10  C   UNL     1      38.420 -15.830  -4.081  1.00  0.00     0.001 A 
HETATM   11  C   UNL     1      39.678 -16.258  -3.706  1.00  0.00     0.002 A 
HETATM   12  C   UNL     1      38.522 -11.814  -1.111  1.00  0.00     0.045 C 
HETATM   13  C   UNL     1      39.896 -11.216  -1.240  1.00  0.00    -0.031 A 
HETATM   14  C   UNL     1      41.006 -12.045  -1.460  1.00  0.00     0.042 A 
HETATM   15  C   UNL     1      40.055  -9.820  -1.152  1.00  0.00     0.011 A 
HETATM   16  C   UNL     1      42.267 -11.434  -1.593  1.00  0.00     0.054 A 
HETATM   17  C   UNL     1      42.420 -10.053  -1.477  1.00  0.00     0.036 A 
HETATM   18 CL   UNL     1      43.994  -9.364  -1.548  1.00  0.00    -0.084 Cl
HETATM   19  C   UNL     1      41.316  -9.240  -1.263  1.00  0.00     0.024 A 
ENDBRANCH   3   4
ENDBRANCH   2   3
ENDBRANCH   1   2
BRANCH   1  20
HETATM   20  N   UNL     1      41.613 -16.013   2.022  1.00  0.00    -0.071 N 
HETATM   21  H   UNL     1      41.836 -16.401   1.091  1.00  0.00     0.279 HD
HETATM   22  C   UNL     1      40.923 -17.113   2.791  1.00  0.00     0.238 C 
HETATM   23  C   UNL     1      41.780 -17.781   3.862  1.00  0.00     0.077 C 
HETATM   24  C   UNL     1      43.297 -17.817   3.635  1.00  0.00     0.212 C 
HETATM   25  N   UNL     1      43.826 -19.188   3.206  1.00  0.00    -0.032 N 
HETATM   26  C   UNL     1      43.971 -17.680   5.016  1.00  0.00     0.256 C 
HETATM   27  C   UNL     1      43.847 -16.743   2.699  1.00  0.00     0.077 C 
HETATM   28  H   UNL     1      44.794 -19.018   2.894  1.00  0.00     0.283 HD
HETATM   29  C   UNL     1      44.046 -19.947   4.481  1.00  0.00     0.290 C 
HETATM   30  C   UNL     1      43.174 -20.006   2.144  1.00  0.00     0.239 C 
HETATM   31  C   UNL     1      45.011 -21.087   4.207  1.00  0.00     0.055 C 
HETATM   32  N   UNL     1      44.510 -18.915   5.332  1.00  0.00    -0.331 N 
HETATM   33  C   UNL     1      44.478 -21.978   3.077  1.00  0.00     0.005 C 
HETATM   34  C   UNL     1      44.100 -21.178   1.826  1.00  0.00     0.028 C 
HETATM   35  H   UNL     1      44.846 -19.074   6.282  1.00  0.00     0.164 HD
HETATM   36  O   UNL     1      44.011 -16.671   5.689  1.00  0.00    -0.271 OA
HETATM   37  C   UNL     1      42.914 -15.549   2.641  1.00  0.00     0.238 C 
ENDBRANCH   1  20
TORSDOF 4
ENDMDL
MODEL 7
REMARK VINA RESULT:     -10.2      3.998      5.796
REMARK  4 active torsions:
REMARK  status: ('A' for Active; 'I' for Inactive)
REMARK    1  A    between atoms: N_5  and  C_6 
REMARK    2  A    between atoms: C_6  and  C_7 
REMARK    3  A    between atoms: C_7  and  C_8 
REMARK    4  A    between atoms: C_8  and  N_9 
ROOT
HETATM    1  C   UNL     1      42.952 -13.839   5.299  1.00  0.00     0.236 C 
ENDROOT
BRANCH   1   2
HETATM    2  C   UNL     1      43.601 -15.124   4.785  1.00  0.00     0.048 C 
BRANCH   2   3
HETATM    3  C   UNL     1      42.888 -16.336   5.413  1.00  0.00     0.131 C 
BRANCH   3   4
HETATM    4  N   UNL     1      42.678 -17.410   4.425  1.00  0.00    -0.346 N 
HETATM    5  C   UNL     1      41.917 -17.103   3.267  1.00  0.00     0.041 A 
HETATM    6  C   UNL     1      42.158 -17.650   1.988  1.00  0.00    -0.031 A 
HETATM    7  C   UNL     1      40.785 -16.260   3.388  1.00  0.00     0.030 A 
HETATM    8  C   UNL     1      41.308 -17.308   0.905  1.00  0.00     0.009 A 
HETATM    9  C   UNL     1      43.250 -18.638   1.636  1.00  0.00     0.045 C 
HETATM   10  C   UNL     1      40.235 -16.439   1.057  1.00  0.00     0.001 A 
HETATM   11  C   UNL     1      39.966 -15.917   2.307  1.00  0.00     0.002 A 
HETATM   12  C   UNL     1      44.502 -18.604   2.497  1.00  0.00     0.045 C 
HETATM   13  C   UNL     1      44.238 -19.226   3.840  1.00  0.00    -0.031 A 
HETATM   14  C   UNL     1      43.336 -18.624   4.730  1.00  0.00     0.042 A 
HETATM   15  C   UNL     1      44.892 -20.423   4.188  1.00  0.00     0.011 A 
HETATM   16  C   UNL     1      43.110 -19.258   5.966  1.00  0.00     0.054 A 
HETATM   17  C   UNL     1      43.783 -20.429   6.315  1.00  0.00     0.036 A 
HETATM   18 CL   UNL     1      43.547 -21.110   7.876  1.00  0.00    -0.084 Cl
HETATM   19  C   UNL     1      44.671 -21.019   5.428  1.00  0.00     0.024 A 
ENDBRANCH   3   4
ENDBRANCH   2   3
ENDBRANCH   1   2
BRANCH   1  20
HETATM   20  N   UNL     1      41.691 -13.403   4.522  1.00  0.00    -0.071 N 
HETATM   21  H   UNL     1      41.457 -14.265   4.004  1.00  0.00     0.279 HD
HETATM   22  C   UNL     1      41.873 -12.317   3.490  1.00  0.00     0.238 C 
HETATM   23  C   UNL     1      40.724 -11.318   3.402  1.00  0.00     0.077 C 
HETATM   24  C   UNL     1      39.321 -11.816   3.775  1.00  0.00     0.212 C 
HETATM   25  N   UNL     1      38.410 -12.059   2.570  1.00  0.00    -0.032 N 
HETATM   26  C   UNL     1      38.581 -10.641   4.448  1.00  0.00     0.256 C 
HETATM   27  C   UNL     1      39.281 -13.031   4.700  1.00  0.00     0.077 C 
HETATM   28  H   UNL     1      37.600 -12.576   2.945  1.00  0.00     0.283 HD
HETATM   29  C   UNL     1      37.801 -10.726   2.254  1.00  0.00     0.290 C 
HETATM   30  C   UNL     1      38.861 -12.798   1.356  1.00  0.00     0.239 C 
HETATM   31  C   UNL     1      36.543 -10.948   1.433  1.00  0.00     0.055 C 
HETATM   32  N   UNL     1      37.622 -10.197   3.555  1.00  0.00    -0.331 N 
HETATM   33  C   UNL     1      36.866 -11.760   0.172  1.00  0.00     0.005 C 
HETATM   34  C   UNL     1      37.634 -13.050   0.483  1.00  0.00     0.028 C 
HETATM   35  H   UNL     1      37.146  -9.315   3.746  1.00  0.00     0.164 HD
HETATM   36  O   UNL     1      38.811 -10.198   5.556  1.00  0.00    -0.271 OA
HETATM   37  C   UNL     1      40.564 -13.144   5.500  1.00  0.00     0.238 C 
ENDBRANCH   1  20
TORSDOF 4
ENDMDL
MODEL 8
REMARK VINA RESULT:     -10.1      2.946      4.371
REMARK  4 active torsions:
REMARK  status: ('A' for Active; 'I' for Inactive)
REMARK    1  A    between atoms: N_5  and  C_6 
REMARK    2  A    between atoms: C_6  and  C_7 
REMARK    3  A    between atoms: C_7  and  C_8 
REMARK    4  A    between atoms: C_8  and  N_9 
ROOT
HETATM    1  C   UNL     1      41.896 -16.203   0.588  1.00  0.00     0.236 C 
ENDROOT
BRANCH   1   2
HETATM    2  C   UNL     1      42.112 -17.503   1.362  1.00  0.00     0.048 C 
BRANCH   2   3
HETATM    3  C   UNL     1      43.399 -17.385   2.199  1.00  0.00     0.131 C 
BRANCH   3   4
HETATM    4  N   UNL     1      43.393 -18.327   3.333  1.00  0.00    -0.346 N 
HETATM    5  C   UNL     1      43.788 -19.667   3.082  1.00  0.00     0.041 A 
HETATM    6  C   UNL     1      44.492 -20.475   4.001  1.00  0.00    -0.031 A 
HETATM    7  C   UNL     1      43.395 -20.287   1.871  1.00  0.00     0.030 A 
HETATM    8  C   UNL     1      44.800 -21.818   3.664  1.00  0.00     0.009 A 
HETATM    9  C   UNL     1      44.940 -20.061   5.387  1.00  0.00     0.045 C 
HETATM   10  C   UNL     1      44.436 -22.374   2.445  1.00  0.00     0.001 A 
HETATM   11  C   UNL     1      43.722 -21.608   1.545  1.00  0.00     0.002 A 
HETATM   12  C   UNL     1      45.196 -18.579   5.604  1.00  0.00     0.045 C 
HETATM   13  C   UNL     1      43.898 -17.825   5.693  1.00  0.00    -0.031 A 
HETATM   14  C   UNL     1      43.052 -17.745   4.577  1.00  0.00     0.042 A 
HETATM   15  C   UNL     1      43.535 -17.213   6.908  1.00  0.00     0.011 A 
HETATM   16  C   UNL     1      41.840 -17.045   4.718  1.00  0.00     0.054 A 
HETATM   17  C   UNL     1      41.500 -16.417   5.917  1.00  0.00     0.036 A 
HETATM   18 CL   UNL     1      40.056 -15.490   6.010  1.00  0.00    -0.084 Cl
HETATM   19  C   UNL     1      42.341 -16.503   7.017  1.00  0.00     0.024 A 
ENDBRANCH   3   4
ENDBRANCH   2   3
ENDBRANCH   1   2
BRANCH   1  20
HETATM   20  N   UNL     1      41.636 -14.965   1.474  1.00  0.00    -0.071 N 
HETATM   21  H   UNL     1      42.389 -15.048   2.175  1.00  0.00     0.279 HD
HETATM   22  C   UNL     1      40.336 -14.942   2.239  1.00  0.00     0.238 C 
HETATM   23  C   UNL     1      39.673 -13.571   2.335  1.00  0.00     0.077 C 
HETATM   24  C   UNL     1      40.587 -12.338   2.305  1.00  0.00     0.212 C 
HETATM   25  N   UNL     1      40.779 -11.677   3.671  1.00  0.00    -0.032 N 
HETATM   26  C   UNL     1      39.826 -11.221   1.561  1.00  0.00     0.256 C 
HETATM   27  C   UNL     1      41.948 -12.545   1.642  1.00  0.00     0.077 C 
HETATM   28  H   UNL     1      41.558 -11.012   3.543  1.00  0.00     0.283 HD
HETATM   29  C   UNL     1      39.611 -10.749   3.833  1.00  0.00     0.290 C 
HETATM   30  C   UNL     1      41.082 -12.454   4.906  1.00  0.00     0.239 C 
HETATM   31  C   UNL     1      39.959  -9.708   4.884  1.00  0.00     0.055 C 
HETATM   32  N   UNL     1      39.454 -10.280   2.507  1.00  0.00    -0.331 N 
HETATM   33  C   UNL     1      40.354 -10.391   6.200  1.00  0.00     0.005 C 
HETATM   34  C   UNL     1      41.438 -11.458   6.007  1.00  0.00     0.028 C 
HETATM   35  H   UNL     1      38.791  -9.553   2.239  1.00  0.00     0.164 HD
HETATM   36  O   UNL     1      39.600 -11.187   0.369  1.00  0.00    -0.271 OA
HETATM   37  C   UNL     1      41.904 -13.709   0.671  1.00  0.00     0.238 C 
ENDBRANCH   1  20
TORSDOF 4
ENDMDL
MODEL 9
REMARK VINA RESULT:     -10.0      3.078      9.403
REMARK  4 active torsions:
REMARK  status: ('A' for Active; 'I' for Inactive)
REMARK    1  A    between atoms: N_5  and  C_6 
REMARK    2  A    between atoms: C_6  and  C_7 
REMARK    3  A    between atoms: C_7  and  C_8 
REMARK    4  A    between atoms: C_8  and  N_9 
ROOT
HETATM    1  C   UNL     1      39.983 -13.299   1.740  1.00  0.00     0.236 C 
ENDROOT
BRANCH   1   2
HETATM    2  C   UNL     1      38.874 -13.723   0.779  1.00  0.00     0.048 C 
BRANCH   2   3
HETATM    3  C   UNL     1      38.629 -12.595  -0.241  1.00  0.00     0.131 C 
BRANCH   3   4
HETATM    4  N   UNL     1      39.526 -12.713  -1.404  1.00  0.00    -0.346 N 
HETATM    5  C   UNL     1      40.717 -11.941  -1.402  1.00  0.00     0.041 A 
HETATM    6  C   UNL     1      41.942 -12.366  -1.960  1.00  0.00    -0.031 A 
HETATM    7  C   UNL     1      40.685 -10.623  -0.885  1.00  0.00     0.030 A 
HETATM    8  C   UNL     1      43.063 -11.497  -1.941  1.00  0.00     0.009 A 
HETATM    9  C   UNL     1      42.194 -13.693  -2.644  1.00  0.00     0.045 C 
HETATM   10  C   UNL     1      43.001 -10.226  -1.382  1.00  0.00     0.001 A 
HETATM   11  C   UNL     1      41.803  -9.783  -0.857  1.00  0.00     0.002 A 
HETATM   12  C   UNL     1      41.320 -14.858  -2.210  1.00  0.00     0.045 C 
HETATM   13  C   UNL     1      39.934 -14.720  -2.776  1.00  0.00    -0.031 A 
HETATM   14  C   UNL     1      39.111 -13.659  -2.371  1.00  0.00     0.042 A 
HETATM   15  C   UNL     1      39.477 -15.655  -3.724  1.00  0.00     0.011 A 
HETATM   16  C   UNL     1      37.830 -13.563  -2.946  1.00  0.00     0.054 A 
HETATM   17  C   UNL     1      37.374 -14.509  -3.863  1.00  0.00     0.036 A 
HETATM   18 CL   UNL     1      35.765 -14.405  -4.461  1.00  0.00    -0.084 Cl
HETATM   19  C   UNL     1      38.195 -15.554  -4.261  1.00  0.00     0.024 A 
ENDBRANCH   3   4
ENDBRANCH   2   3
ENDBRANCH   1   2
BRANCH   1  20
HETATM   20  N   UNL     1      40.930 -14.439   2.170  1.00  0.00    -0.071 N 
HETATM   21  H   UNL     1      41.278 -14.777   1.258  1.00  0.00     0.279 HD
HETATM   22  C   UNL     1      40.295 -15.625   2.854  1.00  0.00     0.238 C 
HETATM   23  C   UNL     1      41.118 -16.226   3.989  1.00  0.00     0.077 C 
HETATM   24  C   UNL     1      42.645 -16.097   3.904  1.00  0.00     0.212 C 
HETATM   25  N   UNL     1      43.355 -17.392   3.505  1.00  0.00    -0.032 N 
HETATM   26  C   UNL     1      43.172 -15.925   5.344  1.00  0.00     0.256 C 
HETATM   27  C   UNL     1      43.159 -14.946   3.041  1.00  0.00     0.077 C 
HETATM   28  H   UNL     1      44.324 -17.113   3.287  1.00  0.00     0.283 HD
HETATM   29  C   UNL     1      43.538 -18.156   4.782  1.00  0.00     0.290 C 
HETATM   30  C   UNL     1      42.894 -18.247   2.374  1.00  0.00     0.239 C 
HETATM   31  C   UNL     1      44.642 -19.181   4.582  1.00  0.00     0.055 C 
HETATM   32  N   UNL     1      43.810 -17.104   5.689  1.00  0.00    -0.331 N 
HETATM   33  C   UNL     1      44.312 -20.093   3.393  1.00  0.00     0.005 C 
HETATM   34  C   UNL     1      43.966 -19.305   2.125  1.00  0.00     0.028 C 
HETATM   35  H   UNL     1      44.072 -17.251   6.663  1.00  0.00     0.164 HD
HETATM   36  O   UNL     1      43.042 -14.934   6.035  1.00  0.00    -0.271 OA
HETATM   37  C   UNL     1      42.112 -13.856   2.915  1.00  0.00     0.238 C 
ENDBRANCH   1  20
TORSDOF 4
ENDMDL
MODEL 10
REMARK VINA RESULT:      -9.8      6.305     10.803
REMARK  4 active torsions:
REMARK  status: ('A' for Active; 'I' for Inactive)
REMARK    1  A    between atoms: N_5  and  C_6 
REMARK    2  A    between atoms: C_6  and  C_7 
REMARK    3  A    between atoms: C_7  and  C_8 
REMARK    4  A    between atoms: C_8  and  N_9 
ROOT
HETATM    1  C   UNL     1      39.790 -11.585   6.615  1.00  0.00     0.236 C 
ENDROOT
BRANCH   1   2
HETATM    2  C   UNL     1      40.305 -10.666   7.722  1.00  0.00     0.048 C 
BRANCH   2   3
HETATM    3  C   UNL     1      39.885 -11.237   9.090  1.00  0.00     0.131 C 
BRANCH   3   4
HETATM    4  N   UNL     1      40.464 -10.460  10.200  1.00  0.00    -0.346 N 
HETATM    5  C   UNL     1      39.670  -9.430  10.771  1.00  0.00     0.041 A 
HETATM    6  C   UNL     1      39.685  -9.081  12.139  1.00  0.00    -0.031 A 
HETATM    7  C   UNL     1      38.862  -8.632   9.926  1.00  0.00     0.030 A 
HETATM    8  C   UNL     1      38.882  -8.005  12.598  1.00  0.00     0.009 A 
HETATM    9  C   UNL     1      40.531  -9.729  13.213  1.00  0.00     0.045 C 
HETATM   10  C   UNL     1      38.066  -7.276  11.741  1.00  0.00     0.001 A 
HETATM   11  C   UNL     1      38.062  -7.586  10.395  1.00  0.00     0.002 A 
HETATM   12  C   UNL     1      40.931 -11.177  12.981  1.00  0.00     0.045 C 
HETATM   13  C   UNL     1      42.012 -11.268  11.940  1.00  0.00    -0.031 A 
HETATM   14  C   UNL     1      41.745 -10.894  10.614  1.00  0.00     0.042 A 
HETATM   15  C   UNL     1      43.294 -11.717  12.310  1.00  0.00     0.011 A 
HETATM   16  C   UNL     1      42.796 -10.978   9.683  1.00  0.00     0.054 A 
HETATM   17  C   UNL     1      44.056 -11.451  10.051  1.00  0.00     0.036 A 
HETATM   18 CL   UNL     1      45.278 -11.630   8.854  1.00  0.00    -0.084 Cl
HETATM   19  C   UNL     1      44.312 -11.816  11.364  1.00  0.00     0.024 A 
ENDBRANCH   3   4
ENDBRANCH   2   3
ENDBRANCH   1   2
BRANCH   1  20
HETATM   20  N   UNL     1      40.592 -12.893   6.443  1.00  0.00    -0.071 N 
HETATM   21  H   UNL     1      40.601 -13.260   7.408  1.00  0.00     0.279 HD
HETATM   22  C   UNL     1      42.033 -12.753   6.021  1.00  0.00     0.238 C 
HETATM   23  C   UNL     1      42.522 -13.818   5.045  1.00  0.00     0.077 C 
HETATM   24  C   UNL     1      41.856 -15.199   5.112  1.00  0.00     0.212 C 
HETATM   25  N   UNL     1      42.720 -16.271   5.781  1.00  0.00    -0.032 N 
HETATM   26  C   UNL     1      41.799 -15.751   3.672  1.00  0.00     0.256 C 
HETATM   27  C   UNL     1      40.453 -15.223   5.715  1.00  0.00     0.077 C 
HETATM   28  H   UNL     1      42.084 -17.068   5.942  1.00  0.00     0.283 HD
HETATM   29  C   UNL     1      43.608 -16.804   4.696  1.00  0.00     0.290 C 
HETATM   30  C   UNL     1      43.442 -16.038   7.064  1.00  0.00     0.239 C 
HETATM   31  C   UNL     1      44.124 -18.169   5.117  1.00  0.00     0.055 C 
HETATM   32  N   UNL     1      42.726 -16.775   3.589  1.00  0.00    -0.331 N 
HETATM   33  C   UNL     1      44.842 -18.073   6.470  1.00  0.00     0.005 C 
HETATM   34  C   UNL     1      43.991 -17.380   7.540  1.00  0.00     0.028 C 
HETATM   35  H   UNL     1      42.961 -17.149   2.669  1.00  0.00     0.164 HD
HETATM   36  O   UNL     1      41.071 -15.349   2.786  1.00  0.00    -0.271 OA
HETATM   37  C   UNL     1      39.792 -13.864   5.599  1.00  0.00     0.238 C 
ENDBRANCH   1  20
TORSDOF 4
ENDMDL
