MODEL 1
REMARK VINA RESULT:      -8.6      0.000      0.000
REMARK  11 active torsions:
REMARK  status: ('A' for Active; 'I' for Inactive)
REMARK    1  A    between atoms: C_4  and  C_5 
REMARK    2  A    between atoms: C_7  and  O_8 
REMARK    3  A    between atoms: C_10  and  O_11 
REMARK    4  A    between atoms: C_16  and  C_17 
REMARK    5  A    between atoms: C_20  and  C_21 
REMARK    6  A    between atoms: C_21  and  N_22 
REMARK    7  A    between atoms: N_22  and  C_23 
REMARK    8  A    between atoms: C_23  and  N_24 
REMARK    9  A    between atoms: N_24  and  C_25 
REMARK   10  A    between atoms: C_27  and  O_28 
REMARK   11  A    between atoms: C_31  and  O_32 
ROOT
HETATM    1  C   UNL     1      41.628 -13.283   5.822  1.00  0.00     0.067 C 
HETATM    2  C   UNL     1      40.103 -13.508   5.878  1.00  0.00     0.001 C 
HETATM    3  C   UNL     1      39.532 -13.776   4.467  1.00  0.00     0.040 C 
HETATM    4  C   UNL     1      39.687 -12.541   3.562  1.00  0.00     0.206 C 
HETATM    5  N   UNL     1      40.630 -11.576   4.284  1.00  0.00    -0.065 N 
HETATM    6  H   UNL     1      40.847 -10.793   3.650  1.00  0.00     0.280 HD
HETATM    7  C   UNL     1      41.931 -12.248   4.704  1.00  0.00     0.246 C 
HETATM    8  C   UNL     1      39.470 -12.181   6.375  1.00  0.00     0.033 C 
HETATM    9  C   UNL     1      39.923 -11.005   5.502  1.00  0.00     0.236 C 
ENDROOT
BRANCH   4  10
HETATM   10  C   UNL     1      40.193 -12.875   2.141  1.00  0.00     0.155 C 
BRANCH  10  11
HETATM   11  N   UNL     1      39.703 -14.147   1.624  1.00  0.00    -0.365 N 
HETATM   12  H   UNL     1      38.708 -14.228   1.441  1.00  0.00     0.161 HD
BRANCH  11  13
HETATM   13  C   UNL     1      40.443 -15.249   1.300  1.00  0.00     0.172 C 
HETATM   14  S   UNL     1      40.322 -16.730   2.063  1.00  0.00    -0.041 SA
BRANCH  13  15
HETATM   15  N   UNL     1      41.396 -15.094   0.334  1.00  0.00    -0.333 N 
HETATM   16  H   UNL     1      42.286 -15.523   0.575  1.00  0.00     0.168 HD
BRANCH  15  17
HETATM   17  C   UNL     1      41.311 -14.595  -0.987  1.00  0.00     0.039 A 
HETATM   18  C   UNL     1      40.742 -15.306  -2.047  1.00  0.00     0.066 A 
HETATM   19  C   UNL     1      40.686 -14.762  -3.333  1.00  0.00     0.073 A 
HETATM   20  C   UNL     1      41.232 -13.503  -3.566  1.00  0.00     0.073 A 
HETATM   21  C   UNL     1      41.854 -12.800  -2.530  1.00  0.00     0.073 A 
HETATM   22  C   UNL     1      41.892 -13.347  -1.244  1.00  0.00     0.066 A 
BRANCH  19  23
HETATM   23  O   UNL     1      40.075 -15.562  -4.260  1.00  0.00    -0.356 OA
HETATM   24  C   UNL     1      38.740 -15.968  -3.975  1.00  0.00     0.210 C 
ENDBRANCH  19  23
BRANCH  21  25
HETATM   25  O   UNL     1      42.370 -11.588  -2.901  1.00  0.00    -0.356 OA
HETATM   26  C   UNL     1      42.360 -11.274  -4.289  1.00  0.00     0.210 C 
ENDBRANCH  21  25
ENDBRANCH  15  17
ENDBRANCH  13  15
ENDBRANCH  11  13
ENDBRANCH  10  11
ENDBRANCH   4  10
BRANCH   1  27
HETATM   27  C   UNL     1      42.585 -14.447   5.745  1.00  0.00     0.038 C 
HETATM   28  N   UNL     1      43.718 -14.754   6.468  1.00  0.00    -0.277 N 
HETATM   29  C   UNL     1      44.483 -14.002   7.434  1.00  0.00     0.179 C 
HETATM   30  N   UNL     1      44.184 -15.987   6.207  1.00  0.00    -0.172 NA
HETATM   31  C   UNL     1      43.512 -16.413   5.134  1.00  0.00     0.089 C 
HETATM   32  C   UNL     1      42.492 -15.485   4.823  1.00  0.00     0.061 C 
BRANCH  31  33
HETATM   33  C   UNL     1      43.831 -17.674   4.466  1.00  0.00    -0.003 A 
HETATM   34  C   UNL     1      44.168 -18.810   5.218  1.00  0.00     0.053 A 
HETATM   35  C   UNL     1      44.474 -20.023   4.589  1.00  0.00     0.102 A 
HETATM   36  C   UNL     1      44.459 -20.104   3.183  1.00  0.00     0.101 A 
HETATM   37  C   UNL     1      44.129 -18.972   2.432  1.00  0.00     0.040 A 
HETATM   38  C   UNL     1      43.816 -17.767   3.069  1.00  0.00     0.017 A 
BRANCH  35  39
HETATM   39  O   UNL     1      44.800 -21.180   5.253  1.00  0.00    -0.353 OA
HETATM   40  C   UNL     1      44.068 -21.499   6.427  1.00  0.00     0.210 C 
ENDBRANCH  35  39
BRANCH  36  41
HETATM   41  O   UNL     1      44.770 -21.326   2.643  1.00  0.00    -0.353 OA
HETATM   42  C   UNL     1      43.863 -21.884   1.703  1.00  0.00     0.210 C 
ENDBRANCH  36  41
ENDBRANCH  31  33
ENDBRANCH   1  27
TORSDOF 11
ENDMDL
MODEL 2
REMARK VINA RESULT:      -8.6      4.903      8.957
REMARK  11 active torsions:
REMARK  status: ('A' for Active; 'I' for Inactive)
REMARK    1  A    between atoms: C_4  and  C_5 
REMARK    2  A    between atoms: C_7  and  O_8 
REMARK    3  A    between atoms: C_10  and  O_11 
REMARK    4  A    between atoms: C_16  and  C_17 
REMARK    5  A    between atoms: C_20  and  C_21 
REMARK    6  A    between atoms: C_21  and  N_22 
REMARK    7  A    between atoms: N_22  and  C_23 
REMARK    8  A    between atoms: C_23  and  N_24 
REMARK    9  A    between atoms: N_24  and  C_25 
REMARK   10  A    between atoms: C_27  and  O_28 
REMARK   11  A    between atoms: C_31  and  O_32 
ROOT
HETATM    1  C   UNL     1      40.610 -13.478   4.198  1.00  0.00     0.067 C 
HETATM    2  C   UNL     1      40.970 -12.062   3.706  1.00  0.00     0.001 C 
HETATM    3  C   UNL     1      41.505 -11.193   4.867  1.00  0.00     0.040 C 
HETATM    4  C   UNL     1      40.415 -10.948   5.925  1.00  0.00     0.206 C 
HETATM    5  N   UNL     1      39.263 -11.905   5.607  1.00  0.00    -0.065 N 
HETATM    6  H   UNL     1      38.569 -11.848   6.367  1.00  0.00     0.280 HD
HETATM    7  C   UNL     1      39.735 -13.348   5.474  1.00  0.00     0.246 C 
HETATM    8  C   UNL     1      39.650 -11.404   3.223  1.00  0.00     0.033 C 
HETATM    9  C   UNL     1      38.584 -11.459   4.323  1.00  0.00     0.236 C 
ENDROOT
BRANCH   4  10
HETATM   10  C   UNL     1      40.912 -11.118   7.378  1.00  0.00     0.155 C 
BRANCH  10  11
HETATM   11  N   UNL     1      39.889 -11.599   8.299  1.00  0.00    -0.365 N 
HETATM   12  H   UNL     1      39.437 -12.481   8.078  1.00  0.00     0.161 HD
BRANCH  11  13
HETATM   13  C   UNL     1      39.494 -11.023   9.472  1.00  0.00     0.172 C 
HETATM   14  S   UNL     1      38.565  -9.638   9.584  1.00  0.00    -0.041 SA
BRANCH  13  15
HETATM   15  N   UNL     1      39.960 -11.585  10.626  1.00  0.00    -0.333 N 
HETATM   16  H   UNL     1      39.569 -12.506  10.812  1.00  0.00     0.168 HD
BRANCH  15  17
HETATM   17  C   UNL     1      40.996 -11.189  11.504  1.00  0.00     0.039 A 
HETATM   18  C   UNL     1      40.794 -10.887  12.853  1.00  0.00     0.066 A 
HETATM   19  C   UNL     1      41.858 -10.501  13.673  1.00  0.00     0.073 A 
HETATM   20  C   UNL     1      43.133 -10.385  13.127  1.00  0.00     0.073 A 
HETATM   21  C   UNL     1      43.345 -10.629  11.767  1.00  0.00     0.073 A 
HETATM   22  C   UNL     1      42.277 -11.030  10.959  1.00  0.00     0.066 A 
BRANCH  19  23
HETATM   23  O   UNL     1      41.511 -10.266  14.976  1.00  0.00    -0.356 OA
HETATM   24  C   UNL     1      42.171  -9.187  15.630  1.00  0.00     0.210 C 
ENDBRANCH  19  23
BRANCH  21  25
HETATM   25  O   UNL     1      44.639 -10.456  11.358  1.00  0.00    -0.356 OA
HETATM   26  C   UNL     1      45.251 -11.533  10.659  1.00  0.00     0.210 C 
ENDBRANCH  21  25
ENDBRANCH  15  17
ENDBRANCH  13  15
ENDBRANCH  11  13
ENDBRANCH  10  11
ENDBRANCH   4  10
BRANCH   1  27
HETATM   27  C   UNL     1      41.674 -14.531   4.386  1.00  0.00     0.038 C 
HETATM   28  N   UNL     1      42.766 -14.596   5.225  1.00  0.00    -0.277 N 
HETATM   29  C   UNL     1      43.374 -13.621   6.099  1.00  0.00     0.179 C 
HETATM   30  N   UNL     1      43.364 -15.799   5.210  1.00  0.00    -0.172 NA
HETATM   31  C   UNL     1      42.827 -16.462   4.182  1.00  0.00     0.089 C 
HETATM   32  C   UNL     1      41.756 -15.710   3.649  1.00  0.00     0.061 C 
BRANCH  31  33
HETATM   33  C   UNL     1      43.317 -17.774   3.761  1.00  0.00    -0.003 A 
HETATM   34  C   UNL     1      43.809 -18.685   4.708  1.00  0.00     0.053 A 
HETATM   35  C   UNL     1      44.279 -19.945   4.318  1.00  0.00     0.102 A 
HETATM   36  C   UNL     1      44.274 -20.299   2.954  1.00  0.00     0.101 A 
HETATM   37  C   UNL     1      43.790 -19.391   2.009  1.00  0.00     0.040 A 
HETATM   38  C   UNL     1      43.314 -18.138   2.410  1.00  0.00     0.017 A 
BRANCH  35  39
HETATM   39  O   UNL     1      44.761 -20.895   5.183  1.00  0.00    -0.353 OA
HETATM   40  C   UNL     1      44.068 -21.090   6.408  1.00  0.00     0.210 C 
ENDBRANCH  35  39
BRANCH  36  41
HETATM   41  O   UNL     1      44.750 -21.550   2.652  1.00  0.00    -0.353 OA
HETATM   42  C   UNL     1      44.259 -22.179   1.477  1.00  0.00     0.210 C 
ENDBRANCH  36  41
ENDBRANCH  31  33
ENDBRANCH   1  27
TORSDOF 11
ENDMDL
MODEL 3
REMARK VINA RESULT:      -8.5      4.143      8.388
REMARK  11 active torsions:
REMARK  status: ('A' for Active; 'I' for Inactive)
REMARK    1  A    between atoms: C_4  and  C_5 
REMARK    2  A    between atoms: C_7  and  O_8 
REMARK    3  A    between atoms: C_10  and  O_11 
REMARK    4  A    between atoms: C_16  and  C_17 
REMARK    5  A    between atoms: C_20  and  C_21 
REMARK    6  A    between atoms: C_21  and  N_22 
REMARK    7  A    between atoms: N_22  and  C_23 
REMARK    8  A    between atoms: C_23  and  N_24 
REMARK    9  A    between atoms: N_24  and  C_25 
REMARK   10  A    between atoms: C_27  and  O_28 
REMARK   11  A    between atoms: C_31  and  O_32 
ROOT
HETATM    1  C   UNL     1      40.105 -13.999   2.309  1.00  0.00     0.067 C 
HETATM    2  C   UNL     1      40.492 -12.564   1.896  1.00  0.00     0.001 C 
HETATM    3  C   UNL     1      41.483 -11.947   2.908  1.00  0.00     0.040 C 
HETATM    4  C   UNL     1      40.826 -11.766   4.288  1.00  0.00     0.206 C 
HETATM    5  N   UNL     1      39.508 -12.543   4.258  1.00  0.00    -0.065 N 
HETATM    6  H   UNL     1      39.102 -12.539   5.206  1.00  0.00     0.280 HD
HETATM    7  C   UNL     1      39.701 -13.986   3.808  1.00  0.00     0.246 C 
HETATM    8  C   UNL     1      39.196 -11.712   1.957  1.00  0.00     0.033 C 
HETATM    9  C   UNL     1      38.532 -11.836   3.332  1.00  0.00     0.236 C 
ENDROOT
BRANCH   4  10
HETATM   10  C   UNL     1      41.723 -12.211   5.465  1.00  0.00     0.155 C 
BRANCH  10  11
HETATM   11  N   UNL     1      41.100 -12.055   6.773  1.00  0.00    -0.365 N 
HETATM   12  H   UNL     1      40.695 -12.882   7.201  1.00  0.00     0.161 HD
BRANCH  11  13
HETATM   13  C   UNL     1      41.038 -10.921   7.531  1.00  0.00     0.172 C 
HETATM   14  S   UNL     1      40.904  -9.373   6.914  1.00  0.00    -0.041 SA
BRANCH  13  15
HETATM   15  N   UNL     1      41.171 -11.070   8.882  1.00  0.00    -0.333 N 
HETATM   16  H   UNL     1      40.337 -11.442   9.330  1.00  0.00     0.168 HD
BRANCH  15  17
HETATM   17  C   UNL     1      42.302 -10.957   9.725  1.00  0.00     0.039 A 
HETATM   18  C   UNL     1      42.222 -10.826  11.113  1.00  0.00     0.066 A 
HETATM   19  C   UNL     1      43.374 -10.718  11.896  1.00  0.00     0.073 A 
HETATM   20  C   UNL     1      44.621 -10.710  11.277  1.00  0.00     0.073 A 
HETATM   21  C   UNL     1      44.719 -10.785   9.885  1.00  0.00     0.073 A 
HETATM   22  C   UNL     1      43.561 -10.907   9.112  1.00  0.00     0.066 A 
BRANCH  19  23
HETATM   23  O   UNL     1      43.139 -10.627  13.241  1.00  0.00    -0.356 OA
HETATM   24  C   UNL     1      43.249  -9.332  13.823  1.00  0.00     0.210 C 
ENDBRANCH  19  23
BRANCH  21  25
HETATM   25  O   UNL     1      46.001 -10.742   9.407  1.00  0.00    -0.356 OA
HETATM   26  C   UNL     1      46.381 -11.745   8.473  1.00  0.00     0.210 C 
ENDBRANCH  21  25
ENDBRANCH  15  17
ENDBRANCH  13  15
ENDBRANCH  11  13
ENDBRANCH  10  11
ENDBRANCH   4  10
BRANCH   1  27
HETATM   27  C   UNL     1      41.010 -15.167   2.010  1.00  0.00     0.038 C 
HETATM   28  N   UNL     1      41.513 -15.662   0.824  1.00  0.00    -0.277 N 
HETATM   29  C   UNL     1      41.226 -15.345  -0.555  1.00  0.00     0.179 C 
HETATM   30  N   UNL     1      42.438 -16.618   1.010  1.00  0.00    -0.172 NA
HETATM   31  C   UNL     1      42.380 -16.938   2.305  1.00  0.00     0.089 C 
HETATM   32  C   UNL     1      41.509 -16.044   2.968  1.00  0.00     0.061 C 
BRANCH  31  33
HETATM   33  C   UNL     1      43.155 -18.042   2.869  1.00  0.00    -0.003 A 
HETATM   34  C   UNL     1      43.586 -17.997   4.204  1.00  0.00     0.053 A 
HETATM   35  C   UNL     1      44.327 -19.048   4.757  1.00  0.00     0.102 A 
HETATM   36  C   UNL     1      44.660 -20.161   3.960  1.00  0.00     0.101 A 
HETATM   37  C   UNL     1      44.238 -20.206   2.628  1.00  0.00     0.040 A 
HETATM   38  C   UNL     1      43.489 -19.155   2.088  1.00  0.00     0.017 A 
BRANCH  35  39
HETATM   39  O   UNL     1      44.772 -19.085   6.055  1.00  0.00    -0.353 OA
HETATM   40  C   UNL     1      45.111 -17.853   6.676  1.00  0.00     0.210 C 
ENDBRANCH  35  39
BRANCH  36  41
HETATM   41  O   UNL     1      45.388 -21.149   4.573  1.00  0.00    -0.353 OA
HETATM   42  C   UNL     1      44.687 -22.290   5.047  1.00  0.00     0.210 C 
ENDBRANCH  36  41
ENDBRANCH  31  33
ENDBRANCH   1  27
TORSDOF 11
ENDMDL
MODEL 4
REMARK VINA RESULT:      -8.4      3.097      6.275
REMARK  11 active torsions:
REMARK  status: ('A' for Active; 'I' for Inactive)
REMARK    1  A    between atoms: C_4  and  C_5 
REMARK    2  A    between atoms: C_7  and  O_8 
REMARK    3  A    between atoms: C_10  and  O_11 
REMARK    4  A    between atoms: C_16  and  C_17 
REMARK    5  A    between atoms: C_20  and  C_21 
REMARK    6  A    between atoms: C_21  and  N_22 
REMARK    7  A    between atoms: N_22  and  C_23 
REMARK    8  A    between atoms: C_23  and  N_24 
REMARK    9  A    between atoms: N_24  and  C_25 
REMARK   10  A    between atoms: C_27  and  O_28 
REMARK   11  A    between atoms: C_31  and  O_32 
ROOT
HETATM    1  C   UNL     1      41.126 -14.868  -0.835  1.00  0.00     0.067 C 
HETATM    2  C   UNL     1      42.093 -13.693  -1.085  1.00  0.00     0.001 C 
HETATM    3  C   UNL     1      41.683 -12.455  -0.255  1.00  0.00     0.040 C 
HETATM    4  C   UNL     1      40.318 -11.909  -0.710  1.00  0.00     0.206 C 
HETATM    5  N   UNL     1      39.699 -12.968  -1.626  1.00  0.00    -0.065 N 
HETATM    6  H   UNL     1      38.734 -12.683  -1.852  1.00  0.00     0.280 HD
HETATM    7  C   UNL     1      39.670 -14.346  -0.977  1.00  0.00     0.246 C 
HETATM    8  C   UNL     1      41.949 -13.301  -2.579  1.00  0.00     0.033 C 
HETATM    9  C   UNL     1      40.483 -13.021  -2.927  1.00  0.00     0.236 C 
ENDROOT
BRANCH   4  10
HETATM   10  C   UNL     1      39.375 -11.546   0.459  1.00  0.00     0.155 C 
BRANCH  10  11
HETATM   11  N   UNL     1      39.874 -11.951   1.768  1.00  0.00    -0.365 N 
HETATM   12  H   UNL     1      40.135 -12.924   1.890  1.00  0.00     0.161 HD
BRANCH  11  13
HETATM   13  C   UNL     1      40.086 -11.153   2.856  1.00  0.00     0.172 C 
HETATM   14  S   UNL     1      40.513  -9.539   2.780  1.00  0.00    -0.041 SA
BRANCH  13  15
HETATM   15  N   UNL     1      40.014 -11.747   4.083  1.00  0.00    -0.333 N 
HETATM   16  H   UNL     1      39.202 -11.457   4.624  1.00  0.00     0.168 HD
BRANCH  15  17
HETATM   17  C   UNL     1      40.766 -12.800   4.654  1.00  0.00     0.039 A 
HETATM   18  C   UNL     1      40.194 -13.947   5.209  1.00  0.00     0.066 A 
HETATM   19  C   UNL     1      40.989 -14.956   5.759  1.00  0.00     0.073 A 
HETATM   20  C   UNL     1      42.372 -14.800   5.782  1.00  0.00     0.073 A 
HETATM   21  C   UNL     1      42.959 -13.635   5.281  1.00  0.00     0.073 A 
HETATM   22  C   UNL     1      42.156 -12.638   4.720  1.00  0.00     0.066 A 
BRANCH  19  23
HETATM   23  O   UNL     1      40.289 -16.031   6.237  1.00  0.00    -0.356 OA
HETATM   24  C   UNL     1      41.033 -17.218   6.493  1.00  0.00     0.210 C 
ENDBRANCH  19  23
BRANCH  21  25
HETATM   25  O   UNL     1      44.323 -13.601   5.387  1.00  0.00    -0.356 OA
HETATM   26  C   UNL     1      44.892 -14.053   6.609  1.00  0.00     0.210 C 
ENDBRANCH  21  25
ENDBRANCH  15  17
ENDBRANCH  13  15
ENDBRANCH  11  13
ENDBRANCH  10  11
ENDBRANCH   4  10
BRANCH   1  27
HETATM   27  C   UNL     1      41.262 -15.744   0.385  1.00  0.00     0.038 C 
HETATM   28  N   UNL     1      40.434 -15.945   1.470  1.00  0.00    -0.277 N 
HETATM   29  C   UNL     1      39.232 -15.275   1.907  1.00  0.00     0.179 C 
HETATM   30  N   UNL     1      40.843 -16.954   2.257  1.00  0.00    -0.172 NA
HETATM   31  C   UNL     1      42.071 -17.270   1.839  1.00  0.00     0.089 C 
HETATM   32  C   UNL     1      42.365 -16.546   0.662  1.00  0.00     0.061 C 
BRANCH  31  33
HETATM   33  C   UNL     1      42.903 -18.249   2.538  1.00  0.00    -0.003 A 
HETATM   34  C   UNL     1      43.141 -18.123   3.916  1.00  0.00     0.053 A 
HETATM   35  C   UNL     1      43.934 -19.054   4.597  1.00  0.00     0.102 A 
HETATM   36  C   UNL     1      44.516 -20.125   3.889  1.00  0.00     0.101 A 
HETATM   37  C   UNL     1      44.286 -20.248   2.516  1.00  0.00     0.040 A 
HETATM   38  C   UNL     1      43.484 -19.318   1.846  1.00  0.00     0.017 A 
BRANCH  35  39
HETATM   39  O   UNL     1      44.201 -19.009   5.942  1.00  0.00    -0.353 OA
HETATM   40  C   UNL     1      45.022 -17.953   6.421  1.00  0.00     0.210 C 
ENDBRANCH  35  39
BRANCH  36  41
HETATM   41  O   UNL     1      45.279 -20.994   4.626  1.00  0.00    -0.353 OA
HETATM   42  C   UNL     1      44.816 -22.330   4.762  1.00  0.00     0.210 C 
ENDBRANCH  36  41
ENDBRANCH  31  33
ENDBRANCH   1  27
TORSDOF 11
ENDMDL
MODEL 5
REMARK VINA RESULT:      -8.4      3.771      8.144
REMARK  11 active torsions:
REMARK  status: ('A' for Active; 'I' for Inactive)
REMARK    1  A    between atoms: C_4  and  C_5 
REMARK    2  A    between atoms: C_7  and  O_8 
REMARK    3  A    between atoms: C_10  and  O_11 
REMARK    4  A    between atoms: C_16  and  C_17 
REMARK    5  A    between atoms: C_20  and  C_21 
REMARK    6  A    between atoms: C_21  and  N_22 
REMARK    7  A    between atoms: N_22  and  C_23 
REMARK    8  A    between atoms: C_23  and  N_24 
REMARK    9  A    between atoms: N_24  and  C_25 
REMARK   10  A    between atoms: C_27  and  O_28 
REMARK   11  A    between atoms: C_31  and  O_32 
ROOT
HETATM    1  C   UNL     1      40.242 -14.125   2.247  1.00  0.00     0.067 C 
HETATM    2  C   UNL     1      40.712 -12.709   1.859  1.00  0.00     0.001 C 
HETATM    3  C   UNL     1      41.688 -12.142   2.915  1.00  0.00     0.040 C 
HETATM    4  C   UNL     1      40.984 -11.937   4.268  1.00  0.00     0.206 C 
HETATM    5  N   UNL     1      39.634 -12.652   4.180  1.00  0.00    -0.065 N 
HETATM    6  H   UNL     1      39.191 -12.633   5.110  1.00  0.00     0.280 HD
HETATM    7  C   UNL     1      39.778 -14.100   3.729  1.00  0.00     0.246 C 
HETATM    8  C   UNL     1      39.456 -11.797   1.873  1.00  0.00     0.033 C 
HETATM    9  C   UNL     1      38.731 -11.896   3.220  1.00  0.00     0.236 C 
ENDROOT
BRANCH   4  10
HETATM   10  C   UNL     1      41.811 -12.428   5.478  1.00  0.00     0.155 C 
BRANCH  10  11
HETATM   11  N   UNL     1      41.188 -12.156   6.767  1.00  0.00    -0.365 N 
HETATM   12  H   UNL     1      40.967 -12.951   7.358  1.00  0.00     0.161 HD
BRANCH  11  13
HETATM   13  C   UNL     1      40.908 -10.934   7.310  1.00  0.00     0.172 C 
HETATM   14  S   UNL     1      39.499 -10.078   7.042  1.00  0.00    -0.041 SA
BRANCH  13  15
HETATM   15  N   UNL     1      41.888 -10.351   8.062  1.00  0.00    -0.333 N 
HETATM   16  H   UNL     1      41.915  -9.338   7.971  1.00  0.00     0.168 HD
BRANCH  15  17
HETATM   17  C   UNL     1      42.744 -10.885   9.053  1.00  0.00     0.039 A 
HETATM   18  C   UNL     1      43.899 -11.617   8.765  1.00  0.00     0.066 A 
HETATM   19  C   UNL     1      44.708 -12.120   9.787  1.00  0.00     0.073 A 
HETATM   20  C   UNL     1      44.339 -11.914  11.114  1.00  0.00     0.073 A 
HETATM   21  C   UNL     1      43.158 -11.231  11.421  1.00  0.00     0.073 A 
HETATM   22  C   UNL     1      42.364 -10.720  10.391  1.00  0.00     0.066 A 
BRANCH  19  23
HETATM   23  O   UNL     1      45.818 -12.790   9.352  1.00  0.00    -0.356 OA
HETATM   24  C   UNL     1      46.573 -12.173   8.313  1.00  0.00     0.210 C 
ENDBRANCH  19  23
BRANCH  21  25
HETATM   25  O   UNL     1      42.904 -11.121  12.761  1.00  0.00    -0.356 OA
HETATM   26  C   UNL     1      41.542 -11.025  13.159  1.00  0.00     0.210 C 
ENDBRANCH  21  25
ENDBRANCH  15  17
ENDBRANCH  13  15
ENDBRANCH  11  13
ENDBRANCH  10  11
ENDBRANCH   4  10
BRANCH   1  27
HETATM   27  C   UNL     1      41.104 -15.334   1.978  1.00  0.00     0.038 C 
HETATM   28  N   UNL     1      41.531 -15.915   0.803  1.00  0.00    -0.277 N 
HETATM   29  C   UNL     1      41.178 -15.680  -0.577  1.00  0.00     0.179 C 
HETATM   30  N   UNL     1      42.443 -16.881   1.002  1.00  0.00    -0.172 NA
HETATM   31  C   UNL     1      42.447 -17.117   2.317  1.00  0.00     0.089 C 
HETATM   32  C   UNL     1      41.633 -16.160   2.965  1.00  0.00     0.061 C 
BRANCH  31  33
HETATM   33  C   UNL     1      43.226 -18.202   2.910  1.00  0.00    -0.003 A 
HETATM   34  C   UNL     1      43.664 -18.116   4.241  1.00  0.00     0.053 A 
HETATM   35  C   UNL     1      44.410 -19.149   4.821  1.00  0.00     0.102 A 
HETATM   36  C   UNL     1      44.739 -20.286   4.057  1.00  0.00     0.101 A 
HETATM   37  C   UNL     1      44.310 -20.371   2.730  1.00  0.00     0.040 A 
HETATM   38  C   UNL     1      43.557 -19.338   2.162  1.00  0.00     0.017 A 
BRANCH  35  39
HETATM   39  O   UNL     1      44.862 -19.146   6.118  1.00  0.00    -0.353 OA
HETATM   40  C   UNL     1      44.573 -18.008   6.918  1.00  0.00     0.210 C 
ENDBRANCH  35  39
BRANCH  36  41
HETATM   41  O   UNL     1      45.471 -21.254   4.696  1.00  0.00    -0.353 OA
HETATM   42  C   UNL     1      44.862 -22.522   4.894  1.00  0.00     0.210 C 
ENDBRANCH  36  41
ENDBRANCH  31  33
ENDBRANCH   1  27
TORSDOF 11
ENDMDL
MODEL 6
REMARK VINA RESULT:      -8.2      4.597      8.575
REMARK  11 active torsions:
REMARK  status: ('A' for Active; 'I' for Inactive)
REMARK    1  A    between atoms: C_4  and  C_5 
REMARK    2  A    between atoms: C_7  and  O_8 
REMARK    3  A    between atoms: C_10  and  O_11 
REMARK    4  A    between atoms: C_16  and  C_17 
REMARK    5  A    between atoms: C_20  and  C_21 
REMARK    6  A    between atoms: C_21  and  N_22 
REMARK    7  A    between atoms: N_22  and  C_23 
REMARK    8  A    between atoms: C_23  and  N_24 
REMARK    9  A    between atoms: N_24  and  C_25 
REMARK   10  A    between atoms: C_27  and  O_28 
REMARK   11  A    between atoms: C_31  and  O_32 
ROOT
HETATM    1  C   UNL     1      39.914 -10.870   5.397  1.00  0.00     0.067 C 
HETATM    2  C   UNL     1      39.098 -12.120   5.011  1.00  0.00     0.001 C 
HETATM    3  C   UNL     1      39.826 -13.411   5.449  1.00  0.00     0.040 C 
HETATM    4  C   UNL     1      41.150 -13.588   4.685  1.00  0.00     0.206 C 
HETATM    5  N   UNL     1      41.433 -12.262   3.974  1.00  0.00    -0.065 N 
HETATM    6  H   UNL     1      42.372 -12.311   3.551  1.00  0.00     0.280 HD
HETATM    7  C   UNL     1      41.380 -11.075   4.927  1.00  0.00     0.246 C 
HETATM    8  C   UNL     1      39.023 -12.149   3.462  1.00  0.00     0.033 C 
HETATM    9  C   UNL     1      40.427 -12.075   2.851  1.00  0.00     0.236 C 
ENDROOT
BRANCH   4  10
HETATM   10  C   UNL     1      42.332 -14.015   5.584  1.00  0.00     0.155 C 
BRANCH  10  11
HETATM   11  N   UNL     1      42.087 -15.237   6.340  1.00  0.00    -0.365 N 
HETATM   12  H   UNL     1      41.205 -15.312   6.837  1.00  0.00     0.161 HD
BRANCH  11  13
HETATM   13  C   UNL     1      42.893 -16.337   6.422  1.00  0.00     0.172 C 
HETATM   14  S   UNL     1      43.074 -17.281   7.789  1.00  0.00    -0.041 SA
BRANCH  13  15
HETATM   15  N   UNL     1      43.654 -16.629   5.327  1.00  0.00    -0.333 N 
HETATM   16  H   UNL     1      44.584 -16.218   5.362  1.00  0.00     0.168 HD
BRANCH  15  17
HETATM   17  C   UNL     1      43.438 -17.525   4.254  1.00  0.00     0.039 A 
HETATM   18  C   UNL     1      44.122 -18.734   4.106  1.00  0.00     0.066 A 
HETATM   19  C   UNL     1      43.865 -19.580   3.024  1.00  0.00     0.073 A 
HETATM   20  C   UNL     1      42.935 -19.196   2.062  1.00  0.00     0.073 A 
HETATM   21  C   UNL     1      42.281 -17.965   2.164  1.00  0.00     0.073 A 
HETATM   22  C   UNL     1      42.534 -17.132   3.258  1.00  0.00     0.066 A 
BRANCH  19  23
HETATM   23  O   UNL     1      44.589 -20.742   3.029  1.00  0.00    -0.356 OA
HETATM   24  C   UNL     1      44.278 -21.695   2.019  1.00  0.00     0.210 C 
ENDBRANCH  19  23
BRANCH  21  25
HETATM   25  O   UNL     1      41.413 -17.701   1.140  1.00  0.00    -0.356 OA
HETATM   26  C   UNL     1      41.654 -16.533   0.366  1.00  0.00     0.210 C 
ENDBRANCH  21  25
ENDBRANCH  15  17
ENDBRANCH  13  15
ENDBRANCH  11  13
ENDBRANCH  10  11
ENDBRANCH   4  10
BRANCH   1  27
HETATM   27  C   UNL     1      39.877 -10.316   6.800  1.00  0.00     0.038 C 
HETATM   28  N   UNL     1      39.171  -9.271   7.358  1.00  0.00    -0.277 N 
HETATM   29  C   UNL     1      38.349  -8.238   6.774  1.00  0.00     0.179 C 
HETATM   30  N   UNL     1      39.286  -9.221   8.696  1.00  0.00    -0.172 NA
HETATM   31  C   UNL     1      40.260 -10.077   9.012  1.00  0.00     0.089 C 
HETATM   32  C   UNL     1      40.647 -10.793   7.857  1.00  0.00     0.061 C 
BRANCH  31  33
HETATM   33  C   UNL     1      40.768 -10.209  10.377  1.00  0.00    -0.003 A 
HETATM   34  C   UNL     1      41.934 -10.947  10.633  1.00  0.00     0.053 A 
HETATM   35  C   UNL     1      42.431 -11.078  11.935  1.00  0.00     0.102 A 
HETATM   36  C   UNL     1      41.744 -10.476  13.008  1.00  0.00     0.101 A 
HETATM   37  C   UNL     1      40.579  -9.745  12.757  1.00  0.00     0.040 A 
HETATM   38  C   UNL     1      40.096  -9.612  11.451  1.00  0.00     0.017 A 
BRANCH  35  39
HETATM   39  O   UNL     1      43.570 -11.770  12.265  1.00  0.00    -0.353 OA
HETATM   40  C   UNL     1      44.287 -12.405  11.216  1.00  0.00     0.210 C 
ENDBRANCH  35  39
BRANCH  36  41
HETATM   41  O   UNL     1      42.293 -10.650  14.253  1.00  0.00    -0.353 OA
HETATM   42  C   UNL     1      41.911  -9.744  15.278  1.00  0.00     0.210 C 
ENDBRANCH  36  41
ENDBRANCH  31  33
ENDBRANCH   1  27
TORSDOF 11
ENDMDL
MODEL 7
REMARK VINA RESULT:      -8.1      2.965      6.633
REMARK  11 active torsions:
REMARK  status: ('A' for Active; 'I' for Inactive)
REMARK    1  A    between atoms: C_4  and  C_5 
REMARK    2  A    between atoms: C_7  and  O_8 
REMARK    3  A    between atoms: C_10  and  O_11 
REMARK    4  A    between atoms: C_16  and  C_17 
REMARK    5  A    between atoms: C_20  and  C_21 
REMARK    6  A    between atoms: C_21  and  N_22 
REMARK    7  A    between atoms: N_22  and  C_23 
REMARK    8  A    between atoms: C_23  and  N_24 
REMARK    9  A    between atoms: N_24  and  C_25 
REMARK   10  A    between atoms: C_27  and  O_28 
REMARK   11  A    between atoms: C_31  and  O_32 
ROOT
HETATM    1  C   UNL     1      40.292 -14.310  -1.343  1.00  0.00     0.067 C 
HETATM    2  C   UNL     1      41.526 -14.168  -2.256  1.00  0.00     0.001 C 
HETATM    3  C   UNL     1      42.403 -12.973  -1.818  1.00  0.00     0.040 C 
HETATM    4  C   UNL     1      41.657 -11.640  -2.000  1.00  0.00     0.206 C 
HETATM    5  N   UNL     1      40.190 -11.985  -2.270  1.00  0.00    -0.065 N 
HETATM    6  H   UNL     1      39.644 -11.111  -2.279  1.00  0.00     0.280 HD
HETATM    7  C   UNL     1      39.615 -12.918  -1.212  1.00  0.00     0.246 C 
HETATM    8  C   UNL     1      40.999 -13.841  -3.679  1.00  0.00     0.033 C 
HETATM    9  C   UNL     1      40.072 -12.621  -3.645  1.00  0.00     0.236 C 
ENDROOT
BRANCH   4  10
HETATM   10  C   UNL     1      41.805 -10.677  -0.801  1.00  0.00     0.155 C 
BRANCH  10  11
HETATM   11  N   UNL     1      42.412 -11.288   0.375  1.00  0.00    -0.365 N 
HETATM   12  H   UNL     1      43.425 -11.355   0.399  1.00  0.00     0.161 HD
BRANCH  11  13
HETATM   13  C   UNL     1      41.775 -11.745   1.494  1.00  0.00     0.172 C 
HETATM   14  S   UNL     1      40.461 -10.998   2.208  1.00  0.00    -0.041 SA
BRANCH  13  15
HETATM   15  N   UNL     1      42.305 -12.846   2.103  1.00  0.00    -0.333 N 
HETATM   16  H   UNL     1      42.939 -13.371   1.505  1.00  0.00     0.168 HD
BRANCH  15  17
HETATM   17  C   UNL     1      42.255 -13.280   3.448  1.00  0.00     0.039 A 
HETATM   18  C   UNL     1      41.089 -13.283   4.218  1.00  0.00     0.066 A 
HETATM   19  C   UNL     1      41.100 -13.725   5.543  1.00  0.00     0.073 A 
HETATM   20  C   UNL     1      42.300 -14.139   6.114  1.00  0.00     0.073 A 
HETATM   21  C   UNL     1      43.487 -14.092   5.377  1.00  0.00     0.073 A 
HETATM   22  C   UNL     1      43.462 -13.662   4.048  1.00  0.00     0.066 A 
BRANCH  19  23
HETATM   23  O   UNL     1      39.879 -13.697   6.159  1.00  0.00    -0.356 OA
HETATM   24  C   UNL     1      39.090 -12.527   5.966  1.00  0.00     0.210 C 
ENDBRANCH  19  23
BRANCH  21  25
HETATM   25  O   UNL     1      44.595 -14.504   6.066  1.00  0.00    -0.356 OA
HETATM   26  C   UNL     1      44.428 -15.574   6.989  1.00  0.00     0.210 C 
ENDBRANCH  21  25
ENDBRANCH  15  17
ENDBRANCH  13  15
ENDBRANCH  11  13
ENDBRANCH  10  11
ENDBRANCH   4  10
BRANCH   1  27
HETATM   27  C   UNL     1      40.391 -14.983   0.003  1.00  0.00     0.038 C 
HETATM   28  N   UNL     1      39.569 -14.953   1.110  1.00  0.00    -0.277 N 
HETATM   29  C   UNL     1      38.418 -14.146   1.438  1.00  0.00     0.179 C 
HETATM   30  N   UNL     1      39.926 -15.846   2.048  1.00  0.00    -0.172 NA
HETATM   31  C   UNL     1      41.126 -16.303   1.682  1.00  0.00     0.089 C 
HETATM   32  C   UNL     1      41.447 -15.799   0.401  1.00  0.00     0.061 C 
BRANCH  31  33
HETATM   33  C   UNL     1      41.906 -17.206   2.527  1.00  0.00    -0.003 A 
HETATM   34  C   UNL     1      42.707 -18.203   1.949  1.00  0.00     0.053 A 
HETATM   35  C   UNL     1      43.460 -19.073   2.747  1.00  0.00     0.102 A 
HETATM   36  C   UNL     1      43.402 -18.958   4.151  1.00  0.00     0.101 A 
HETATM   37  C   UNL     1      42.600 -17.970   4.728  1.00  0.00     0.040 A 
HETATM   38  C   UNL     1      41.859 -17.099   3.922  1.00  0.00     0.017 A 
BRANCH  35  39
HETATM   39  O   UNL     1      44.276 -20.063   2.260  1.00  0.00    -0.353 OA
HETATM   40  C   UNL     1      43.665 -21.255   1.788  1.00  0.00     0.210 C 
ENDBRANCH  35  39
BRANCH  36  41
HETATM   41  O   UNL     1      44.167 -19.847   4.863  1.00  0.00    -0.353 OA
HETATM   42  C   UNL     1      43.972 -19.911   6.268  1.00  0.00     0.210 C 
ENDBRANCH  36  41
ENDBRANCH  31  33
ENDBRANCH   1  27
TORSDOF 11
ENDMDL
MODEL 8
REMARK VINA RESULT:      -8.0      1.754      2.308
REMARK  11 active torsions:
REMARK  status: ('A' for Active; 'I' for Inactive)
REMARK    1  A    between atoms: C_4  and  C_5 
REMARK    2  A    between atoms: C_7  and  O_8 
REMARK    3  A    between atoms: C_10  and  O_11 
REMARK    4  A    between atoms: C_16  and  C_17 
REMARK    5  A    between atoms: C_20  and  C_21 
REMARK    6  A    between atoms: C_21  and  N_22 
REMARK    7  A    between atoms: N_22  and  C_23 
REMARK    8  A    between atoms: C_23  and  N_24 
REMARK    9  A    between atoms: N_24  and  C_25 
REMARK   10  A    between atoms: C_27  and  O_28 
REMARK   11  A    between atoms: C_31  and  O_32 
ROOT
HETATM    1  C   UNL     1      41.843 -12.790   6.006  1.00  0.00     0.067 C 
HETATM    2  C   UNL     1      40.377 -12.888   6.474  1.00  0.00     0.001 C 
HETATM    3  C   UNL     1      39.466 -13.394   5.333  1.00  0.00     0.040 C 
HETATM    4  C   UNL     1      39.414 -12.382   4.175  1.00  0.00     0.206 C 
HETATM    5  N   UNL     1      40.526 -11.361   4.426  1.00  0.00    -0.065 N 
HETATM    6  H   UNL     1      40.593 -10.740   3.606  1.00  0.00     0.280 HD
HETATM    7  C   UNL     1      41.878 -12.027   4.654  1.00  0.00     0.246 C 
HETATM    8  C   UNL     1      39.915 -11.446   6.814  1.00  0.00     0.033 C 
HETATM    9  C   UNL     1      40.157 -10.507   5.627  1.00  0.00     0.236 C 
ENDROOT
BRANCH   4  10
HETATM   10  C   UNL     1      39.541 -13.032   2.778  1.00  0.00     0.155 C 
BRANCH  10  11
HETATM   11  N   UNL     1      39.203 -12.137   1.678  1.00  0.00    -0.365 N 
HETATM   12  H   UNL     1      38.250 -11.790   1.633  1.00  0.00     0.161 HD
BRANCH  11  13
HETATM   13  C   UNL     1      40.040 -11.659   0.711  1.00  0.00     0.172 C 
HETATM   14  S   UNL     1      41.169 -10.450   0.948  1.00  0.00    -0.041 SA
BRANCH  13  15
HETATM   15  N   UNL     1      39.882 -12.160  -0.549  1.00  0.00    -0.333 N 
HETATM   16  H   UNL     1      39.577 -11.463  -1.224  1.00  0.00     0.168 HD
BRANCH  15  17
HETATM   17  C   UNL     1      40.223 -13.417  -1.101  1.00  0.00     0.039 A 
HETATM   18  C   UNL     1      39.903 -13.801  -2.406  1.00  0.00     0.066 A 
HETATM   19  C   UNL     1      40.266 -15.057  -2.898  1.00  0.00     0.073 A 
HETATM   20  C   UNL     1      40.931 -15.951  -2.063  1.00  0.00     0.073 A 
HETATM   21  C   UNL     1      41.211 -15.606  -0.738  1.00  0.00     0.073 A 
HETATM   22  C   UNL     1      40.856 -14.341  -0.260  1.00  0.00     0.066 A 
BRANCH  19  23
HETATM   23  O   UNL     1      39.911 -15.279  -4.201  1.00  0.00    -0.356 OA
HETATM   24  C   UNL     1      38.873 -16.227  -4.430  1.00  0.00     0.210 C 
ENDBRANCH  19  23
BRANCH  21  25
HETATM   25  O   UNL     1      41.845 -16.585  -0.023  1.00  0.00    -0.356 OA
HETATM   26  C   UNL     1      41.078 -17.278   0.954  1.00  0.00     0.210 C 
ENDBRANCH  21  25
ENDBRANCH  15  17
ENDBRANCH  13  15
ENDBRANCH  11  13
ENDBRANCH  10  11
ENDBRANCH   4  10
BRANCH   1  27
HETATM   27  C   UNL     1      42.728 -14.010   5.953  1.00  0.00     0.038 C 
HETATM   28  N   UNL     1      43.864 -14.354   6.654  1.00  0.00    -0.277 N 
HETATM   29  C   UNL     1      44.702 -13.609   7.564  1.00  0.00     0.179 C 
HETATM   30  N   UNL     1      44.249 -15.622   6.433  1.00  0.00    -0.172 NA
HETATM   31  C   UNL     1      43.519 -16.052   5.401  1.00  0.00     0.089 C 
HETATM   32  C   UNL     1      42.545 -15.079   5.080  1.00  0.00     0.061 C 
BRANCH  31  33
HETATM   33  C   UNL     1      43.742 -17.356   4.779  1.00  0.00    -0.003 A 
HETATM   34  C   UNL     1      44.011 -18.483   5.571  1.00  0.00     0.053 A 
HETATM   35  C   UNL     1      44.225 -19.738   4.988  1.00  0.00     0.102 A 
HETATM   36  C   UNL     1      44.186 -19.871   3.586  1.00  0.00     0.101 A 
HETATM   37  C   UNL     1      43.925 -18.749   2.795  1.00  0.00     0.040 A 
HETATM   38  C   UNL     1      43.703 -17.502   3.387  1.00  0.00     0.017 A 
BRANCH  35  39
HETATM   39  O   UNL     1      44.480 -20.888   5.693  1.00  0.00    -0.353 OA
HETATM   40  C   UNL     1      43.752 -21.105   6.893  1.00  0.00     0.210 C 
ENDBRANCH  35  39
BRANCH  36  41
HETATM   41  O   UNL     1      44.406 -21.132   3.091  1.00  0.00    -0.353 OA
HETATM   42  C   UNL     1      43.820 -21.463   1.840  1.00  0.00     0.210 C 
ENDBRANCH  36  41
ENDBRANCH  31  33
ENDBRANCH   1  27
TORSDOF 11
ENDMDL
MODEL 9
REMARK VINA RESULT:      -8.0      2.225      3.634
REMARK  11 active torsions:
REMARK  status: ('A' for Active; 'I' for Inactive)
REMARK    1  A    between atoms: C_4  and  C_5 
REMARK    2  A    between atoms: C_7  and  O_8 
REMARK    3  A    between atoms: C_10  and  O_11 
REMARK    4  A    between atoms: C_16  and  C_17 
REMARK    5  A    between atoms: C_20  and  C_21 
REMARK    6  A    between atoms: C_21  and  N_22 
REMARK    7  A    between atoms: N_22  and  C_23 
REMARK    8  A    between atoms: C_23  and  N_24 
REMARK    9  A    between atoms: N_24  and  C_25 
REMARK   10  A    between atoms: C_27  and  O_28 
REMARK   11  A    between atoms: C_31  and  O_32 
ROOT
HETATM    1  C   UNL     1      41.195 -13.586   3.029  1.00  0.00     0.067 C 
HETATM    2  C   UNL     1      39.686 -13.811   2.803  1.00  0.00     0.001 C 
HETATM    3  C   UNL     1      39.445 -14.880   1.714  1.00  0.00     0.040 C 
HETATM    4  C   UNL     1      39.954 -14.402   0.343  1.00  0.00     0.206 C 
HETATM    5  N   UNL     1      40.799 -13.150   0.595  1.00  0.00    -0.065 N 
HETATM    6  H   UNL     1      41.250 -12.875  -0.291  1.00  0.00     0.280 HD
HETATM    7  C   UNL     1      41.875 -13.385   1.647  1.00  0.00     0.246 C 
HETATM    8  C   UNL     1      39.108 -12.477   2.259  1.00  0.00     0.033 C 
HETATM    9  C   UNL     1      39.888 -12.012   1.025  1.00  0.00     0.236 C 
ENDROOT
BRANCH   4  10
HETATM   10  C   UNL     1      40.746 -15.477  -0.435  1.00  0.00     0.155 C 
BRANCH  10  11
HETATM   11  N   UNL     1      41.670 -14.931  -1.421  1.00  0.00    -0.365 N 
HETATM   12  H   UNL     1      42.657 -14.919  -1.182  1.00  0.00     0.161 HD
BRANCH  11  13
HETATM   13  C   UNL     1      41.371 -14.471  -2.671  1.00  0.00     0.172 C 
HETATM   14  S   UNL     1      40.010 -14.902  -3.540  1.00  0.00    -0.041 SA
BRANCH  13  15
HETATM   15  N   UNL     1      42.294 -13.663  -3.272  1.00  0.00    -0.333 N 
HETATM   16  H   UNL     1      42.877 -14.151  -3.948  1.00  0.00     0.168 HD
BRANCH  15  17
HETATM   17  C   UNL     1      42.464 -12.259  -3.239  1.00  0.00     0.039 A 
HETATM   18  C   UNL     1      42.271 -11.431  -4.348  1.00  0.00     0.066 A 
HETATM   19  C   UNL     1      42.454 -10.048  -4.256  1.00  0.00     0.073 A 
HETATM   20  C   UNL     1      42.865  -9.493  -3.047  1.00  0.00     0.073 A 
HETATM   21  C   UNL     1      43.115 -10.312  -1.942  1.00  0.00     0.073 A 
HETATM   22  C   UNL     1      42.915 -11.692  -2.041  1.00  0.00     0.066 A 
BRANCH  19  23
HETATM   23  O   UNL     1      42.201  -9.366  -5.414  1.00  0.00    -0.356 OA
HETATM   24  C   UNL     1      40.852  -9.357  -5.870  1.00  0.00     0.210 C 
ENDBRANCH  19  23
BRANCH  21  25
HETATM   25  O   UNL     1      43.536  -9.640  -0.827  1.00  0.00    -0.356 OA
HETATM   26  C   UNL     1      44.126  -8.360  -1.021  1.00  0.00     0.210 C 
ENDBRANCH  21  25
ENDBRANCH  15  17
ENDBRANCH  13  15
ENDBRANCH  11  13
ENDBRANCH  10  11
ENDBRANCH   4  10
BRANCH   1  27
HETATM   27  C   UNL     1      42.003 -14.525   3.890  1.00  0.00     0.038 C 
HETATM   28  N   UNL     1      42.538 -14.384   5.153  1.00  0.00    -0.277 N 
HETATM   29  C   UNL     1      42.660 -13.244   6.030  1.00  0.00     0.179 C 
HETATM   30  N   UNL     1      43.038 -15.533   5.638  1.00  0.00    -0.172 NA
HETATM   31  C   UNL     1      43.060 -16.385   4.610  1.00  0.00     0.089 C 
HETATM   32  C   UNL     1      42.408 -15.798   3.502  1.00  0.00     0.061 C 
BRANCH  31  33
HETATM   33  C   UNL     1      43.662 -17.713   4.714  1.00  0.00    -0.003 A 
HETATM   34  C   UNL     1      43.903 -18.476   3.560  1.00  0.00     0.053 A 
HETATM   35  C   UNL     1      44.481 -19.748   3.646  1.00  0.00     0.102 A 
HETATM   36  C   UNL     1      44.812 -20.280   4.909  1.00  0.00     0.101 A 
HETATM   37  C   UNL     1      44.567 -19.525   6.059  1.00  0.00     0.040 A 
HETATM   38  C   UNL     1      43.999 -18.251   5.962  1.00  0.00     0.017 A 
BRANCH  35  39
HETATM   39  O   UNL     1      44.760 -20.548   2.566  1.00  0.00    -0.353 OA
HETATM   40  C   UNL     1      43.667 -21.038   1.804  1.00  0.00     0.210 C 
ENDBRANCH  35  39
BRANCH  36  41
HETATM   41  O   UNL     1      45.373 -21.532   4.910  1.00  0.00    -0.353 OA
HETATM   42  C   UNL     1      44.514 -22.643   5.120  1.00  0.00     0.210 C 
ENDBRANCH  36  41
ENDBRANCH  31  33
ENDBRANCH   1  27
TORSDOF 11
ENDMDL
MODEL 10
REMARK VINA RESULT:      -8.0      2.962      6.431
REMARK  11 active torsions:
REMARK  status: ('A' for Active; 'I' for Inactive)
REMARK    1  A    between atoms: C_4  and  C_5 
REMARK    2  A    between atoms: C_7  and  O_8 
REMARK    3  A    between atoms: C_10  and  O_11 
REMARK    4  A    between atoms: C_16  and  C_17 
REMARK    5  A    between atoms: C_20  and  C_21 
REMARK    6  A    between atoms: C_21  and  N_22 
REMARK    7  A    between atoms: N_22  and  C_23 
REMARK    8  A    between atoms: C_23  and  N_24 
REMARK    9  A    between atoms: N_24  and  C_25 
REMARK   10  A    between atoms: C_27  and  O_28 
REMARK   11  A    between atoms: C_31  and  O_32 
ROOT
HETATM    1  C   UNL     1      41.224 -14.914  -0.998  1.00  0.00     0.067 C 
HETATM    2  C   UNL     1      42.064 -13.636  -1.193  1.00  0.00     0.001 C 
HETATM    3  C   UNL     1      41.418 -12.434  -0.467  1.00  0.00     0.040 C 
HETATM    4  C   UNL     1      40.057 -12.076  -1.089  1.00  0.00     0.206 C 
HETATM    5  N   UNL     1      39.677 -13.230  -2.020  1.00  0.00    -0.065 N 
HETATM    6  H   UNL     1      38.716 -13.075  -2.360  1.00  0.00     0.280 HD
HETATM    7  C   UNL     1      39.741 -14.581  -1.318  1.00  0.00     0.246 C 
HETATM    8  C   UNL     1      42.043 -13.309  -2.710  1.00  0.00     0.033 C 
HETATM    9  C   UNL     1      40.602 -13.225  -3.225  1.00  0.00     0.236 C 
ENDROOT
BRANCH   4  10
HETATM   10  C   UNL     1      38.952 -11.799  -0.045  1.00  0.00     0.155 C 
BRANCH  10  11
HETATM   11  N   UNL     1      39.218 -10.643   0.803  1.00  0.00    -0.365 N 
HETATM   12  H   UNL     1      39.883  -9.955   0.463  1.00  0.00     0.161 HD
BRANCH  11  13
HETATM   13  C   UNL     1      38.633 -10.341   1.999  1.00  0.00     0.172 C 
HETATM   14  S   UNL     1      37.024  -9.928   2.190  1.00  0.00    -0.041 SA
BRANCH  13  15
HETATM   15  N   UNL     1      39.445 -10.304   3.095  1.00  0.00    -0.333 N 
HETATM   16  H   UNL     1      39.712  -9.361   3.368  1.00  0.00     0.168 HD
BRANCH  15  17
HETATM   17  C   UNL     1      39.837 -11.320   3.999  1.00  0.00     0.039 A 
HETATM   18  C   UNL     1      40.720 -12.350   3.669  1.00  0.00     0.066 A 
HETATM   19  C   UNL     1      41.071 -13.327   4.604  1.00  0.00     0.073 A 
HETATM   20  C   UNL     1      40.507 -13.288   5.876  1.00  0.00     0.073 A 
HETATM   21  C   UNL     1      39.579 -12.297   6.207  1.00  0.00     0.073 A 
HETATM   22  C   UNL     1      39.245 -11.316   5.269  1.00  0.00     0.066 A 
BRANCH  19  23
HETATM   23  O   UNL     1      41.968 -14.254   4.146  1.00  0.00    -0.356 OA
HETATM   24  C   UNL     1      43.078 -13.758   3.405  1.00  0.00     0.210 C 
ENDBRANCH  19  23
BRANCH  21  25
HETATM   25  O   UNL     1      39.084 -12.390   7.480  1.00  0.00    -0.356 OA
HETATM   26  C   UNL     1      39.382 -11.324   8.374  1.00  0.00     0.210 C 
ENDBRANCH  21  25
ENDBRANCH  15  17
ENDBRANCH  13  15
ENDBRANCH  11  13
ENDBRANCH  10  11
ENDBRANCH   4  10
BRANCH   1  27
HETATM   27  C   UNL     1      41.327 -15.730   0.266  1.00  0.00     0.038 C 
HETATM   28  N   UNL     1      40.493 -15.841   1.359  1.00  0.00    -0.277 N 
HETATM   29  C   UNL     1      39.317 -15.104   1.758  1.00  0.00     0.179 C 
HETATM   30  N   UNL     1      40.862 -16.823   2.198  1.00  0.00    -0.172 NA
HETATM   31  C   UNL     1      42.078 -17.207   1.800  1.00  0.00     0.089 C 
HETATM   32  C   UNL     1      42.399 -16.558   0.586  1.00  0.00     0.061 C 
BRANCH  31  33
HETATM   33  C   UNL     1      42.872 -18.179   2.550  1.00  0.00    -0.003 A 
HETATM   34  C   UNL     1      43.093 -18.004   3.925  1.00  0.00     0.053 A 
HETATM   35  C   UNL     1      43.851 -18.928   4.655  1.00  0.00     0.102 A 
HETATM   36  C   UNL     1      44.412 -20.042   4.000  1.00  0.00     0.101 A 
HETATM   37  C   UNL     1      44.198 -20.216   2.630  1.00  0.00     0.040 A 
HETATM   38  C   UNL     1      43.432 -19.292   1.911  1.00  0.00     0.017 A 
BRANCH  35  39
HETATM   39  O   UNL     1      44.100 -18.835   6.002  1.00  0.00    -0.353 OA
HETATM   40  C   UNL     1      44.941 -17.781   6.449  1.00  0.00     0.210 C 
ENDBRANCH  35  39
BRANCH  36  41
HETATM   41  O   UNL     1      45.140 -20.901   4.783  1.00  0.00    -0.353 OA
HETATM   42  C   UNL     1      44.817 -22.283   4.728  1.00  0.00     0.210 C 
ENDBRANCH  36  41
ENDBRANCH  31  33
ENDBRANCH   1  27
TORSDOF 11
ENDMDL
