MODEL 1
REMARK VINA RESULT:      -8.2      0.000      0.000
REMARK  2 active torsions:
REMARK  status: ('A' for Active; 'I' for Inactive)
REMARK    1  A    between atoms: O_2  and  C_3 
REMARK    2  A    between atoms: C_7  and  N_8 
REMARK       I    between atoms: N_8  and  C_9 
REMARK       I    between atoms: C_9  and  N_10 
ROOT
HETATM    1  N   UNL     1      41.695 -13.475   1.161  1.00  0.00    -0.307 N 
HETATM    2  C   UNL     1      42.494 -14.022   2.136  1.00  0.00     0.323 C 
HETATM    3  N   UNL     1      42.324 -15.384   2.352  1.00  0.00    -0.328 N 
HETATM    4  C   UNL     1      42.983 -15.933   3.547  1.00  0.00     0.185 C 
HETATM    5  C   UNL     1      43.289 -17.371   3.335  1.00  0.00     0.035 A 
HETATM    6  C   UNL     1      42.877 -18.165   2.287  1.00  0.00    -0.020 A 
HETATM    7  C   UNL     1      42.055 -17.608   1.184  1.00  0.00     0.061 C 
HETATM    8  C   UNL     1      41.396 -16.284   1.625  1.00  0.00     0.132 C 
HETATM    9  N   UNL     1      44.055 -18.134   4.172  1.00  0.00    -0.357 N 
HETATM   10  H   UNL     1      44.504 -17.813   5.019  1.00  0.00     0.166 HD
HETATM   11  C   UNL     1      44.151 -19.418   3.678  1.00  0.00     0.043 A 
HETATM   12  C   UNL     1      43.415 -19.464   2.490  1.00  0.00    -0.001 A 
HETATM   13  C   UNL     1      44.836 -20.528   4.184  1.00  0.00     0.030 A 
HETATM   14  C   UNL     1      44.768 -21.720   3.457  1.00  0.00     0.002 A 
HETATM   15  C   UNL     1      44.042 -21.797   2.271  1.00  0.00     0.001 A 
HETATM   16  C   UNL     1      43.361 -20.677   1.776  1.00  0.00     0.014 A 
HETATM   17  O   UNL     1      43.301 -13.367   2.795  1.00  0.00    -0.247 OA
HETATM   18  H   UNL     1      40.799 -13.915   1.015  1.00  0.00     0.170 HD
ENDROOT
BRANCH   1  19
HETATM   19  C   UNL     1      41.794 -12.169   0.617  1.00  0.00     0.058 A 
HETATM   20  C   UNL     1      41.094 -11.120   1.234  1.00  0.00     0.063 A 
HETATM   21  C   UNL     1      41.169  -9.817   0.737  1.00  0.00     0.063 A 
HETATM   22 CL   UNL     1      40.129 -11.404   2.645  1.00  0.00    -0.082 Cl
HETATM   23  C   UNL     1      41.941  -9.537  -0.391  1.00  0.00     0.070 A 
HETATM   24  C   UNL     1      42.610 -10.578  -1.033  1.00  0.00     0.039 A 
HETATM   25  C   UNL     1      42.534 -11.884  -0.533  1.00  0.00     0.034 A 
BRANCH  23  26
HETATM   26  O   UNL     1      41.950  -8.224  -0.772  1.00  0.00    -0.356 OA
HETATM   27  C   UNL     1      42.840  -7.872  -1.825  1.00  0.00     0.210 C 
ENDBRANCH  23  26
ENDBRANCH   1  19
TORSDOF 2
ENDMDL
MODEL 2
REMARK VINA RESULT:      -8.2      2.768      3.379
REMARK  2 active torsions:
REMARK  status: ('A' for Active; 'I' for Inactive)
REMARK    1  A    between atoms: O_2  and  C_3 
REMARK    2  A    between atoms: C_7  and  N_8 
REMARK       I    between atoms: N_8  and  C_9 
REMARK       I    between atoms: C_9  and  N_10 
ROOT
HETATM    1  N   UNL     1      41.519 -14.647   0.863  1.00  0.00    -0.307 N 
HETATM    2  C   UNL     1      41.944 -15.906   0.516  1.00  0.00     0.323 C 
HETATM    3  N   UNL     1      42.776 -16.530   1.439  1.00  0.00    -0.328 N 
HETATM    4  C   UNL     1      43.436 -17.762   0.980  1.00  0.00     0.185 C 
HETATM    5  C   UNL     1      43.726 -18.638   2.144  1.00  0.00     0.035 A 
HETATM    6  C   UNL     1      43.596 -18.322   3.478  1.00  0.00    -0.020 A 
HETATM    7  C   UNL     1      43.092 -16.991   3.903  1.00  0.00     0.061 C 
HETATM    8  C   UNL     1      43.216 -15.979   2.744  1.00  0.00     0.132 C 
HETATM    9  N   UNL     1      44.170 -19.928   2.054  1.00  0.00    -0.357 N 
HETATM   10  H   UNL     1      44.343 -20.435   1.196  1.00  0.00     0.166 HD
HETATM   11  C   UNL     1      44.326 -20.459   3.317  1.00  0.00     0.043 A 
HETATM   12  C   UNL     1      43.972 -19.465   4.234  1.00  0.00    -0.001 A 
HETATM   13  C   UNL     1      44.741 -21.736   3.711  1.00  0.00     0.030 A 
HETATM   14  C   UNL     1      44.796 -22.005   5.082  1.00  0.00     0.002 A 
HETATM   15  C   UNL     1      44.450 -21.035   6.019  1.00  0.00     0.001 A 
HETATM   16  C   UNL     1      44.036 -19.761   5.609  1.00  0.00     0.014 A 
HETATM   17  O   UNL     1      41.635 -16.458  -0.538  1.00  0.00    -0.247 OA
HETATM   18  H   UNL     1      42.138 -14.108   1.449  1.00  0.00     0.170 HD
ENDROOT
BRANCH   1  19
HETATM   19  C   UNL     1      40.530 -13.874   0.203  1.00  0.00     0.058 A 
HETATM   20  C   UNL     1      39.187 -14.011   0.592  1.00  0.00     0.063 A 
HETATM   21  C   UNL     1      38.181 -13.263  -0.025  1.00  0.00     0.063 A 
HETATM   22 CL   UNL     1      38.736 -15.100   1.862  1.00  0.00    -0.082 Cl
HETATM   23  C   UNL     1      38.497 -12.367  -1.046  1.00  0.00     0.070 A 
HETATM   24  C   UNL     1      39.821 -12.249  -1.464  1.00  0.00     0.039 A 
HETATM   25  C   UNL     1      40.829 -13.000  -0.845  1.00  0.00     0.034 A 
BRANCH  23  26
HETATM   26  O   UNL     1      37.432 -11.680  -1.560  1.00  0.00    -0.356 OA
HETATM   27  C   UNL     1      37.012 -12.039  -2.871  1.00  0.00     0.210 C 
ENDBRANCH  23  26
ENDBRANCH   1  19
TORSDOF 2
ENDMDL
MODEL 3
REMARK VINA RESULT:      -8.0      2.448      2.781
REMARK  2 active torsions:
REMARK  status: ('A' for Active; 'I' for Inactive)
REMARK    1  A    between atoms: O_2  and  C_3 
REMARK    2  A    between atoms: C_7  and  N_8 
REMARK       I    between atoms: N_8  and  C_9 
REMARK       I    between atoms: C_9  and  N_10 
ROOT
HETATM    1  N   UNL     1      41.678 -14.411  -0.829  1.00  0.00    -0.307 N 
HETATM    2  C   UNL     1      41.476 -14.486   0.527  1.00  0.00     0.323 C 
HETATM    3  N   UNL     1      41.692 -15.737   1.095  1.00  0.00    -0.328 N 
HETATM    4  C   UNL     1      41.246 -15.897   2.488  1.00  0.00     0.185 C 
HETATM    5  C   UNL     1      42.063 -16.940   3.159  1.00  0.00     0.035 A 
HETATM    6  C   UNL     1      42.976 -17.788   2.573  1.00  0.00    -0.020 A 
HETATM    7  C   UNL     1      43.266 -17.713   1.119  1.00  0.00     0.061 C 
HETATM    8  C   UNL     1      42.133 -16.963   0.387  1.00  0.00     0.132 C 
HETATM    9  N   UNL     1      42.030 -17.209   4.499  1.00  0.00    -0.357 N 
HETATM   10  H   UNL     1      41.460 -16.732   5.184  1.00  0.00     0.166 HD
HETATM   11  C   UNL     1      42.918 -18.223   4.794  1.00  0.00     0.043 A 
HETATM   12  C   UNL     1      43.526 -18.607   3.596  1.00  0.00    -0.001 A 
HETATM   13  C   UNL     1      43.230 -18.815   6.023  1.00  0.00     0.030 A 
HETATM   14  C   UNL     1      44.193 -19.829   6.028  1.00  0.00     0.002 A 
HETATM   15  C   UNL     1      44.815 -20.234   4.850  1.00  0.00     0.001 A 
HETATM   16  C   UNL     1      44.492 -19.632   3.627  1.00  0.00     0.014 A 
HETATM   17  O   UNL     1      41.116 -13.529   1.212  1.00  0.00    -0.247 OA
HETATM   18  H   UNL     1      41.511 -15.255  -1.356  1.00  0.00     0.170 HD
ENDROOT
BRANCH   1  19
HETATM   19  C   UNL     1      41.711 -13.234  -1.619  1.00  0.00     0.058 A 
HETATM   20  C   UNL     1      40.624 -12.951  -2.462  1.00  0.00     0.063 A 
HETATM   21  C   UNL     1      40.610 -11.797  -3.251  1.00  0.00     0.063 A 
HETATM   22 CL   UNL     1      39.257 -14.012  -2.539  1.00  0.00    -0.082 Cl
HETATM   23  C   UNL     1      41.684 -10.908  -3.217  1.00  0.00     0.070 A 
HETATM   24  C   UNL     1      42.783 -11.198  -2.410  1.00  0.00     0.039 A 
HETATM   25  C   UNL     1      42.796 -12.354  -1.619  1.00  0.00     0.034 A 
BRANCH  23  26
HETATM   26  O   UNL     1      41.548  -9.808  -4.018  1.00  0.00    -0.356 OA
HETATM   27  C   UNL     1      42.469  -9.685  -5.096  1.00  0.00     0.210 C 
ENDBRANCH  23  26
ENDBRANCH   1  19
TORSDOF 2
ENDMDL
MODEL 4
REMARK VINA RESULT:      -8.0      2.911      3.561
REMARK  2 active torsions:
REMARK  status: ('A' for Active; 'I' for Inactive)
REMARK    1  A    between atoms: O_2  and  C_3 
REMARK    2  A    between atoms: C_7  and  N_8 
REMARK       I    between atoms: N_8  and  C_9 
REMARK       I    between atoms: C_9  and  N_10 
ROOT
HETATM    1  N   UNL     1      41.109 -14.601   0.867  1.00  0.00    -0.307 N 
HETATM    2  C   UNL     1      41.633 -15.825   0.530  1.00  0.00     0.323 C 
HETATM    3  N   UNL     1      42.487 -16.388   1.471  1.00  0.00    -0.328 N 
HETATM    4  C   UNL     1      43.245 -17.569   1.028  1.00  0.00     0.185 C 
HETATM    5  C   UNL     1      43.571 -18.424   2.198  1.00  0.00     0.035 A 
HETATM    6  C   UNL     1      43.387 -18.121   3.529  1.00  0.00    -0.020 A 
HETATM    7  C   UNL     1      42.779 -16.831   3.942  1.00  0.00     0.061 C 
HETATM    8  C   UNL     1      42.855 -15.810   2.786  1.00  0.00     0.132 C 
HETATM    9  N   UNL     1      44.109 -19.678   2.117  1.00  0.00    -0.357 N 
HETATM   10  H   UNL     1      44.339 -20.169   1.264  1.00  0.00     0.166 HD
HETATM   11  C   UNL     1      44.274 -20.199   3.384  1.00  0.00     0.043 A 
HETATM   12  C   UNL     1      43.828 -19.235   4.292  1.00  0.00    -0.001 A 
HETATM   13  C   UNL     1      44.771 -21.443   3.787  1.00  0.00     0.030 A 
HETATM   14  C   UNL     1      44.814 -21.710   5.159  1.00  0.00     0.002 A 
HETATM   15  C   UNL     1      44.378 -20.769   6.088  1.00  0.00     0.001 A 
HETATM   16  C   UNL     1      43.882 -19.528   5.669  1.00  0.00     0.014 A 
HETATM   17  O   UNL     1      41.389 -16.396  -0.532  1.00  0.00    -0.247 OA
HETATM   18  H   UNL     1      41.675 -14.020   1.467  1.00  0.00     0.170 HD
ENDROOT
BRANCH   1  19
HETATM   19  C   UNL     1      40.082 -13.900   0.185  1.00  0.00     0.058 A 
HETATM   20  C   UNL     1      40.434 -12.999  -0.834  1.00  0.00     0.063 A 
HETATM   21  C   UNL     1      39.454 -12.295  -1.538  1.00  0.00     0.063 A 
HETATM   22 CL   UNL     1      42.093 -12.746  -1.264  1.00  0.00    -0.082 Cl
HETATM   23  C   UNL     1      38.104 -12.472  -1.234  1.00  0.00     0.070 A 
HETATM   24  C   UNL     1      37.747 -13.336  -0.200  1.00  0.00     0.039 A 
HETATM   25  C   UNL     1      38.730 -14.043   0.505  1.00  0.00     0.034 A 
BRANCH  23  26
HETATM   26  O   UNL     1      37.240 -11.742  -2.001  1.00  0.00    -0.356 OA
HETATM   27  C   UNL     1      37.379 -11.865  -3.412  1.00  0.00     0.210 C 
ENDBRANCH  23  26
ENDBRANCH   1  19
TORSDOF 2
ENDMDL
MODEL 5
REMARK VINA RESULT:      -7.9      3.494      4.034
REMARK  2 active torsions:
REMARK  status: ('A' for Active; 'I' for Inactive)
REMARK    1  A    between atoms: O_2  and  C_3 
REMARK    2  A    between atoms: C_7  and  N_8 
REMARK       I    between atoms: N_8  and  C_9 
REMARK       I    between atoms: C_9  and  N_10 
ROOT
HETATM    1  N   UNL     1      41.479 -13.519   5.629  1.00  0.00    -0.307 N 
HETATM    2  C   UNL     1      42.545 -14.348   5.881  1.00  0.00     0.323 C 
HETATM    3  N   UNL     1      42.388 -15.665   5.462  1.00  0.00    -0.328 N 
HETATM    4  C   UNL     1      43.404 -16.616   5.939  1.00  0.00     0.185 C 
HETATM    5  C   UNL     1      43.531 -17.739   4.975  1.00  0.00     0.035 A 
HETATM    6  C   UNL     1      42.723 -18.001   3.890  1.00  0.00    -0.020 A 
HETATM    7  C   UNL     1      41.590 -17.106   3.547  1.00  0.00     0.061 C 
HETATM    8  C   UNL     1      41.211 -16.234   4.764  1.00  0.00     0.132 C 
HETATM    9  N   UNL     1      44.504 -18.698   5.023  1.00  0.00    -0.357 N 
HETATM   10  H   UNL     1      45.247 -18.752   5.706  1.00  0.00     0.166 HD
HETATM   11  C   UNL     1      44.342 -19.582   3.976  1.00  0.00     0.043 A 
HETATM   12  C   UNL     1      43.225 -19.165   3.247  1.00  0.00    -0.001 A 
HETATM   13  C   UNL     1      45.101 -20.702   3.619  1.00  0.00     0.030 A 
HETATM   14  C   UNL     1      44.706 -21.417   2.484  1.00  0.00     0.002 A 
HETATM   15  C   UNL     1      43.597 -21.027   1.739  1.00  0.00     0.001 A 
HETATM   16  C   UNL     1      42.847 -19.903   2.109  1.00  0.00     0.014 A 
HETATM   17  O   UNL     1      43.571 -13.977   6.449  1.00  0.00    -0.247 OA
HETATM   18  H   UNL     1      40.568 -13.951   5.608  1.00  0.00     0.170 HD
ENDROOT
BRANCH   1  19
HETATM   19  C   UNL     1      41.447 -12.109   5.780  1.00  0.00     0.058 A 
HETATM   20  C   UNL     1      41.345 -11.304   4.634  1.00  0.00     0.063 A 
HETATM   21  C   UNL     1      41.301  -9.911   4.737  1.00  0.00     0.063 A 
HETATM   22 CL   UNL     1      41.252 -12.012   3.055  1.00  0.00    -0.082 Cl
HETATM   23  C   UNL     1      41.364  -9.296   5.987  1.00  0.00     0.070 A 
HETATM   24  C   UNL     1      41.501 -10.084   7.128  1.00  0.00     0.039 A 
HETATM   25  C   UNL     1      41.545 -11.480   7.024  1.00  0.00     0.034 A 
BRANCH  23  26
HETATM   26  O   UNL     1      41.294  -7.930   5.961  1.00  0.00    -0.356 OA
HETATM   27  C   UNL     1      41.970  -7.277   4.893  1.00  0.00     0.210 C 
ENDBRANCH  23  26
ENDBRANCH   1  19
TORSDOF 2
ENDMDL
MODEL 6
REMARK VINA RESULT:      -7.9      2.971      3.710
REMARK  2 active torsions:
REMARK  status: ('A' for Active; 'I' for Inactive)
REMARK    1  A    between atoms: O_2  and  C_3 
REMARK    2  A    between atoms: C_7  and  N_8 
REMARK       I    between atoms: N_8  and  C_9 
REMARK       I    between atoms: C_9  and  N_10 
ROOT
HETATM    1  N   UNL     1      41.586 -14.069   3.494  1.00  0.00    -0.307 N 
HETATM    2  C   UNL     1      41.566 -15.138   2.631  1.00  0.00     0.323 C 
HETATM    3  N   UNL     1      42.548 -16.098   2.847  1.00  0.00    -0.328 N 
HETATM    4  C   UNL     1      42.696 -17.115   1.793  1.00  0.00     0.185 C 
HETATM    5  C   UNL     1      43.238 -18.368   2.379  1.00  0.00     0.035 A 
HETATM    6  C   UNL     1      43.721 -18.551   3.656  1.00  0.00    -0.020 A 
HETATM    7  C   UNL     1      43.718 -17.439   4.640  1.00  0.00     0.061 C 
HETATM    8  C   UNL     1      43.576 -16.084   3.915  1.00  0.00     0.132 C 
HETATM    9  N   UNL     1      43.329 -19.559   1.714  1.00  0.00    -0.357 N 
HETATM   10  H   UNL     1      43.036 -19.728   0.761  1.00  0.00     0.166 HD
HETATM   11  C   UNL     1      43.863 -20.520   2.547  1.00  0.00     0.043 A 
HETATM   12  C   UNL     1      44.120 -19.909   3.778  1.00  0.00    -0.001 A 
HETATM   13  C   UNL     1      44.125 -21.873   2.308  1.00  0.00     0.030 A 
HETATM   14  C   UNL     1      44.666 -22.624   3.356  1.00  0.00     0.002 A 
HETATM   15  C   UNL     1      44.934 -22.043   4.592  1.00  0.00     0.001 A 
HETATM   16  C   UNL     1      44.666 -20.687   4.817  1.00  0.00     0.014 A 
HETATM   17  O   UNL     1      40.753 -15.252   1.715  1.00  0.00    -0.247 OA
HETATM   18  H   UNL     1      42.486 -13.815   3.873  1.00  0.00     0.170 HD
ENDROOT
BRANCH   1  19
HETATM   19  C   UNL     1      40.601 -13.057   3.615  1.00  0.00     0.058 A 
HETATM   20  C   UNL     1      39.848 -12.977   4.798  1.00  0.00     0.063 A 
HETATM   21  C   UNL     1      38.873 -11.990   4.963  1.00  0.00     0.063 A 
HETATM   22 CL   UNL     1      40.117 -14.089   6.099  1.00  0.00    -0.082 Cl
HETATM   23  C   UNL     1      38.627 -11.067   3.947  1.00  0.00     0.070 A 
HETATM   24  C   UNL     1      39.343 -11.160   2.755  1.00  0.00     0.039 A 
HETATM   25  C   UNL     1      40.321 -12.149   2.590  1.00  0.00     0.034 A 
BRANCH  23  26
HETATM   26  O   UNL     1      37.664 -10.140   4.231  1.00  0.00    -0.356 OA
HETATM   27  C   UNL     1      37.326  -9.230   3.191  1.00  0.00     0.210 C 
ENDBRANCH  23  26
ENDBRANCH   1  19
TORSDOF 2
ENDMDL
MODEL 7
REMARK VINA RESULT:      -7.9      3.571      4.481
REMARK  2 active torsions:
REMARK  status: ('A' for Active; 'I' for Inactive)
REMARK    1  A    between atoms: O_2  and  C_3 
REMARK    2  A    between atoms: C_7  and  N_8 
REMARK       I    between atoms: N_8  and  C_9 
REMARK       I    between atoms: C_9  and  N_10 
ROOT
HETATM    1  N   UNL     1      41.321 -14.408   0.252  1.00  0.00    -0.307 N 
HETATM    2  C   UNL     1      41.856 -15.623   0.602  1.00  0.00     0.323 C 
HETATM    3  N   UNL     1      42.543 -15.648   1.810  1.00  0.00    -0.328 N 
HETATM    4  C   UNL     1      43.326 -16.863   2.081  1.00  0.00     0.185 C 
HETATM    5  C   UNL     1      43.449 -17.064   3.548  1.00  0.00     0.035 A 
HETATM    6  C   UNL     1      43.075 -16.188   4.543  1.00  0.00    -0.020 A 
HETATM    7  C   UNL     1      42.447 -14.883   4.217  1.00  0.00     0.061 C 
HETATM    8  C   UNL     1      42.724 -14.510   2.745  1.00  0.00     0.132 C 
HETATM    9  N   UNL     1      43.959 -18.187   4.138  1.00  0.00    -0.357 N 
HETATM   10  H   UNL     1      44.301 -19.006   3.653  1.00  0.00     0.166 HD
HETATM   11  C   UNL     1      43.917 -18.054   5.510  1.00  0.00     0.043 A 
HETATM   12  C   UNL     1      43.365 -16.801   5.791  1.00  0.00    -0.001 A 
HETATM   13  C   UNL     1      44.314 -18.946   6.512  1.00  0.00     0.030 A 
HETATM   14  C   UNL     1      44.142 -18.547   7.841  1.00  0.00     0.002 A 
HETATM   15  C   UNL     1      43.597 -17.304   8.152  1.00  0.00     0.001 A 
HETATM   16  C   UNL     1      43.204 -16.422   7.138  1.00  0.00     0.014 A 
HETATM   17  O   UNL     1      41.759 -16.631  -0.097  1.00  0.00    -0.247 OA
HETATM   18  H   UNL     1      41.804 -13.590   0.589  1.00  0.00     0.170 HD
ENDROOT
BRANCH   1  19
HETATM   19  C   UNL     1      40.427 -14.151  -0.819  1.00  0.00     0.058 A 
HETATM   20  C   UNL     1      39.049 -14.094  -0.557  1.00  0.00     0.063 A 
HETATM   21  C   UNL     1      38.134 -13.835  -1.580  1.00  0.00     0.063 A 
HETATM   22 CL   UNL     1      38.438 -14.326   1.048  1.00  0.00    -0.082 Cl
HETATM   23  C   UNL     1      38.578 -13.632  -2.887  1.00  0.00     0.070 A 
HETATM   24  C   UNL     1      39.941 -13.722  -3.164  1.00  0.00     0.039 A 
HETATM   25  C   UNL     1      40.858 -13.982  -2.138  1.00  0.00     0.034 A 
BRANCH  23  26
HETATM   26  O   UNL     1      37.592 -13.369  -3.797  1.00  0.00    -0.356 OA
HETATM   27  C   UNL     1      36.824 -14.480  -4.245  1.00  0.00     0.210 C 
ENDBRANCH  23  26
ENDBRANCH   1  19
TORSDOF 2
ENDMDL
MODEL 8
REMARK VINA RESULT:      -7.8      4.148      9.243
REMARK  2 active torsions:
REMARK  status: ('A' for Active; 'I' for Inactive)
REMARK    1  A    between atoms: O_2  and  C_3 
REMARK    2  A    between atoms: C_7  and  N_8 
REMARK       I    between atoms: N_8  and  C_9 
REMARK       I    between atoms: C_9  and  N_10 
ROOT
HETATM    1  N   UNL     1      41.950 -16.418   3.789  1.00  0.00    -0.307 N 
HETATM    2  C   UNL     1      42.380 -15.133   3.565  1.00  0.00     0.323 C 
HETATM    3  N   UNL     1      41.543 -14.131   4.041  1.00  0.00    -0.328 N 
HETATM    4  C   UNL     1      41.858 -12.764   3.598  1.00  0.00     0.185 C 
HETATM    5  C   UNL     1      41.380 -11.787   4.609  1.00  0.00     0.035 A 
HETATM    6  C   UNL     1      40.594 -12.044   5.711  1.00  0.00    -0.020 A 
HETATM    7  C   UNL     1      40.145 -13.424   6.023  1.00  0.00     0.061 C 
HETATM    8  C   UNL     1      40.267 -14.322   4.773  1.00  0.00     0.132 C 
HETATM    9  N   UNL     1      41.669 -10.450   4.595  1.00  0.00    -0.357 N 
HETATM   10  H   UNL     1      42.241  -9.977   3.909  1.00  0.00     0.166 HD
HETATM   11  C   UNL     1      41.082  -9.833   5.680  1.00  0.00     0.043 A 
HETATM   12  C   UNL     1      40.397 -10.817   6.399  1.00  0.00    -0.001 A 
HETATM   13  C   UNL     1      41.116  -8.493   6.079  1.00  0.00     0.030 A 
HETATM   14  C   UNL     1      40.429  -8.147   7.247  1.00  0.00     0.002 A 
HETATM   15  C   UNL     1      39.737  -9.104   7.983  1.00  0.00     0.001 A 
HETATM   16  C   UNL     1      39.712 -10.443   7.572  1.00  0.00     0.014 A 
HETATM   17  O   UNL     1      43.425 -14.863   2.973  1.00  0.00    -0.247 OA
HETATM   18  H   UNL     1      40.952 -16.556   3.836  1.00  0.00     0.170 HD
ENDROOT
BRANCH   1  19
HETATM   19  C   UNL     1      42.689 -17.610   3.577  1.00  0.00     0.058 A 
HETATM   20  C   UNL     1      42.501 -18.324   2.383  1.00  0.00     0.063 A 
HETATM   21  C   UNL     1      43.214 -19.498   2.129  1.00  0.00     0.063 A 
HETATM   22 CL   UNL     1      41.393 -17.762   1.175  1.00  0.00    -0.082 Cl
HETATM   23  C   UNL     1      44.125 -19.985   3.067  1.00  0.00     0.070 A 
HETATM   24  C   UNL     1      44.291 -19.304   4.271  1.00  0.00     0.039 A 
HETATM   25  C   UNL     1      43.576 -18.126   4.525  1.00  0.00     0.034 A 
BRANCH  23  26
HETATM   26  O   UNL     1      44.774 -21.131   2.699  1.00  0.00    -0.356 OA
HETATM   27  C   UNL     1      44.166 -21.908   1.673  1.00  0.00     0.210 C 
ENDBRANCH  23  26
ENDBRANCH   1  19
TORSDOF 2
ENDMDL
MODEL 9
REMARK VINA RESULT:      -7.7      5.039      6.227
REMARK  2 active torsions:
REMARK  status: ('A' for Active; 'I' for Inactive)
REMARK    1  A    between atoms: O_2  and  C_3 
REMARK    2  A    between atoms: C_7  and  N_8 
REMARK       I    between atoms: N_8  and  C_9 
REMARK       I    between atoms: C_9  and  N_10 
ROOT
HETATM    1  N   UNL     1      42.078 -11.983   6.991  1.00  0.00    -0.307 N 
HETATM    2  C   UNL     1      42.128 -12.261   5.647  1.00  0.00     0.323 C 
HETATM    3  N   UNL     1      42.846 -13.399   5.299  1.00  0.00    -0.328 N 
HETATM    4  C   UNL     1      43.118 -13.575   3.864  1.00  0.00     0.185 C 
HETATM    5  C   UNL     1      43.271 -15.020   3.556  1.00  0.00     0.035 A 
HETATM    6  C   UNL     1      43.344 -16.061   4.455  1.00  0.00    -0.020 A 
HETATM    7  C   UNL     1      43.245 -15.817   5.916  1.00  0.00     0.061 C 
HETATM    8  C   UNL     1      43.527 -14.332   6.230  1.00  0.00     0.132 C 
HETATM    9  N   UNL     1      43.352 -15.541   2.294  1.00  0.00    -0.357 N 
HETATM   10  H   UNL     1      43.312 -15.012   1.433  1.00  0.00     0.166 HD
HETATM   11  C   UNL     1      43.475 -16.913   2.361  1.00  0.00     0.043 A 
HETATM   12  C   UNL     1      43.474 -17.266   3.714  1.00  0.00    -0.001 A 
HETATM   13  C   UNL     1      43.575 -17.858   1.335  1.00  0.00     0.030 A 
HETATM   14  C   UNL     1      43.677 -19.204   1.700  1.00  0.00     0.002 A 
HETATM   15  C   UNL     1      43.681 -19.586   3.039  1.00  0.00     0.001 A 
HETATM   16  C   UNL     1      43.579 -18.628   4.056  1.00  0.00     0.014 A 
HETATM   17  O   UNL     1      41.594 -11.558   4.791  1.00  0.00    -0.247 OA
HETATM   18  H   UNL     1      42.865 -12.288   7.543  1.00  0.00     0.170 HD
ENDROOT
BRANCH   1  19
HETATM   19  C   UNL     1      41.271 -11.005   7.626  1.00  0.00     0.058 A 
HETATM   20  C   UNL     1      39.888 -11.226   7.728  1.00  0.00     0.063 A 
HETATM   21  C   UNL     1      39.057 -10.293   8.354  1.00  0.00     0.063 A 
HETATM   22 CL   UNL     1      39.168 -12.671   7.098  1.00  0.00    -0.082 Cl
HETATM   23  C   UNL     1      39.591  -9.118   8.884  1.00  0.00     0.070 A 
HETATM   24  C   UNL     1      40.957  -8.873   8.756  1.00  0.00     0.039 A 
HETATM   25  C   UNL     1      41.789  -9.809   8.129  1.00  0.00     0.034 A 
BRANCH  23  26
HETATM   26  O   UNL     1      38.682  -8.293   9.486  1.00  0.00    -0.356 OA
HETATM   27  C   UNL     1      38.228  -8.677  10.779  1.00  0.00     0.210 C 
ENDBRANCH  23  26
ENDBRANCH   1  19
TORSDOF 2
ENDMDL
MODEL 10
REMARK VINA RESULT:      -7.7      3.544      4.064
REMARK  2 active torsions:
REMARK  status: ('A' for Active; 'I' for Inactive)
REMARK    1  A    between atoms: O_2  and  C_3 
REMARK    2  A    between atoms: C_7  and  N_8 
REMARK       I    between atoms: N_8  and  C_9 
REMARK       I    between atoms: C_9  and  N_10 
ROOT
HETATM    1  N   UNL     1      39.324 -14.772   0.341  1.00  0.00    -0.307 N 
HETATM    2  C   UNL     1      39.914 -14.349   1.507  1.00  0.00     0.323 C 
HETATM    3  N   UNL     1      40.385 -15.358   2.339  1.00  0.00    -0.328 N 
HETATM    4  C   UNL     1      40.792 -14.941   3.690  1.00  0.00     0.185 C 
HETATM    5  C   UNL     1      41.823 -15.873   4.213  1.00  0.00     0.035 A 
HETATM    6  C   UNL     1      42.236 -17.061   3.651  1.00  0.00    -0.020 A 
HETATM    7  C   UNL     1      41.664 -17.537   2.366  1.00  0.00     0.061 C 
HETATM    8  C   UNL     1      40.330 -16.816   2.075  1.00  0.00     0.132 C 
HETATM    9  N   UNL     1      42.541 -15.673   5.360  1.00  0.00    -0.357 N 
HETATM   10  H   UNL     1      42.460 -14.875   5.975  1.00  0.00     0.166 HD
HETATM   11  C   UNL     1      43.421 -16.718   5.549  1.00  0.00     0.043 A 
HETATM   12  C   UNL     1      43.247 -17.608   4.485  1.00  0.00    -0.001 A 
HETATM   13  C   UNL     1      44.355 -16.934   6.568  1.00  0.00     0.030 A 
HETATM   14  C   UNL     1      45.135 -18.092   6.498  1.00  0.00     0.002 A 
HETATM   15  C   UNL     1      44.984 -18.997   5.451  1.00  0.00     0.001 A 
HETATM   16  C   UNL     1      44.044 -18.768   4.438  1.00  0.00     0.014 A 
HETATM   17  O   UNL     1      40.017 -13.164   1.821  1.00  0.00    -0.247 OA
HETATM   18  H   UNL     1      38.874 -15.675   0.367  1.00  0.00     0.170 HD
ENDROOT
BRANCH   1  19
HETATM   19  C   UNL     1      38.933 -13.963  -0.755  1.00  0.00     0.058 A 
HETATM   20  C   UNL     1      39.656 -14.047  -1.956  1.00  0.00     0.063 A 
HETATM   21  C   UNL     1      39.299 -13.274  -3.064  1.00  0.00     0.063 A 
HETATM   22 CL   UNL     1      41.002 -15.126  -2.110  1.00  0.00    -0.082 Cl
HETATM   23  C   UNL     1      38.217 -12.397  -2.991  1.00  0.00     0.070 A 
HETATM   24  C   UNL     1      37.515 -12.279  -1.793  1.00  0.00     0.039 A 
HETATM   25  C   UNL     1      37.873 -13.055  -0.683  1.00  0.00     0.034 A 
BRANCH  23  26
HETATM   26  O   UNL     1      37.954 -11.709  -4.143  1.00  0.00    -0.356 OA
HETATM   27  C   UNL     1      37.260 -10.474  -4.005  1.00  0.00     0.210 C 
ENDBRANCH  23  26
ENDBRANCH   1  19
TORSDOF 2
ENDMDL
