MODEL 1
REMARK VINA RESULT:      -8.8      0.000      0.000
REMARK  9 active torsions:
REMARK  status: ('A' for Active; 'I' for Inactive)
REMARK    1  A    between atoms: C_4  and  C_5 
REMARK    2  A    between atoms: C_6  and  N_7 
REMARK    3  A    between atoms: N_7  and  S_8 
REMARK    4  A    between atoms: C_17  and  C_18 
REMARK    5  A    between atoms: C_18  and  N_19 
REMARK    6  A    between atoms: N_19  and  C_21 
REMARK    7  A    between atoms: C_21  and  C_22 
REMARK    8  A    between atoms: C_24  and  C_25 
REMARK    9  A    between atoms: C_25  and  N_26 
ROOT
HETATM    1  C   UNL     1      41.682  -9.161   5.486  1.00  0.00     0.079 C 
HETATM    2  C   UNL     1      41.422  -9.865   6.756  1.00  0.00     0.078 A 
HETATM    3  O   UNL     1      41.969  -9.327   7.891  1.00  0.00    -0.294 OA
HETATM    4  C   UNL     1      41.603 -10.185   8.900  1.00  0.00     0.182 A 
HETATM    5  N   UNL     1      40.837 -11.171   8.482  1.00  0.00    -0.224 NA
HETATM    6  C   UNL     1      40.759 -11.013   7.120  1.00  0.00     0.092 A 
ENDROOT
BRANCH   6   7
HETATM    7  C   UNL     1      40.079 -12.063   6.320  1.00  0.00     0.296 C 
BRANCH   7   8
HETATM    8  N   UNL     1      41.052 -13.141   5.877  1.00  0.00    -0.065 N 
HETATM    9  H   UNL     1      41.786 -13.093   6.612  1.00  0.00     0.280 HD
HETATM   10  C   UNL     1      41.717 -12.842   4.581  1.00  0.00     0.270 C 
BRANCH   8  11
HETATM   11  C   UNL     1      40.565 -14.565   6.010  1.00  0.00     0.280 C 
BRANCH  11  12
HETATM   12  C   UNL     1      41.375 -15.622   5.308  1.00  0.00     0.009 A 
HETATM   13  S   UNL     1      42.924 -16.078   5.882  1.00  0.00    -0.096 SA
HETATM   14  C   UNL     1      43.061 -17.350   4.736  1.00  0.00     0.009 A 
HETATM   15  C   UNL     1      41.972 -17.377   3.889  1.00  0.00     0.017 A 
HETATM   16  C   UNL     1      40.995 -16.397   4.228  1.00  0.00     0.017 A 
BRANCH  14  17
HETATM   17  C   UNL     1      44.250 -18.268   4.746  1.00  0.00     0.280 C 
BRANCH  17  18
HETATM   18  N   UNL     1      44.008 -19.571   4.011  1.00  0.00    -0.067 N 
HETATM   19  H   UNL     1      43.050 -19.854   4.255  1.00  0.00     0.280 HD
HETATM   20  C   UNL     1      44.067 -19.426   2.506  1.00  0.00     0.235 C 
HETATM   21  C   UNL     1      43.662 -20.743   1.858  1.00  0.00     0.028 C 
HETATM   22  C   UNL     1      44.531 -21.898   2.339  1.00  0.00     0.003 C 
HETATM   23  C   UNL     1      44.544 -21.984   3.861  1.00  0.00     0.028 C 
HETATM   24  C   UNL     1      44.937 -20.660   4.500  1.00  0.00     0.235 C 
ENDBRANCH  17  18
ENDBRANCH  14  17
ENDBRANCH  11  12
ENDBRANCH   8  11
ENDBRANCH   7   8
ENDBRANCH   6   7
BRANCH   4  25
HETATM   25  C   UNL     1      42.115  -9.906  10.241  1.00  0.00     0.044 A 
HETATM   26  C   UNL     1      43.019 -10.768  10.903  1.00  0.00     0.057 A 
HETATM   27  C   UNL     1      43.464 -10.463  12.199  1.00  0.00     0.031 A 
HETATM   28  C   UNL     1      43.027  -9.308  12.844  1.00  0.00     0.002 A 
HETATM   29  C   UNL     1      42.142  -8.449  12.204  1.00  0.00     0.001 A 
HETATM   30  C   UNL     1      41.689  -8.746  10.916  1.00  0.00     0.018 A 
BRANCH  26  31
HETATM   31  N   UNL     1      43.495 -11.993  10.324  1.00  0.00    -0.284 N 
HETATM   32  H   UNL     1      43.232 -12.835  10.838  1.00  0.00     0.178 HD
BRANCH  31  33
HETATM   33  S   UNL     1      45.067 -12.071   9.722  1.00  0.00     0.227 S 
HETATM   34  C   UNL     1      44.889 -13.057   8.247  1.00  0.00     0.186 C 
HETATM   35  O   UNL     1      45.381 -10.710   9.324  1.00  0.00    -0.206 OA
HETATM   36  O   UNL     1      45.949 -12.742  10.651  1.00  0.00    -0.206 OA
ENDBRANCH  31  33
ENDBRANCH  26  31
ENDBRANCH   4  25
TORSDOF 9
ENDMDL
MODEL 2
REMARK VINA RESULT:      -8.7      3.344      9.668
REMARK  9 active torsions:
REMARK  status: ('A' for Active; 'I' for Inactive)
REMARK    1  A    between atoms: C_4  and  C_5 
REMARK    2  A    between atoms: C_6  and  N_7 
REMARK    3  A    between atoms: N_7  and  S_8 
REMARK    4  A    between atoms: C_17  and  C_18 
REMARK    5  A    between atoms: C_18  and  N_19 
REMARK    6  A    between atoms: N_19  and  C_21 
REMARK    7  A    between atoms: C_21  and  C_22 
REMARK    8  A    between atoms: C_24  and  C_25 
REMARK    9  A    between atoms: C_25  and  N_26 
ROOT
HETATM    1  C   UNL     1      41.536 -16.085  -0.195  1.00  0.00     0.079 C 
HETATM    2  C   UNL     1      42.319 -16.489   0.988  1.00  0.00     0.078 A 
HETATM    3  O   UNL     1      42.660 -17.811   1.089  1.00  0.00    -0.294 OA
HETATM    4  C   UNL     1      43.343 -17.911   2.278  1.00  0.00     0.182 A 
HETATM    5  N   UNL     1      43.488 -16.750   2.883  1.00  0.00    -0.224 NA
HETATM    6  C   UNL     1      42.799 -15.851   2.107  1.00  0.00     0.092 A 
ENDROOT
BRANCH   6   7
HETATM    7  C   UNL     1      42.643 -14.459   2.601  1.00  0.00     0.296 C 
BRANCH   7   8
HETATM    8  N   UNL     1      41.181 -14.099   2.796  1.00  0.00    -0.065 N 
HETATM    9  H   UNL     1      40.704 -14.739   2.129  1.00  0.00     0.280 HD
HETATM   10  C   UNL     1      40.852 -12.711   2.373  1.00  0.00     0.270 C 
BRANCH   8  11
HETATM   11  C   UNL     1      40.570 -14.505   4.116  1.00  0.00     0.280 C 
BRANCH  11  12
HETATM   12  C   UNL     1      40.560 -13.464   5.203  1.00  0.00     0.009 A 
HETATM   13  S   UNL     1      42.022 -12.852   5.858  1.00  0.00    -0.096 SA
HETATM   14  C   UNL     1      41.199 -11.684   6.810  1.00  0.00     0.009 A 
HETATM   15  C   UNL     1      39.830 -11.809   6.679  1.00  0.00     0.017 A 
HETATM   16  C   UNL     1      39.464 -12.819   5.743  1.00  0.00     0.017 A 
BRANCH  14  17
HETATM   17  C   UNL     1      41.963 -10.691   7.636  1.00  0.00     0.280 C 
BRANCH  17  18
HETATM   18  N   UNL     1      42.436 -11.251   8.963  1.00  0.00    -0.067 N 
HETATM   19  H   UNL     1      41.991 -12.174   9.050  1.00  0.00     0.280 HD
HETATM   20  C   UNL     1      43.933 -11.464   9.021  1.00  0.00     0.235 C 
HETATM   21  C   UNL     1      44.290 -12.168  10.323  1.00  0.00     0.028 C 
HETATM   22  C   UNL     1      43.793 -11.393  11.537  1.00  0.00     0.003 C 
HETATM   23  C   UNL     1      42.300 -11.099  11.431  1.00  0.00     0.028 C 
HETATM   24  C   UNL     1      41.950 -10.408  10.121  1.00  0.00     0.235 C 
ENDBRANCH  17  18
ENDBRANCH  14  17
ENDBRANCH  11  12
ENDBRANCH   8  11
ENDBRANCH   7   8
ENDBRANCH   6   7
BRANCH   4  25
HETATM   25  C   UNL     1      43.773 -19.243   2.699  1.00  0.00     0.044 A 
HETATM   26  C   UNL     1      44.310 -19.498   3.981  1.00  0.00     0.057 A 
HETATM   27  C   UNL     1      44.728 -20.793   4.327  1.00  0.00     0.031 A 
HETATM   28  C   UNL     1      44.611 -21.841   3.416  1.00  0.00     0.002 A 
HETATM   29  C   UNL     1      44.080 -21.606   2.153  1.00  0.00     0.001 A 
HETATM   30  C   UNL     1      43.667 -20.320   1.798  1.00  0.00     0.018 A 
BRANCH  26  31
HETATM   31  N   UNL     1      44.495 -18.470   4.967  1.00  0.00    -0.284 N 
HETATM   32  H   UNL     1      45.457 -18.360   5.290  1.00  0.00     0.178 HD
BRANCH  31  33
HETATM   33  S   UNL     1      43.375 -18.309   6.217  1.00  0.00     0.227 S 
HETATM   34  C   UNL     1      43.614 -16.629   6.762  1.00  0.00     0.186 C 
HETATM   35  O   UNL     1      42.078 -18.396   5.568  1.00  0.00    -0.206 OA
HETATM   36  O   UNL     1      43.668 -19.218   7.302  1.00  0.00    -0.206 OA
ENDBRANCH  31  33
ENDBRANCH  26  31
ENDBRANCH   4  25
TORSDOF 9
ENDMDL
MODEL 3
REMARK VINA RESULT:      -8.6      1.346      2.111
REMARK  9 active torsions:
REMARK  status: ('A' for Active; 'I' for Inactive)
REMARK    1  A    between atoms: C_4  and  C_5 
REMARK    2  A    between atoms: C_6  and  N_7 
REMARK    3  A    between atoms: N_7  and  S_8 
REMARK    4  A    between atoms: C_17  and  C_18 
REMARK    5  A    between atoms: C_18  and  N_19 
REMARK    6  A    between atoms: N_19  and  C_21 
REMARK    7  A    between atoms: C_21  and  C_22 
REMARK    8  A    between atoms: C_24  and  C_25 
REMARK    9  A    between atoms: C_25  and  N_26 
ROOT
HETATM    1  C   UNL     1      38.765  -8.477   7.341  1.00  0.00     0.079 C 
HETATM    2  C   UNL     1      40.072  -9.000   7.781  1.00  0.00     0.078 A 
HETATM    3  O   UNL     1      40.342  -8.958   9.123  1.00  0.00    -0.294 OA
HETATM    4  C   UNL     1      41.612  -9.467   9.245  1.00  0.00     0.182 A 
HETATM    5  N   UNL     1      42.118  -9.863   8.095  1.00  0.00    -0.224 NA
HETATM    6  C   UNL     1      41.178  -9.523   7.153  1.00  0.00     0.092 A 
ENDROOT
BRANCH   6   7
HETATM    7  C   UNL     1      41.513  -9.703   5.718  1.00  0.00     0.296 C 
BRANCH   7   8
HETATM    8  N   UNL     1      40.984 -11.022   5.184  1.00  0.00    -0.065 N 
HETATM    9  H   UNL     1      41.652 -11.234   4.416  1.00  0.00     0.280 HD
HETATM   10  C   UNL     1      39.635 -10.914   4.568  1.00  0.00     0.270 C 
BRANCH   8  11
HETATM   11  C   UNL     1      41.157 -12.218   6.091  1.00  0.00     0.280 C 
BRANCH  11  12
HETATM   12  C   UNL     1      41.722 -13.463   5.463  1.00  0.00     0.009 A 
HETATM   13  S   UNL     1      40.746 -14.849   5.206  1.00  0.00    -0.096 SA
HETATM   14  C   UNL     1      41.992 -15.668   4.355  1.00  0.00     0.009 A 
HETATM   15  C   UNL     1      43.152 -14.922   4.331  1.00  0.00     0.017 A 
HETATM   16  C   UNL     1      42.993 -13.648   4.951  1.00  0.00     0.017 A 
BRANCH  14  17
HETATM   17  C   UNL     1      41.745 -17.017   3.744  1.00  0.00     0.280 C 
BRANCH  17  18
HETATM   18  N   UNL     1      42.979 -17.896   3.712  1.00  0.00    -0.067 N 
HETATM   19  H   UNL     1      43.765 -17.266   3.503  1.00  0.00     0.280 HD
HETATM   20  C   UNL     1      43.273 -18.559   5.041  1.00  0.00     0.235 C 
HETATM   21  C   UNL     1      44.605 -19.290   4.953  1.00  0.00     0.028 C 
HETATM   22  C   UNL     1      44.618 -20.302   3.814  1.00  0.00     0.003 C 
HETATM   23  C   UNL     1      44.231 -19.650   2.491  1.00  0.00     0.028 C 
HETATM   24  C   UNL     1      42.905 -18.910   2.591  1.00  0.00     0.235 C 
ENDBRANCH  17  18
ENDBRANCH  14  17
ENDBRANCH  11  12
ENDBRANCH   8  11
ENDBRANCH   7   8
ENDBRANCH   6   7
BRANCH   4  25
HETATM   25  C   UNL     1      42.211  -9.476  10.579  1.00  0.00     0.044 A 
HETATM   26  C   UNL     1      43.044 -10.524  11.031  1.00  0.00     0.057 A 
HETATM   27  C   UNL     1      43.576 -10.493  12.330  1.00  0.00     0.031 A 
HETATM   28  C   UNL     1      43.296  -9.428  13.184  1.00  0.00     0.002 A 
HETATM   29  C   UNL     1      42.481  -8.389  12.752  1.00  0.00     0.001 A 
HETATM   30  C   UNL     1      41.943  -8.414  11.463  1.00  0.00     0.018 A 
BRANCH  26  31
HETATM   31  N   UNL     1      43.358 -11.672  10.228  1.00  0.00    -0.284 N 
HETATM   32  H   UNL     1      42.894 -12.533  10.519  1.00  0.00     0.178 HD
BRANCH  31  33
HETATM   33  S   UNL     1      44.951 -11.934   9.741  1.00  0.00     0.227 S 
HETATM   34  C   UNL     1      44.768 -12.931   8.274  1.00  0.00     0.186 C 
HETATM   35  O   UNL     1      45.438 -10.625   9.342  1.00  0.00    -0.206 OA
HETATM   36  O   UNL     1      45.689 -12.671  10.741  1.00  0.00    -0.206 OA
ENDBRANCH  31  33
ENDBRANCH  26  31
ENDBRANCH   4  25
TORSDOF 9
ENDMDL
MODEL 4
REMARK VINA RESULT:      -8.6      5.501      9.468
REMARK  9 active torsions:
REMARK  status: ('A' for Active; 'I' for Inactive)
REMARK    1  A    between atoms: C_4  and  C_5 
REMARK    2  A    between atoms: C_6  and  N_7 
REMARK    3  A    between atoms: N_7  and  S_8 
REMARK    4  A    between atoms: C_17  and  C_18 
REMARK    5  A    between atoms: C_18  and  N_19 
REMARK    6  A    between atoms: N_19  and  C_21 
REMARK    7  A    between atoms: C_21  and  C_22 
REMARK    8  A    between atoms: C_24  and  C_25 
REMARK    9  A    between atoms: C_25  and  N_26 
ROOT
HETATM    1  C   UNL     1      40.980 -16.405   0.781  1.00  0.00     0.079 C 
HETATM    2  C   UNL     1      42.122 -16.859   1.597  1.00  0.00     0.078 A 
HETATM    3  O   UNL     1      42.341 -18.209   1.667  1.00  0.00    -0.294 OA
HETATM    4  C   UNL     1      43.424 -18.350   2.501  1.00  0.00     0.182 A 
HETATM    5  N   UNL     1      43.913 -17.195   2.903  1.00  0.00    -0.224 NA
HETATM    6  C   UNL     1      43.067 -16.245   2.384  1.00  0.00     0.092 A 
ENDROOT
BRANCH   6   7
HETATM    7  C   UNL     1      43.259 -14.828   2.783  1.00  0.00     0.296 C 
BRANCH   7   8
HETATM    8  N   UNL     1      42.320 -14.435   3.909  1.00  0.00    -0.065 N 
HETATM    9  H   UNL     1      42.982 -14.155   4.661  1.00  0.00     0.280 HD
HETATM   10  C   UNL     1      41.520 -15.571   4.436  1.00  0.00     0.270 C 
BRANCH   8  11
HETATM   11  C   UNL     1      41.529 -13.166   3.696  1.00  0.00     0.280 C 
BRANCH  11  12
HETATM   12  C   UNL     1      40.563 -13.159   2.542  1.00  0.00     0.009 A 
HETATM   13  S   UNL     1      41.021 -12.550   1.006  1.00  0.00    -0.096 SA
HETATM   14  C   UNL     1      39.544 -13.042   0.282  1.00  0.00     0.009 A 
HETATM   15  C   UNL     1      38.692 -13.599   1.215  1.00  0.00     0.017 A 
HETATM   16  C   UNL     1      39.284 -13.682   2.509  1.00  0.00     0.017 A 
BRANCH  14  17
HETATM   17  C   UNL     1      39.311 -12.857  -1.190  1.00  0.00     0.280 C 
BRANCH  17  18
HETATM   18  N   UNL     1      39.122 -14.163  -1.936  1.00  0.00    -0.067 N 
HETATM   19  H   UNL     1      38.860 -14.856  -1.223  1.00  0.00     0.280 HD
HETATM   20  C   UNL     1      38.001 -14.111  -2.951  1.00  0.00     0.235 C 
HETATM   21  C   UNL     1      37.788 -15.502  -3.534  1.00  0.00     0.028 C 
HETATM   22  C   UNL     1      39.067 -16.057  -4.148  1.00  0.00     0.003 C 
HETATM   23  C   UNL     1      40.220 -16.020  -3.151  1.00  0.00     0.028 C 
HETATM   24  C   UNL     1      40.417 -14.630  -2.563  1.00  0.00     0.235 C 
ENDBRANCH  17  18
ENDBRANCH  14  17
ENDBRANCH  11  12
ENDBRANCH   8  11
ENDBRANCH   7   8
ENDBRANCH   6   7
BRANCH   4  25
HETATM   25  C   UNL     1      43.850 -19.709   2.831  1.00  0.00     0.044 A 
HETATM   26  C   UNL     1      44.465 -20.035   4.061  1.00  0.00     0.057 A 
HETATM   27  C   UNL     1      44.874 -21.352   4.318  1.00  0.00     0.031 A 
HETATM   28  C   UNL     1      44.672 -22.354   3.371  1.00  0.00     0.002 A 
HETATM   29  C   UNL     1      44.064 -22.049   2.159  1.00  0.00     0.001 A 
HETATM   30  C   UNL     1      43.659 -20.740   1.891  1.00  0.00     0.018 A 
BRANCH  26  31
HETATM   31  N   UNL     1      44.739 -19.058   5.078  1.00  0.00    -0.284 N 
HETATM   32  H   UNL     1      45.710 -19.038   5.395  1.00  0.00     0.178 HD
BRANCH  31  33
HETATM   33  S   UNL     1      43.645 -18.848   6.342  1.00  0.00     0.227 S 
HETATM   34  C   UNL     1      44.158 -17.304   7.071  1.00  0.00     0.186 C 
HETATM   35  O   UNL     1      42.362 -18.640   5.693  1.00  0.00    -0.206 OA
HETATM   36  O   UNL     1      43.763 -19.908   7.318  1.00  0.00    -0.206 OA
ENDBRANCH  31  33
ENDBRANCH  26  31
ENDBRANCH   4  25
TORSDOF 9
ENDMDL
MODEL 5
REMARK VINA RESULT:      -8.4      4.630      8.172
REMARK  9 active torsions:
REMARK  status: ('A' for Active; 'I' for Inactive)
REMARK    1  A    between atoms: C_4  and  C_5 
REMARK    2  A    between atoms: C_6  and  N_7 
REMARK    3  A    between atoms: N_7  and  S_8 
REMARK    4  A    between atoms: C_17  and  C_18 
REMARK    5  A    between atoms: C_18  and  N_19 
REMARK    6  A    between atoms: N_19  and  C_21 
REMARK    7  A    between atoms: C_21  and  C_22 
REMARK    8  A    between atoms: C_24  and  C_25 
REMARK    9  A    between atoms: C_25  and  N_26 
ROOT
HETATM    1  C   UNL     1      44.358 -13.713   7.181  1.00  0.00     0.079 C 
HETATM    2  C   UNL     1      43.486 -14.305   6.150  1.00  0.00     0.078 A 
HETATM    3  O   UNL     1      43.969 -15.393   5.473  1.00  0.00    -0.294 OA
HETATM    4  C   UNL     1      42.985 -15.713   4.569  1.00  0.00     0.182 A 
HETATM    5  N   UNL     1      41.923 -14.941   4.673  1.00  0.00    -0.224 NA
HETATM    6  C   UNL     1      42.247 -14.011   5.631  1.00  0.00     0.092 A 
ENDROOT
BRANCH   6   7
HETATM    7  C   UNL     1      41.305 -12.891   5.881  1.00  0.00     0.296 C 
BRANCH   7   8
HETATM    8  N   UNL     1      41.040 -12.094   4.616  1.00  0.00    -0.065 N 
HETATM    9  H   UNL     1      41.735 -12.493   3.953  1.00  0.00     0.280 HD
HETATM   10  C   UNL     1      41.352 -10.646   4.752  1.00  0.00     0.270 C 
BRANCH   8  11
HETATM   11  C   UNL     1      39.734 -12.383   3.916  1.00  0.00     0.280 C 
BRANCH  11  12
HETATM   12  C   UNL     1      39.798 -13.292   2.718  1.00  0.00     0.009 A 
HETATM   13  S   UNL     1      40.428 -12.743   1.221  1.00  0.00    -0.096 SA
HETATM   14  C   UNL     1      40.327 -14.304   0.514  1.00  0.00     0.009 A 
HETATM   15  C   UNL     1      39.757 -15.210   1.386  1.00  0.00     0.017 A 
HETATM   16  C   UNL     1      39.470 -14.633   2.658  1.00  0.00     0.017 A 
BRANCH  14  17
HETATM   17  C   UNL     1      40.832 -14.551  -0.878  1.00  0.00     0.280 C 
BRANCH  17  18
HETATM   18  N   UNL     1      39.763 -15.067  -1.821  1.00  0.00    -0.067 N 
HETATM   19  H   UNL     1      39.294 -15.832  -1.318  1.00  0.00     0.280 HD
HETATM   20  C   UNL     1      38.711 -14.032  -2.153  1.00  0.00     0.235 C 
HETATM   21  C   UNL     1      37.607 -14.684  -2.974  1.00  0.00     0.028 C 
HETATM   22  C   UNL     1      38.155 -15.341  -4.234  1.00  0.00     0.003 C 
HETATM   23  C   UNL     1      39.280 -16.316  -3.905  1.00  0.00     0.028 C 
HETATM   24  C   UNL     1      40.372 -15.660  -3.073  1.00  0.00     0.235 C 
ENDBRANCH  17  18
ENDBRANCH  14  17
ENDBRANCH  11  12
ENDBRANCH   8  11
ENDBRANCH   7   8
ENDBRANCH   6   7
BRANCH   4  25
HETATM   25  C   UNL     1      43.255 -16.807   3.637  1.00  0.00     0.044 A 
HETATM   26  C   UNL     1      43.130 -18.166   4.004  1.00  0.00     0.057 A 
HETATM   27  C   UNL     1      43.422 -19.177   3.076  1.00  0.00     0.031 A 
HETATM   28  C   UNL     1      43.829 -18.856   1.783  1.00  0.00     0.002 A 
HETATM   29  C   UNL     1      43.953 -17.524   1.407  1.00  0.00     0.001 A 
HETATM   30  C   UNL     1      43.670 -16.510   2.325  1.00  0.00     0.018 A 
BRANCH  26  31
HETATM   31  N   UNL     1      42.746 -18.585   5.323  1.00  0.00    -0.284 N 
HETATM   32  H   UNL     1      41.977 -18.051   5.730  1.00  0.00     0.178 HD
BRANCH  31  33
HETATM   33  S   UNL     1      43.938 -18.960   6.454  1.00  0.00     0.227 S 
HETATM   34  C   UNL     1      43.906 -20.742   6.502  1.00  0.00     0.186 C 
HETATM   35  O   UNL     1      45.184 -18.545   5.833  1.00  0.00    -0.206 OA
HETATM   36  O   UNL     1      43.606 -18.433   7.759  1.00  0.00    -0.206 OA
ENDBRANCH  31  33
ENDBRANCH  26  31
ENDBRANCH   4  25
TORSDOF 9
ENDMDL
MODEL 6
REMARK VINA RESULT:      -8.3      2.988      9.360
REMARK  9 active torsions:
REMARK  status: ('A' for Active; 'I' for Inactive)
REMARK    1  A    between atoms: C_4  and  C_5 
REMARK    2  A    between atoms: C_6  and  N_7 
REMARK    3  A    between atoms: N_7  and  S_8 
REMARK    4  A    between atoms: C_17  and  C_18 
REMARK    5  A    between atoms: C_18  and  N_19 
REMARK    6  A    between atoms: N_19  and  C_21 
REMARK    7  A    between atoms: C_21  and  C_22 
REMARK    8  A    between atoms: C_24  and  C_25 
REMARK    9  A    between atoms: C_25  and  N_26 
ROOT
HETATM    1  C   UNL     1      39.587 -15.763   1.961  1.00  0.00     0.079 C 
HETATM    2  C   UNL     1      40.625 -16.134   2.941  1.00  0.00     0.078 A 
HETATM    3  O   UNL     1      41.403 -17.222   2.644  1.00  0.00    -0.294 OA
HETATM    4  C   UNL     1      42.246 -17.358   3.721  1.00  0.00     0.182 A 
HETATM    5  N   UNL     1      42.080 -16.415   4.624  1.00  0.00    -0.224 NA
HETATM    6  C   UNL     1      41.021 -15.666   4.171  1.00  0.00     0.092 A 
ENDROOT
BRANCH   6   7
HETATM    7  C   UNL     1      40.480 -14.597   5.049  1.00  0.00     0.296 C 
BRANCH   7   8
HETATM    8  N   UNL     1      40.598 -13.230   4.398  1.00  0.00    -0.065 N 
HETATM    9  H   UNL     1      40.472 -13.453   3.390  1.00  0.00     0.280 HD
HETATM   10  C   UNL     1      41.947 -12.621   4.542  1.00  0.00     0.270 C 
BRANCH   8  11
HETATM   11  C   UNL     1      39.456 -12.276   4.655  1.00  0.00     0.280 C 
BRANCH  11  12
HETATM   12  C   UNL     1      39.554 -11.427   5.895  1.00  0.00     0.009 A 
HETATM   13  S   UNL     1      39.593 -12.137   7.454  1.00  0.00    -0.096 SA
HETATM   14  C   UNL     1      39.879 -10.627   8.221  1.00  0.00     0.009 A 
HETATM   15  C   UNL     1      39.875  -9.595   7.306  1.00  0.00     0.017 A 
HETATM   16  C   UNL     1      39.706 -10.055   5.968  1.00  0.00     0.017 A 
BRANCH  14  17
HETATM   17  C   UNL     1      40.103 -10.550   9.704  1.00  0.00     0.280 C 
BRANCH  17  18
HETATM   18  N   UNL     1      41.471 -11.046  10.130  1.00  0.00    -0.067 N 
HETATM   19  H   UNL     1      41.466 -12.060   9.957  1.00  0.00     0.280 HD
HETATM   20  C   UNL     1      42.600 -10.453   9.315  1.00  0.00     0.235 C 
HETATM   21  C   UNL     1      43.909 -11.122   9.710  1.00  0.00     0.028 C 
HETATM   22  C   UNL     1      44.178 -10.995  11.204  1.00  0.00     0.003 C 
HETATM   23  C   UNL     1      42.999 -11.508  12.024  1.00  0.00     0.028 C 
HETATM   24  C   UNL     1      41.693 -10.844  11.613  1.00  0.00     0.235 C 
ENDBRANCH  17  18
ENDBRANCH  14  17
ENDBRANCH  11  12
ENDBRANCH   8  11
ENDBRANCH   7   8
ENDBRANCH   6   7
BRANCH   4  25
HETATM   25  C   UNL     1      43.158 -18.502   3.723  1.00  0.00     0.044 A 
HETATM   26  C   UNL     1      43.555 -19.154   4.912  1.00  0.00     0.057 A 
HETATM   27  C   UNL     1      44.449 -20.235   4.860  1.00  0.00     0.031 A 
HETATM   28  C   UNL     1      44.949 -20.681   3.638  1.00  0.00     0.002 A 
HETATM   29  C   UNL     1      44.564 -20.051   2.460  1.00  0.00     0.001 A 
HETATM   30  C   UNL     1      43.679 -18.972   2.503  1.00  0.00     0.018 A 
BRANCH  26  31
HETATM   31  N   UNL     1      43.112 -18.740   6.214  1.00  0.00    -0.284 N 
HETATM   32  H   UNL     1      42.219 -18.245   6.221  1.00  0.00     0.178 HD
BRANCH  31  33
HETATM   33  S   UNL     1      44.222 -18.077   7.296  1.00  0.00     0.227 S 
HETATM   34  C   UNL     1      43.394 -16.610   7.880  1.00  0.00     0.186 C 
HETATM   35  O   UNL     1      44.287 -19.029   8.392  1.00  0.00    -0.206 OA
HETATM   36  O   UNL     1      45.448 -17.708   6.627  1.00  0.00    -0.206 OA
ENDBRANCH  31  33
ENDBRANCH  26  31
ENDBRANCH   4  25
TORSDOF 9
ENDMDL
MODEL 7
REMARK VINA RESULT:      -8.3      5.079      8.760
REMARK  9 active torsions:
REMARK  status: ('A' for Active; 'I' for Inactive)
REMARK    1  A    between atoms: C_4  and  C_5 
REMARK    2  A    between atoms: C_6  and  N_7 
REMARK    3  A    between atoms: N_7  and  S_8 
REMARK    4  A    between atoms: C_17  and  C_18 
REMARK    5  A    between atoms: C_18  and  N_19 
REMARK    6  A    between atoms: N_19  and  C_21 
REMARK    7  A    between atoms: C_21  and  C_22 
REMARK    8  A    between atoms: C_24  and  C_25 
REMARK    9  A    between atoms: C_25  and  N_26 
ROOT
HETATM    1  C   UNL     1      43.335 -13.637   4.010  1.00  0.00     0.079 C 
HETATM    2  C   UNL     1      42.764 -14.986   4.183  1.00  0.00     0.078 A 
HETATM    3  O   UNL     1      43.617 -16.048   4.038  1.00  0.00    -0.294 OA
HETATM    4  C   UNL     1      42.831 -17.160   4.216  1.00  0.00     0.182 A 
HETATM    5  N   UNL     1      41.581 -16.863   4.506  1.00  0.00    -0.224 NA
HETATM    6  C   UNL     1      41.511 -15.493   4.435  1.00  0.00     0.092 A 
ENDROOT
BRANCH   6   7
HETATM    7  C   UNL     1      40.184 -14.841   4.566  1.00  0.00     0.296 C 
BRANCH   7   8
HETATM    8  N   UNL     1      39.895 -13.927   3.389  1.00  0.00    -0.065 N 
HETATM    9  H   UNL     1      40.835 -13.812   2.961  1.00  0.00     0.280 HD
HETATM   10  C   UNL     1      39.435 -12.571   3.792  1.00  0.00     0.270 C 
BRANCH   8  11
HETATM   11  C   UNL     1      39.104 -14.537   2.257  1.00  0.00     0.280 C 
BRANCH  11  12
HETATM   12  C   UNL     1      39.865 -14.853   0.997  1.00  0.00     0.009 A 
HETATM   13  S   UNL     1      39.519 -14.044  -0.474  1.00  0.00    -0.096 SA
HETATM   14  C   UNL     1      40.839 -14.786  -1.284  1.00  0.00     0.009 A 
HETATM   15  C   UNL     1      41.487 -15.685  -0.463  1.00  0.00     0.017 A 
HETATM   16  C   UNL     1      40.939 -15.711   0.853  1.00  0.00     0.017 A 
BRANCH  14  17
HETATM   17  C   UNL     1      41.170 -14.423  -2.704  1.00  0.00     0.280 C 
BRANCH  17  18
HETATM   18  N   UNL     1      41.997 -13.159  -2.823  1.00  0.00    -0.067 N 
HETATM   19  H   UNL     1      42.918 -13.460  -3.169  1.00  0.00     0.280 HD
HETATM   20  C   UNL     1      41.437 -12.172  -3.824  1.00  0.00     0.235 C 
HETATM   21  C   UNL     1      42.412 -11.014  -3.985  1.00  0.00     0.028 C 
HETATM   22  C   UNL     1      42.712 -10.340  -2.652  1.00  0.00     0.003 C 
HETATM   23  C   UNL     1      43.188 -11.353  -1.616  1.00  0.00     0.028 C 
HETATM   24  C   UNL     1      42.215 -12.515  -1.471  1.00  0.00     0.235 C 
ENDBRANCH  17  18
ENDBRANCH  14  17
ENDBRANCH  11  12
ENDBRANCH   8  11
ENDBRANCH   7   8
ENDBRANCH   6   7
BRANCH   4  25
HETATM   25  C   UNL     1      43.462 -18.467   4.040  1.00  0.00     0.044 A 
HETATM   26  C   UNL     1      43.676 -19.359   5.116  1.00  0.00     0.057 A 
HETATM   27  C   UNL     1      44.306 -20.593   4.895  1.00  0.00     0.031 A 
HETATM   28  C   UNL     1      44.719 -20.958   3.615  1.00  0.00     0.002 A 
HETATM   29  C   UNL     1      44.511 -20.094   2.547  1.00  0.00     0.001 A 
HETATM   30  C   UNL     1      43.890 -18.861   2.758  1.00  0.00     0.018 A 
BRANCH  26  31
HETATM   31  N   UNL     1      43.310 -19.049   6.470  1.00  0.00    -0.284 N 
HETATM   32  H   UNL     1      42.341 -18.753   6.589  1.00  0.00     0.178 HD
BRANCH  31  33
HETATM   33  S   UNL     1      44.375 -18.170   7.437  1.00  0.00     0.227 S 
HETATM   34  C   UNL     1      43.484 -16.659   7.754  1.00  0.00     0.186 C 
HETATM   35  O   UNL     1      44.454 -18.920   8.679  1.00  0.00    -0.206 OA
HETATM   36  O   UNL     1      45.600 -17.872   6.729  1.00  0.00    -0.206 OA
ENDBRANCH  31  33
ENDBRANCH  26  31
ENDBRANCH   4  25
TORSDOF 9
ENDMDL
MODEL 8
REMARK VINA RESULT:      -8.0      2.969      9.949
REMARK  9 active torsions:
REMARK  status: ('A' for Active; 'I' for Inactive)
REMARK    1  A    between atoms: C_4  and  C_5 
REMARK    2  A    between atoms: C_6  and  N_7 
REMARK    3  A    between atoms: N_7  and  S_8 
REMARK    4  A    between atoms: C_17  and  C_18 
REMARK    5  A    between atoms: C_18  and  N_19 
REMARK    6  A    between atoms: N_19  and  C_21 
REMARK    7  A    between atoms: C_21  and  C_22 
REMARK    8  A    between atoms: C_24  and  C_25 
REMARK    9  A    between atoms: C_25  and  N_26 
ROOT
HETATM    1  C   UNL     1      41.635 -12.386   2.684  1.00  0.00     0.079 C 
HETATM    2  C   UNL     1      42.231 -13.487   3.463  1.00  0.00     0.078 A 
HETATM    3  O   UNL     1      42.521 -14.643   2.790  1.00  0.00    -0.294 OA
HETATM    4  C   UNL     1      43.025 -15.493   3.745  1.00  0.00     0.182 A 
HETATM    5  N   UNL     1      43.113 -14.932   4.933  1.00  0.00    -0.224 NA
HETATM    6  C   UNL     1      42.564 -13.682   4.783  1.00  0.00     0.092 A 
ENDROOT
BRANCH   6   7
HETATM    7  C   UNL     1      42.374 -12.839   5.990  1.00  0.00     0.296 C 
BRANCH   7   8
HETATM    8  N   UNL     1      40.934 -12.869   6.469  1.00  0.00    -0.065 N 
HETATM    9  H   UNL     1      41.040 -13.103   7.476  1.00  0.00     0.280 HD
HETATM   10  C   UNL     1      40.128 -13.957   5.854  1.00  0.00     0.270 C 
BRANCH   8  11
HETATM   11  C   UNL     1      40.230 -11.534   6.528  1.00  0.00     0.280 C 
BRANCH  11  12
HETATM   12  C   UNL     1      40.202 -10.845   7.866  1.00  0.00     0.009 A 
HETATM   13  S   UNL     1      41.252  -9.535   8.211  1.00  0.00    -0.096 SA
HETATM   14  C   UNL     1      40.510  -9.237   9.730  1.00  0.00     0.009 A 
HETATM   15  C   UNL     1      39.525 -10.166   9.995  1.00  0.00     0.017 A 
HETATM   16  C   UNL     1      39.336 -11.079   8.917  1.00  0.00     0.017 A 
BRANCH  14  17
HETATM   17  C   UNL     1      40.944  -8.078  10.582  1.00  0.00     0.280 C 
BRANCH  17  18
HETATM   18  N   UNL     1      41.707  -8.498  11.822  1.00  0.00    -0.067 N 
HETATM   19  H   UNL     1      42.276  -7.684  12.088  1.00  0.00     0.280 HD
HETATM   20  C   UNL     1      40.807  -8.825  12.993  1.00  0.00     0.235 C 
HETATM   21  C   UNL     1      41.662  -9.083  14.227  1.00  0.00     0.028 C 
HETATM   22  C   UNL     1      42.679 -10.191  13.984  1.00  0.00     0.003 C 
HETATM   23  C   UNL     1      43.524  -9.905  12.747  1.00  0.00     0.028 C 
HETATM   24  C   UNL     1      42.661  -9.634  11.523  1.00  0.00     0.235 C 
ENDBRANCH  17  18
ENDBRANCH  14  17
ENDBRANCH  11  12
ENDBRANCH   8  11
ENDBRANCH   7   8
ENDBRANCH   6   7
BRANCH   4  25
HETATM   25  C   UNL     1      43.358 -16.855   3.329  1.00  0.00     0.044 A 
HETATM   26  C   UNL     1      43.247 -17.963   4.199  1.00  0.00     0.057 A 
HETATM   27  C   UNL     1      43.599 -19.247   3.755  1.00  0.00     0.031 A 
HETATM   28  C   UNL     1      44.054 -19.445   2.453  1.00  0.00     0.002 A 
HETATM   29  C   UNL     1      44.164 -18.365   1.585  1.00  0.00     0.001 A 
HETATM   30  C   UNL     1      43.821 -17.083   2.020  1.00  0.00     0.018 A 
BRANCH  26  31
HETATM   31  N   UNL     1      42.817 -17.843   5.564  1.00  0.00    -0.284 N 
HETATM   32  H   UNL     1      42.225 -17.032   5.752  1.00  0.00     0.178 HD
BRANCH  31  33
HETATM   33  S   UNL     1      43.913 -18.142   6.809  1.00  0.00     0.227 S 
HETATM   34  C   UNL     1      43.338 -17.080   8.121  1.00  0.00     0.186 C 
HETATM   35  O   UNL     1      43.667 -19.519   7.199  1.00  0.00    -0.206 OA
HETATM   36  O   UNL     1      45.254 -17.759   6.428  1.00  0.00    -0.206 OA
ENDBRANCH  31  33
ENDBRANCH  26  31
ENDBRANCH   4  25
TORSDOF 9
ENDMDL
MODEL 9
REMARK VINA RESULT:      -7.9      4.646      9.422
REMARK  9 active torsions:
REMARK  status: ('A' for Active; 'I' for Inactive)
REMARK    1  A    between atoms: C_4  and  C_5 
REMARK    2  A    between atoms: C_6  and  N_7 
REMARK    3  A    between atoms: N_7  and  S_8 
REMARK    4  A    between atoms: C_17  and  C_18 
REMARK    5  A    between atoms: C_18  and  N_19 
REMARK    6  A    between atoms: N_19  and  C_21 
REMARK    7  A    between atoms: C_21  and  C_22 
REMARK    8  A    between atoms: C_24  and  C_25 
REMARK    9  A    between atoms: C_25  and  N_26 
ROOT
HETATM    1  C   UNL     1      40.519 -16.837   6.612  1.00  0.00     0.079 C 
HETATM    2  C   UNL     1      41.854 -17.154   6.072  1.00  0.00     0.078 A 
HETATM    3  O   UNL     1      41.926 -18.141   5.125  1.00  0.00    -0.294 OA
HETATM    4  C   UNL     1      43.263 -18.249   4.827  1.00  0.00     0.182 A 
HETATM    5  N   UNL     1      44.005 -17.375   5.477  1.00  0.00    -0.224 NA
HETATM    6  C   UNL     1      43.135 -16.713   6.308  1.00  0.00     0.092 A 
ENDROOT
BRANCH   6   7
HETATM    7  C   UNL     1      43.688 -15.752   7.295  1.00  0.00     0.296 C 
BRANCH   7   8
HETATM    8  N   UNL     1      44.036 -14.425   6.645  1.00  0.00    -0.065 N 
HETATM    9  H   UNL     1      44.405 -14.722   5.719  1.00  0.00     0.280 HD
HETATM   10  C   UNL     1      45.133 -13.697   7.335  1.00  0.00     0.270 C 
BRANCH   8  11
HETATM   11  C   UNL     1      42.865 -13.555   6.253  1.00  0.00     0.280 C 
BRANCH  11  12
HETATM   12  C   UNL     1      42.639 -13.355   4.778  1.00  0.00     0.009 A 
HETATM   13  S   UNL     1      41.298 -12.457   4.201  1.00  0.00    -0.096 SA
HETATM   14  C   UNL     1      41.839 -12.541   2.574  1.00  0.00     0.009 A 
HETATM   15  C   UNL     1      42.986 -13.301   2.470  1.00  0.00     0.017 A 
HETATM   16  C   UNL     1      43.456 -13.753   3.737  1.00  0.00     0.017 A 
BRANCH  14  17
HETATM   17  C   UNL     1      41.094 -11.834   1.479  1.00  0.00     0.280 C 
BRANCH  17  18
HETATM   18  N   UNL     1      41.808 -11.879   0.142  1.00  0.00    -0.067 N 
HETATM   19  H   UNL     1      42.532 -12.602   0.238  1.00  0.00     0.280 HD
HETATM   20  C   UNL     1      40.905 -12.289  -1.001  1.00  0.00     0.235 C 
HETATM   21  C   UNL     1      41.740 -12.454  -2.264  1.00  0.00     0.028 C 
HETATM   22  C   UNL     1      42.514 -11.185  -2.597  1.00  0.00     0.003 C 
HETATM   23  C   UNL     1      43.352 -10.721  -1.410  1.00  0.00     0.028 C 
HETATM   24  C   UNL     1      42.513 -10.572  -0.149  1.00  0.00     0.235 C 
ENDBRANCH  17  18
ENDBRANCH  14  17
ENDBRANCH  11  12
ENDBRANCH   8  11
ENDBRANCH   7   8
ENDBRANCH   6   7
BRANCH   4  25
HETATM   25  C   UNL     1      43.662 -19.294   3.886  1.00  0.00     0.044 A 
HETATM   26  C   UNL     1      43.081 -19.425   2.604  1.00  0.00     0.057 A 
HETATM   27  C   UNL     1      43.487 -20.460   1.748  1.00  0.00     0.031 A 
HETATM   28  C   UNL     1      44.470 -21.364   2.145  1.00  0.00     0.002 A 
HETATM   29  C   UNL     1      45.054 -21.244   3.401  1.00  0.00     0.001 A 
HETATM   30  C   UNL     1      44.653 -20.221   4.263  1.00  0.00     0.018 A 
BRANCH  26  31
HETATM   31  N   UNL     1      42.041 -18.557   2.128  1.00  0.00    -0.284 N 
HETATM   32  H   UNL     1      41.424 -18.977   1.431  1.00  0.00     0.178 HD
BRANCH  31  33
HETATM   33  S   UNL     1      42.397 -16.946   1.783  1.00  0.00     0.227 S 
HETATM   34  C   UNL     1      41.713 -16.718   0.153  1.00  0.00     0.186 C 
HETATM   35  O   UNL     1      41.598 -16.179   2.722  1.00  0.00    -0.206 OA
HETATM   36  O   UNL     1      43.825 -16.723   1.746  1.00  0.00    -0.206 OA
ENDBRANCH  31  33
ENDBRANCH  26  31
ENDBRANCH   4  25
TORSDOF 9
ENDMDL
MODEL 10
REMARK VINA RESULT:      -7.9      4.652      9.666
REMARK  9 active torsions:
REMARK  status: ('A' for Active; 'I' for Inactive)
REMARK    1  A    between atoms: C_4  and  C_5 
REMARK    2  A    between atoms: C_6  and  N_7 
REMARK    3  A    between atoms: N_7  and  S_8 
REMARK    4  A    between atoms: C_17  and  C_18 
REMARK    5  A    between atoms: C_18  and  N_19 
REMARK    6  A    between atoms: N_19  and  C_21 
REMARK    7  A    between atoms: C_21  and  C_22 
REMARK    8  A    between atoms: C_24  and  C_25 
REMARK    9  A    between atoms: C_25  and  N_26 
ROOT
HETATM    1  C   UNL     1      39.339 -15.404   2.086  1.00  0.00     0.079 C 
HETATM    2  C   UNL     1      40.604 -16.034   1.665  1.00  0.00     0.078 A 
HETATM    3  O   UNL     1      41.095 -17.038   2.457  1.00  0.00    -0.294 OA
HETATM    4  C   UNL     1      42.274 -17.415   1.860  1.00  0.00     0.182 A 
HETATM    5  N   UNL     1      42.515 -16.760   0.744  1.00  0.00    -0.224 NA
HETATM    6  C   UNL     1      41.496 -15.845   0.637  1.00  0.00     0.092 A 
ENDROOT
BRANCH   6   7
HETATM    7  C   UNL     1      41.558 -14.837  -0.452  1.00  0.00     0.296 C 
BRANCH   7   8
HETATM    8  N   UNL     1      40.415 -15.010  -1.435  1.00  0.00    -0.065 N 
HETATM    9  H   UNL     1      39.722 -15.549  -0.877  1.00  0.00     0.280 HD
HETATM   10  C   UNL     1      40.768 -15.848  -2.612  1.00  0.00     0.270 C 
BRANCH   8  11
HETATM   11  C   UNL     1      39.641 -13.759  -1.776  1.00  0.00     0.280 C 
BRANCH  11  12
HETATM   12  C   UNL     1      38.966 -13.052  -0.631  1.00  0.00     0.009 A 
HETATM   13  S   UNL     1      39.755 -11.791   0.221  1.00  0.00    -0.096 SA
HETATM   14  C   UNL     1      38.355 -11.435   1.150  1.00  0.00     0.009 A 
HETATM   15  C   UNL     1      37.328 -12.311   0.860  1.00  0.00     0.017 A 
HETATM   16  C   UNL     1      37.673 -13.228  -0.175  1.00  0.00     0.017 A 
BRANCH  14  17
HETATM   17  C   UNL     1      38.348 -10.289   2.119  1.00  0.00     0.280 C 
BRANCH  17  18
HETATM   18  N   UNL     1      39.081 -10.591   3.412  1.00  0.00    -0.067 N 
HETATM   19  H   UNL     1      38.586 -10.064   4.142  1.00  0.00     0.280 HD
HETATM   20  C   UNL     1      39.030 -12.054   3.796  1.00  0.00     0.235 C 
HETATM   21  C   UNL     1      39.654 -12.232   5.174  1.00  0.00     0.028 C 
HETATM   22  C   UNL     1      41.079 -11.696   5.220  1.00  0.00     0.003 C 
HETATM   23  C   UNL     1      41.142 -10.249   4.742  1.00  0.00     0.028 C 
HETATM   24  C   UNL     1      40.503 -10.078   3.371  1.00  0.00     0.235 C 
ENDBRANCH  17  18
ENDBRANCH  14  17
ENDBRANCH  11  12
ENDBRANCH   8  11
ENDBRANCH   7   8
ENDBRANCH   6   7
BRANCH   4  25
HETATM   25  C   UNL     1      43.075 -18.435   2.535  1.00  0.00     0.044 A 
HETATM   26  C   UNL     1      43.578 -18.263   3.845  1.00  0.00     0.057 A 
HETATM   27  C   UNL     1      44.361 -19.266   4.438  1.00  0.00     0.031 A 
HETATM   28  C   UNL     1      44.645 -20.443   3.749  1.00  0.00     0.002 A 
HETATM   29  C   UNL     1      44.153 -20.628   2.461  1.00  0.00     0.001 A 
HETATM   30  C   UNL     1      43.378 -19.634   1.861  1.00  0.00     0.018 A 
BRANCH  26  31
HETATM   31  N   UNL     1      43.359 -17.070   4.613  1.00  0.00    -0.284 N 
HETATM   32  H   UNL     1      44.208 -16.650   4.995  1.00  0.00     0.178 HD
BRANCH  31  33
HETATM   33  S   UNL     1      42.067 -17.003   5.693  1.00  0.00     0.227 S 
HETATM   34  C   UNL     1      42.841 -17.301   7.271  1.00  0.00     0.186 C 
HETATM   35  O   UNL     1      41.624 -15.620   5.659  1.00  0.00    -0.206 OA
HETATM   36  O   UNL     1      41.103 -18.046   5.420  1.00  0.00    -0.206 OA
ENDBRANCH  31  33
ENDBRANCH  26  31
ENDBRANCH   4  25
TORSDOF 9
ENDMDL
