MODEL 1
REMARK VINA RESULT:      -8.7      0.000      0.000
REMARK  6 active torsions:
REMARK  status: ('A' for Active; 'I' for Inactive)
REMARK    1  A    between atoms: C_10  and  C_11 
REMARK       I    between atoms: C_11  and  N_12 
REMARK    2  A    between atoms: N_12  and  C_13 
REMARK    3  A    between atoms: C_13  and  C_14 
REMARK    4  A    between atoms: C_14  and  N_15 
REMARK    5  A    between atoms: C_14  and  C_19 
REMARK    6  A    between atoms: C_20  and  O_21 
ROOT
HETATM    1  C   UNL     1      41.391 -15.476   0.480  1.00  0.00     0.276 C 
HETATM    2  N   UNL     1      42.492 -16.304   0.607  1.00  0.00    -0.353 N 
HETATM    3  O   UNL     1      40.372 -15.672   1.136  1.00  0.00    -0.265 OA
HETATM    4  H   UNL     1      43.228 -16.141  -0.076  1.00  0.00     0.162 HD
ENDROOT
BRANCH   2   5
HETATM    5  C   UNL     1      42.423 -17.570   1.307  1.00  0.00     0.161 C 
BRANCH   5   6
HETATM    6  C   UNL     1      43.380 -17.762   2.539  1.00  0.00     0.240 C 
BRANCH   6   7
HETATM    7  N   UNL     1      42.720 -17.183   3.827  1.00  0.00    -0.069 N 
HETATM    8  H   UNL     1      43.183 -17.632   4.626  1.00  0.00     0.279 HD
HETATM    9  C   UNL     1      42.983 -15.699   3.962  1.00  0.00     0.270 C 
HETATM   10  C   UNL     1      41.242 -17.444   3.920  1.00  0.00     0.270 C 
ENDBRANCH   6   7
BRANCH   6  11
HETATM   11  C   UNL     1      43.778 -19.222   2.747  1.00  0.00     0.007 A 
HETATM   12  C   UNL     1      44.477 -19.607   3.913  1.00  0.00     0.076 A 
HETATM   13  C   UNL     1      44.825 -20.946   4.110  1.00  0.00     0.037 A 
HETATM   14  C   UNL     1      44.486 -21.909   3.160  1.00  0.00     0.003 A 
HETATM   15  C   UNL     1      43.790 -21.545   2.013  1.00  0.00     0.001 A 
HETATM   16  C   UNL     1      43.432 -20.212   1.808  1.00  0.00     0.012 A 
BRANCH  12  17
HETATM   17  O   UNL     1      44.711 -18.614   4.829  1.00  0.00    -0.355 OA
HETATM   18  C   UNL     1      44.665 -18.980   6.206  1.00  0.00     0.210 C 
ENDBRANCH  12  17
ENDBRANCH   6  11
ENDBRANCH   5   6
ENDBRANCH   2   5
BRANCH   1  19
HETATM   19  C   UNL     1      41.560 -14.422  -0.499  1.00  0.00     0.150 A 
HETATM   20  O   UNL     1      41.980 -13.196  -0.054  1.00  0.00    -0.304 OA
HETATM   21  C   UNL     1      42.148 -12.404  -1.145  1.00  0.00     0.087 A 
HETATM   22  C   UNL     1      42.614 -11.092  -1.123  1.00  0.00     0.045 A 
HETATM   23  C   UNL     1      41.801 -13.091  -2.297  1.00  0.00     0.007 A 
HETATM   24  C   UNL     1      42.746 -10.433  -2.360  1.00  0.00    -0.053 A 
HETATM   25  C   UNL     1      42.362 -11.079  -3.556  1.00  0.00    -0.055 A 
HETATM   26  C   UNL     1      43.266  -9.017  -2.363  1.00  0.00     0.049 C 
HETATM   27  C   UNL     1      42.480 -10.391  -4.892  1.00  0.00     0.049 C 
HETATM   28  C   UNL     1      41.906 -12.415  -3.526  1.00  0.00     0.022 A 
HETATM   29  C   UNL     1      41.416 -14.403  -1.879  1.00  0.00    -0.009 A 
HETATM   30  C   UNL     1      40.974 -15.522  -2.750  1.00  0.00     0.052 C 
ENDBRANCH   1  19
TORSDOF 6
ENDMDL
MODEL 2
REMARK VINA RESULT:      -8.5      2.146      8.874
REMARK  6 active torsions:
REMARK  status: ('A' for Active; 'I' for Inactive)
REMARK    1  A    between atoms: C_10  and  C_11 
REMARK       I    between atoms: C_11  and  N_12 
REMARK    2  A    between atoms: N_12  and  C_13 
REMARK    3  A    between atoms: C_13  and  C_14 
REMARK    4  A    between atoms: C_14  and  N_15 
REMARK    5  A    between atoms: C_14  and  C_19 
REMARK    6  A    between atoms: C_20  and  O_21 
ROOT
HETATM    1  C   UNL     1      42.507 -14.838   2.603  1.00  0.00     0.276 C 
HETATM    2  N   UNL     1      41.194 -14.761   2.175  1.00  0.00    -0.353 N 
HETATM    3  O   UNL     1      43.229 -13.846   2.615  1.00  0.00    -0.265 OA
HETATM    4  H   UNL     1      40.725 -15.658   2.074  1.00  0.00     0.162 HD
ENDROOT
BRANCH   2   5
HETATM    5  C   UNL     1      40.679 -13.595   1.486  1.00  0.00     0.161 C 
BRANCH   5   6
HETATM    6  C   UNL     1      40.044 -13.824   0.065  1.00  0.00     0.240 C 
BRANCH   6   7
HETATM    7  N   UNL     1      38.632 -13.164  -0.004  1.00  0.00    -0.069 N 
HETATM    8  H   UNL     1      38.378 -13.112  -0.997  1.00  0.00     0.279 HD
HETATM    9  C   UNL     1      37.585 -14.031   0.660  1.00  0.00     0.270 C 
HETATM   10  C   UNL     1      38.583 -11.779   0.577  1.00  0.00     0.270 C 
ENDBRANCH   6   7
BRANCH   6  11
HETATM   11  C   UNL     1      40.936 -13.309  -1.062  1.00  0.00     0.007 A 
HETATM   12  C   UNL     1      40.640 -13.634  -2.405  1.00  0.00     0.076 A 
HETATM   13  C   UNL     1      41.447 -13.148  -3.437  1.00  0.00     0.037 A 
HETATM   14  C   UNL     1      42.547 -12.341  -3.150  1.00  0.00     0.003 A 
HETATM   15  C   UNL     1      42.843 -12.005  -1.834  1.00  0.00     0.001 A 
HETATM   16  C   UNL     1      42.042 -12.479  -0.795  1.00  0.00     0.012 A 
BRANCH  12  17
HETATM   17  O   UNL     1      39.504 -14.375  -2.607  1.00  0.00    -0.355 OA
HETATM   18  C   UNL     1      39.537 -15.336  -3.659  1.00  0.00     0.210 C 
ENDBRANCH  12  17
ENDBRANCH   6  11
ENDBRANCH   5   6
ENDBRANCH   2   5
BRANCH   1  19
HETATM   19  C   UNL     1      42.921 -16.172   2.986  1.00  0.00     0.150 A 
HETATM   20  O   UNL     1      42.927 -17.143   2.019  1.00  0.00    -0.304 OA
HETATM   21  C   UNL     1      43.427 -18.274   2.583  1.00  0.00     0.087 A 
HETATM   22  C   UNL     1      43.642 -19.478   1.917  1.00  0.00     0.045 A 
HETATM   23  C   UNL     1      43.708 -18.061   3.922  1.00  0.00     0.007 A 
HETATM   24  C   UNL     1      44.191 -20.539   2.662  1.00  0.00    -0.053 A 
HETATM   25  C   UNL     1      44.452 -20.381   4.041  1.00  0.00    -0.055 A 
HETATM   26  C   UNL     1      44.450 -21.847   1.959  1.00  0.00     0.049 C 
HETATM   27  C   UNL     1      45.026 -21.505   4.866  1.00  0.00     0.049 C 
HETATM   28  C   UNL     1      44.226 -19.135   4.668  1.00  0.00     0.022 A 
HETATM   29  C   UNL     1      43.377 -16.695   4.188  1.00  0.00    -0.009 A 
HETATM   30  C   UNL     1      43.517 -15.979   5.482  1.00  0.00     0.052 C 
ENDBRANCH   1  19
TORSDOF 6
ENDMDL
MODEL 3
REMARK VINA RESULT:      -8.4      1.995      9.060
REMARK  6 active torsions:
REMARK  status: ('A' for Active; 'I' for Inactive)
REMARK    1  A    between atoms: C_10  and  C_11 
REMARK       I    between atoms: C_11  and  N_12 
REMARK    2  A    between atoms: N_12  and  C_13 
REMARK    3  A    between atoms: C_13  and  C_14 
REMARK    4  A    between atoms: C_14  and  N_15 
REMARK    5  A    between atoms: C_14  and  C_19 
REMARK    6  A    between atoms: C_20  and  O_21 
ROOT
HETATM    1  C   UNL     1      42.816 -15.263   3.029  1.00  0.00     0.276 C 
HETATM    2  N   UNL     1      41.637 -15.316   2.308  1.00  0.00    -0.353 N 
HETATM    3  O   UNL     1      43.406 -14.200   3.200  1.00  0.00    -0.265 OA
HETATM    4  H   UNL     1      41.302 -16.256   2.107  1.00  0.00     0.162 HD
ENDROOT
BRANCH   2   5
HETATM    5  C   UNL     1      41.174 -14.200   1.509  1.00  0.00     0.161 C 
BRANCH   5   6
HETATM    6  C   UNL     1      40.527 -14.533   0.115  1.00  0.00     0.240 C 
BRANCH   6   7
HETATM    7  N   UNL     1      39.007 -14.185   0.132  1.00  0.00    -0.069 N 
HETATM    8  H   UNL     1      38.573 -14.720  -0.630  1.00  0.00     0.279 HD
HETATM    9  C   UNL     1      38.348 -14.653   1.411  1.00  0.00     0.270 C 
HETATM   10  C   UNL     1      38.718 -12.726  -0.080  1.00  0.00     0.270 C 
ENDBRANCH   6   7
BRANCH   6  11
HETATM   11  C   UNL     1      41.230 -13.823  -1.040  1.00  0.00     0.007 A 
HETATM   12  C   UNL     1      40.962 -14.203  -2.374  1.00  0.00     0.076 A 
HETATM   13  C   UNL     1      41.593 -13.540  -3.430  1.00  0.00     0.037 A 
HETATM   14  C   UNL     1      42.490 -12.502  -3.175  1.00  0.00     0.003 A 
HETATM   15  C   UNL     1      42.755 -12.113  -1.868  1.00  0.00     0.001 A 
HETATM   16  C   UNL     1      42.126 -12.763  -0.805  1.00  0.00     0.012 A 
BRANCH  12  17
HETATM   17  O   UNL     1      40.019 -15.183  -2.541  1.00  0.00    -0.355 OA
HETATM   18  C   UNL     1      39.392 -15.265  -3.819  1.00  0.00     0.210 C 
ENDBRANCH  12  17
ENDBRANCH   6  11
ENDBRANCH   5   6
ENDBRANCH   2   5
BRANCH   1  19
HETATM   19  C   UNL     1      43.269 -16.552   3.507  1.00  0.00     0.150 A 
HETATM   20  O   UNL     1      43.073 -16.850   4.830  1.00  0.00    -0.304 OA
HETATM   21  C   UNL     1      43.494 -18.128   5.025  1.00  0.00     0.087 A 
HETATM   22  C   UNL     1      43.419 -18.825   6.227  1.00  0.00     0.045 A 
HETATM   23  C   UNL     1      44.002 -18.652   3.847  1.00  0.00     0.007 A 
HETATM   24  C   UNL     1      43.885 -20.154   6.234  1.00  0.00    -0.053 A 
HETATM   25  C   UNL     1      44.452 -20.716   5.068  1.00  0.00    -0.055 A 
HETATM   26  C   UNL     1      43.798 -20.936   7.520  1.00  0.00     0.049 C 
HETATM   27  C   UNL     1      44.972 -22.131   5.052  1.00  0.00     0.049 C 
HETATM   28  C   UNL     1      44.495 -19.970   3.870  1.00  0.00     0.022 A 
HETATM   29  C   UNL     1      43.860 -17.629   2.859  1.00  0.00    -0.009 A 
HETATM   30  C   UNL     1      44.245 -17.712   1.427  1.00  0.00     0.052 C 
ENDBRANCH   1  19
TORSDOF 6
ENDMDL
MODEL 4
REMARK VINA RESULT:      -8.4      2.731      8.351
REMARK  6 active torsions:
REMARK  status: ('A' for Active; 'I' for Inactive)
REMARK    1  A    between atoms: C_10  and  C_11 
REMARK       I    between atoms: C_11  and  N_12 
REMARK    2  A    between atoms: N_12  and  C_13 
REMARK    3  A    between atoms: C_13  and  C_14 
REMARK    4  A    between atoms: C_14  and  N_15 
REMARK    5  A    between atoms: C_14  and  C_19 
REMARK    6  A    between atoms: C_20  and  O_21 
ROOT
HETATM    1  C   UNL     1      43.085 -14.823   3.545  1.00  0.00     0.276 C 
HETATM    2  N   UNL     1      41.836 -14.610   4.102  1.00  0.00    -0.353 N 
HETATM    3  O   UNL     1      43.834 -13.884   3.293  1.00  0.00    -0.265 OA
HETATM    4  H   UNL     1      41.243 -15.436   4.144  1.00  0.00     0.162 HD
ENDROOT
BRANCH   2   5
HETATM    5  C   UNL     1      41.244 -13.290   4.177  1.00  0.00     0.161 C 
BRANCH   5   6
HETATM    6  C   UNL     1      40.086 -12.964   3.165  1.00  0.00     0.240 C 
BRANCH   6   7
HETATM    7  N   UNL     1      39.499 -11.550   3.458  1.00  0.00    -0.069 N 
HETATM    8  H   UNL     1      40.179 -10.868   3.103  1.00  0.00     0.279 HD
HETATM    9  C   UNL     1      38.217 -11.314   2.690  1.00  0.00     0.270 C 
HETATM   10  C   UNL     1      39.269 -11.281   4.919  1.00  0.00     0.270 C 
ENDBRANCH   6   7
BRANCH   6  11
HETATM   11  C   UNL     1      40.535 -13.071   1.710  1.00  0.00     0.007 A 
HETATM   12  C   UNL     1      39.858 -13.936   0.821  1.00  0.00     0.076 A 
HETATM   13  C   UNL     1      40.259 -14.020  -0.515  1.00  0.00     0.037 A 
HETATM   14  C   UNL     1      41.327 -13.252  -0.980  1.00  0.00     0.003 A 
HETATM   15  C   UNL     1      41.995 -12.390  -0.118  1.00  0.00     0.001 A 
HETATM   16  C   UNL     1      41.600 -12.293   1.217  1.00  0.00     0.012 A 
BRANCH  12  17
HETATM   17  O   UNL     1      38.778 -14.604   1.338  1.00  0.00    -0.355 OA
HETATM   18  C   UNL     1      37.496 -14.256   0.821  1.00  0.00     0.210 C 
ENDBRANCH  12  17
ENDBRANCH   6  11
ENDBRANCH   5   6
ENDBRANCH   2   5
BRANCH   1  19
HETATM   19  C   UNL     1      43.377 -16.215   3.276  1.00  0.00     0.150 A 
HETATM   20  O   UNL     1      43.894 -16.971   4.297  1.00  0.00    -0.304 OA
HETATM   21  C   UNL     1      44.004 -18.247   3.842  1.00  0.00     0.087 A 
HETATM   22  C   UNL     1      44.444 -19.333   4.592  1.00  0.00     0.045 A 
HETATM   23  C   UNL     1      43.601 -18.322   2.518  1.00  0.00     0.007 A 
HETATM   24  C   UNL     1      44.469 -20.590   3.957  1.00  0.00    -0.053 A 
HETATM   25  C   UNL     1      44.110 -20.707   2.596  1.00  0.00    -0.055 A 
HETATM   26  C   UNL     1      44.925 -21.785   4.754  1.00  0.00     0.049 C 
HETATM   27  C   UNL     1      44.142 -22.037   1.887  1.00  0.00     0.049 C 
HETATM   28  C   UNL     1      43.659 -19.575   1.880  1.00  0.00     0.022 A 
HETATM   29  C   UNL     1      43.195 -17.002   2.147  1.00  0.00    -0.009 A 
HETATM   30  C   UNL     1      42.667 -16.570   0.828  1.00  0.00     0.052 C 
ENDBRANCH   1  19
TORSDOF 6
ENDMDL
MODEL 5
REMARK VINA RESULT:      -8.2      2.323      8.834
REMARK  6 active torsions:
REMARK  status: ('A' for Active; 'I' for Inactive)
REMARK    1  A    between atoms: C_10  and  C_11 
REMARK       I    between atoms: C_11  and  N_12 
REMARK    2  A    between atoms: N_12  and  C_13 
REMARK    3  A    between atoms: C_13  and  C_14 
REMARK    4  A    between atoms: C_14  and  N_15 
REMARK    5  A    between atoms: C_14  and  C_19 
REMARK    6  A    between atoms: C_20  and  O_21 
ROOT
HETATM    1  C   UNL     1      42.759 -15.302   4.298  1.00  0.00     0.276 C 
HETATM    2  N   UNL     1      42.898 -14.712   3.055  1.00  0.00    -0.353 N 
HETATM    3  O   UNL     1      42.349 -14.661   5.261  1.00  0.00    -0.265 OA
HETATM    4  H   UNL     1      43.372 -15.286   2.361  1.00  0.00     0.162 HD
ENDROOT
BRANCH   2   5
HETATM    5  C   UNL     1      42.820 -13.276   2.873  1.00  0.00     0.161 C 
BRANCH   5   6
HETATM    6  C   UNL     1      41.612 -12.724   2.031  1.00  0.00     0.240 C 
BRANCH   6   7
HETATM    7  N   UNL     1      41.171 -11.331   2.577  1.00  0.00    -0.069 N 
HETATM    8  H   UNL     1      41.800 -10.636   2.160  1.00  0.00     0.279 HD
HETATM    9  C   UNL     1      39.775 -10.975   2.114  1.00  0.00     0.270 C 
HETATM   10  C   UNL     1      41.251 -11.214   4.074  1.00  0.00     0.270 C 
ENDBRANCH   6   7
BRANCH   6  11
HETATM   11  C   UNL     1      41.929 -12.643   0.540  1.00  0.00     0.007 A 
HETATM   12  C   UNL     1      41.612 -13.725  -0.312  1.00  0.00     0.076 A 
HETATM   13  C   UNL     1      41.886 -13.642  -1.680  1.00  0.00     0.037 A 
HETATM   14  C   UNL     1      42.472 -12.495  -2.212  1.00  0.00     0.003 A 
HETATM   15  C   UNL     1      42.779 -11.419  -1.387  1.00  0.00     0.001 A 
HETATM   16  C   UNL     1      42.505 -11.487  -0.021  1.00  0.00     0.012 A 
BRANCH  12  17
HETATM   17  O   UNL     1      40.976 -14.787   0.278  1.00  0.00    -0.355 OA
HETATM   18  C   UNL     1      41.488 -16.086  -0.007  1.00  0.00     0.210 C 
ENDBRANCH  12  17
ENDBRANCH   6  11
ENDBRANCH   5   6
ENDBRANCH   2   5
BRANCH   1  19
HETATM   19  C   UNL     1      43.169 -16.690   4.336  1.00  0.00     0.150 A 
HETATM   20  O   UNL     1      43.088 -17.415   3.176  1.00  0.00    -0.304 OA
HETATM   21  C   UNL     1      43.600 -18.648   3.431  1.00  0.00     0.087 A 
HETATM   22  C   UNL     1      43.743 -19.669   2.496  1.00  0.00     0.045 A 
HETATM   23  C   UNL     1      43.977 -18.747   4.760  1.00  0.00     0.007 A 
HETATM   24  C   UNL     1      44.318 -20.875   2.939  1.00  0.00    -0.053 A 
HETATM   25  C   UNL     1      44.676 -21.037   4.295  1.00  0.00    -0.055 A 
HETATM   26  C   UNL     1      44.500 -21.990   1.940  1.00  0.00     0.049 C 
HETATM   27  C   UNL     1      45.280 -22.323   4.800  1.00  0.00     0.049 C 
HETATM   28  C   UNL     1      44.521 -19.967   5.204  1.00  0.00     0.022 A 
HETATM   29  C   UNL     1      43.695 -17.476   5.353  1.00  0.00    -0.009 A 
HETATM   30  C   UNL     1      43.938 -17.076   6.762  1.00  0.00     0.052 C 
ENDBRANCH   1  19
TORSDOF 6
ENDMDL
MODEL 6
REMARK VINA RESULT:      -8.0      2.098      8.680
REMARK  6 active torsions:
REMARK  status: ('A' for Active; 'I' for Inactive)
REMARK    1  A    between atoms: C_10  and  C_11 
REMARK       I    between atoms: C_11  and  N_12 
REMARK    2  A    between atoms: N_12  and  C_13 
REMARK    3  A    between atoms: C_13  and  C_14 
REMARK    4  A    between atoms: C_14  and  N_15 
REMARK    5  A    between atoms: C_14  and  C_19 
REMARK    6  A    between atoms: C_20  and  O_21 
ROOT
HETATM    1  C   UNL     1      41.560 -15.244   2.988  1.00  0.00     0.276 C 
HETATM    2  N   UNL     1      42.295 -14.427   2.148  1.00  0.00    -0.353 N 
HETATM    3  O   UNL     1      40.492 -14.868   3.463  1.00  0.00    -0.265 OA
HETATM    4  H   UNL     1      43.224 -14.775   1.921  1.00  0.00     0.162 HD
ENDROOT
BRANCH   2   5
HETATM    5  C   UNL     1      41.992 -13.019   1.989  1.00  0.00     0.161 C 
BRANCH   5   6
HETATM    6  C   UNL     1      40.896 -12.635   0.930  1.00  0.00     0.240 C 
BRANCH   6   7
HETATM    7  N   UNL     1      40.599 -11.106   0.994  1.00  0.00    -0.069 N 
HETATM    8  H   UNL     1      41.314 -10.641   0.422  1.00  0.00     0.279 HD
HETATM    9  C   UNL     1      39.265 -10.775   0.361  1.00  0.00     0.270 C 
HETATM   10  C   UNL     1      40.654 -10.537   2.384  1.00  0.00     0.270 C 
ENDBRANCH   6   7
BRANCH   6  11
HETATM   11  C   UNL     1      41.282 -13.051  -0.487  1.00  0.00     0.007 A 
HETATM   12  C   UNL     1      42.331 -12.386  -1.161  1.00  0.00     0.076 A 
HETATM   13  C   UNL     1      42.695 -12.780  -2.451  1.00  0.00     0.037 A 
HETATM   14  C   UNL     1      42.028 -13.830  -3.082  1.00  0.00     0.003 A 
HETATM   15  C   UNL     1      41.001 -14.499  -2.426  1.00  0.00     0.001 A 
HETATM   16  C   UNL     1      40.632 -14.119  -1.136  1.00  0.00     0.012 A 
BRANCH  12  17
HETATM   17  O   UNL     1      42.980 -11.413  -0.447  1.00  0.00    -0.355 OA
HETATM   18  C   UNL     1      43.465 -10.289  -1.178  1.00  0.00     0.210 C 
ENDBRANCH  12  17
ENDBRANCH   6  11
ENDBRANCH   5   6
ENDBRANCH   2   5
BRANCH   1  19
HETATM   19  C   UNL     1      42.184 -16.523   3.256  1.00  0.00     0.150 A 
HETATM   20  O   UNL     1      42.237 -17.437   2.237  1.00  0.00    -0.304 OA
HETATM   21  C   UNL     1      42.935 -18.511   2.690  1.00  0.00     0.087 A 
HETATM   22  C   UNL     1      43.253 -19.640   1.940  1.00  0.00     0.045 A 
HETATM   23  C   UNL     1      43.303 -18.323   4.013  1.00  0.00     0.007 A 
HETATM   24  C   UNL     1      44.006 -20.646   2.574  1.00  0.00    -0.053 A 
HETATM   25  C   UNL     1      44.365 -20.517   3.934  1.00  0.00    -0.055 A 
HETATM   26  C   UNL     1      44.378 -21.871   1.777  1.00  0.00     0.049 C 
HETATM   27  C   UNL     1      45.158 -21.586   4.642  1.00  0.00     0.049 C 
HETATM   28  C   UNL     1      44.028 -19.347   4.650  1.00  0.00     0.022 A 
HETATM   29  C   UNL     1      42.814 -17.031   4.384  1.00  0.00    -0.009 A 
HETATM   30  C   UNL     1      42.969 -16.364   5.702  1.00  0.00     0.052 C 
ENDBRANCH   1  19
TORSDOF 6
ENDMDL
MODEL 7
REMARK VINA RESULT:      -8.0      6.790     10.118
REMARK  6 active torsions:
REMARK  status: ('A' for Active; 'I' for Inactive)
REMARK    1  A    between atoms: C_10  and  C_11 
REMARK       I    between atoms: C_11  and  N_12 
REMARK    2  A    between atoms: N_12  and  C_13 
REMARK    3  A    between atoms: C_13  and  C_14 
REMARK    4  A    between atoms: C_14  and  N_15 
REMARK    5  A    between atoms: C_14  and  C_19 
REMARK    6  A    between atoms: C_20  and  O_21 
ROOT
HETATM    1  C   UNL     1      44.960 -12.568   8.296  1.00  0.00     0.276 C 
HETATM    2  N   UNL     1      43.979 -13.307   7.659  1.00  0.00    -0.353 N 
HETATM    3  O   UNL     1      46.138 -12.661   7.966  1.00  0.00    -0.265 OA
HETATM    4  H   UNL     1      43.061 -13.261   8.095  1.00  0.00     0.162 HD
ENDROOT
BRANCH   2   5
HETATM    5  C   UNL     1      44.301 -14.401   6.765  1.00  0.00     0.161 C 
BRANCH   5   6
HETATM    6  C   UNL     1      43.097 -15.171   6.111  1.00  0.00     0.240 C 
BRANCH   6   7
HETATM    7  N   UNL     1      42.625 -14.434   4.821  1.00  0.00    -0.069 N 
HETATM    8  H   UNL     1      42.107 -15.119   4.260  1.00  0.00     0.279 HD
HETATM    9  C   UNL     1      41.650 -13.324   5.145  1.00  0.00     0.270 C 
HETATM   10  C   UNL     1      43.753 -13.888   3.989  1.00  0.00     0.270 C 
ENDBRANCH   6   7
BRANCH   6  11
HETATM   11  C   UNL     1      43.433 -16.629   5.807  1.00  0.00     0.007 A 
HETATM   12  C   UNL     1      42.546 -17.417   5.039  1.00  0.00     0.076 A 
HETATM   13  C   UNL     1      42.864 -18.746   4.747  1.00  0.00     0.037 A 
HETATM   14  C   UNL     1      44.056 -19.303   5.208  1.00  0.00     0.003 A 
HETATM   15  C   UNL     1      44.942 -18.536   5.956  1.00  0.00     0.001 A 
HETATM   16  C   UNL     1      44.639 -17.206   6.249  1.00  0.00     0.012 A 
BRANCH  12  17
HETATM   17  O   UNL     1      41.430 -16.776   4.566  1.00  0.00    -0.355 OA
HETATM   18  C   UNL     1      41.076 -17.013   3.206  1.00  0.00     0.210 C 
ENDBRANCH  12  17
ENDBRANCH   6  11
ENDBRANCH   5   6
ENDBRANCH   2   5
BRANCH   1  19
HETATM   19  C   UNL     1      44.461 -11.736   9.370  1.00  0.00     0.150 A 
HETATM   20  O   UNL     1      43.489 -10.817   9.072  1.00  0.00    -0.304 OA
HETATM   21  C   UNL     1      43.121 -10.222  10.237  1.00  0.00     0.087 A 
HETATM   22  C   UNL     1      42.122  -9.261  10.370  1.00  0.00     0.045 A 
HETATM   23  C   UNL     1      43.876 -10.715  11.289  1.00  0.00     0.007 A 
HETATM   24  C   UNL     1      41.863  -8.773  11.664  1.00  0.00    -0.053 A 
HETATM   25  C   UNL     1      42.638  -9.214  12.760  1.00  0.00    -0.055 A 
HETATM   26  C   UNL     1      40.774  -7.745  11.836  1.00  0.00     0.049 C 
HETATM   27  C   UNL     1      42.392  -8.697  14.155  1.00  0.00     0.049 C 
HETATM   28  C   UNL     1      43.634 -10.199  12.575  1.00  0.00     0.022 A 
HETATM   29  C   UNL     1      44.750 -11.698  10.728  1.00  0.00    -0.009 A 
HETATM   30  C   UNL     1      45.747 -12.524  11.456  1.00  0.00     0.052 C 
ENDBRANCH   1  19
TORSDOF 6
ENDMDL
MODEL 8
REMARK VINA RESULT:      -7.9      2.204      8.832
REMARK  6 active torsions:
REMARK  status: ('A' for Active; 'I' for Inactive)
REMARK    1  A    between atoms: C_10  and  C_11 
REMARK       I    between atoms: C_11  and  N_12 
REMARK    2  A    between atoms: N_12  and  C_13 
REMARK    3  A    between atoms: C_13  and  C_14 
REMARK    4  A    between atoms: C_14  and  N_15 
REMARK    5  A    between atoms: C_14  and  C_19 
REMARK    6  A    between atoms: C_20  and  O_21 
ROOT
HETATM    1  C   UNL     1      41.780 -15.175   1.964  1.00  0.00     0.276 C 
HETATM    2  N   UNL     1      42.019 -14.940   0.622  1.00  0.00    -0.353 N 
HETATM    3  O   UNL     1      41.147 -14.373   2.645  1.00  0.00    -0.265 OA
HETATM    4  H   UNL     1      42.665 -15.593   0.184  1.00  0.00     0.162 HD
ENDROOT
BRANCH   2   5
HETATM    5  C   UNL     1      41.772 -13.649   0.013  1.00  0.00     0.161 C 
BRANCH   5   6
HETATM    6  C   UNL     1      40.306 -13.351  -0.471  1.00  0.00     0.240 C 
BRANCH   6   7
HETATM    7  N   UNL     1      40.154 -11.840  -0.823  1.00  0.00    -0.069 N 
HETATM    8  H   UNL     1      39.274 -11.744  -1.343  1.00  0.00     0.279 HD
HETATM    9  C   UNL     1      40.005 -10.996   0.424  1.00  0.00     0.270 C 
HETATM   10  C   UNL     1      41.273 -11.299  -1.668  1.00  0.00     0.270 C 
ENDBRANCH   6   7
BRANCH   6  11
HETATM   11  C   UNL     1      39.893 -14.225  -1.654  1.00  0.00     0.007 A 
HETATM   12  C   UNL     1      38.599 -14.103  -2.208  1.00  0.00     0.076 A 
HETATM   13  C   UNL     1      38.229 -14.890  -3.301  1.00  0.00     0.037 A 
HETATM   14  C   UNL     1      39.132 -15.800  -3.852  1.00  0.00     0.003 A 
HETATM   15  C   UNL     1      40.411 -15.922  -3.323  1.00  0.00     0.001 A 
HETATM   16  C   UNL     1      40.795 -15.138  -2.235  1.00  0.00     0.012 A 
BRANCH  12  17
HETATM   17  O   UNL     1      37.797 -13.139  -1.654  1.00  0.00    -0.355 OA
HETATM   18  C   UNL     1      37.131 -12.257  -2.553  1.00  0.00     0.210 C 
ENDBRANCH  12  17
ENDBRANCH   6  11
ENDBRANCH   5   6
ENDBRANCH   2   5
BRANCH   1  19
HETATM   19  C   UNL     1      42.366 -16.403   2.458  1.00  0.00     0.150 A 
HETATM   20  O   UNL     1      42.375 -17.490   1.622  1.00  0.00    -0.304 OA
HETATM   21  C   UNL     1      43.044 -18.487   2.260  1.00  0.00     0.087 A 
HETATM   22  C   UNL     1      43.314 -19.744   1.727  1.00  0.00     0.045 A 
HETATM   23  C   UNL     1      43.435 -18.072   3.523  1.00  0.00     0.007 A 
HETATM   24  C   UNL     1      44.042 -20.643   2.530  1.00  0.00    -0.053 A 
HETATM   25  C   UNL     1      44.423 -20.280   3.841  1.00  0.00    -0.055 A 
HETATM   26  C   UNL     1      44.363 -22.004   1.967  1.00  0.00     0.049 C 
HETATM   27  C   UNL     1      45.189 -21.229   4.727  1.00  0.00     0.049 C 
HETATM   28  C   UNL     1      44.133 -18.988   4.332  1.00  0.00     0.022 A 
HETATM   29  C   UNL     1      42.993 -16.719   3.656  1.00  0.00    -0.009 A 
HETATM   30  C   UNL     1      43.187 -15.828   4.828  1.00  0.00     0.052 C 
ENDBRANCH   1  19
TORSDOF 6
ENDMDL
MODEL 9
REMARK VINA RESULT:      -7.9      1.745      9.202
REMARK  6 active torsions:
REMARK  status: ('A' for Active; 'I' for Inactive)
REMARK    1  A    between atoms: C_10  and  C_11 
REMARK       I    between atoms: C_11  and  N_12 
REMARK    2  A    between atoms: N_12  and  C_13 
REMARK    3  A    between atoms: C_13  and  C_14 
REMARK    4  A    between atoms: C_14  and  N_15 
REMARK    5  A    between atoms: C_14  and  C_19 
REMARK    6  A    between atoms: C_20  and  O_21 
ROOT
HETATM    1  C   UNL     1      40.877 -15.744   2.122  1.00  0.00     0.276 C 
HETATM    2  N   UNL     1      41.487 -15.031   1.106  1.00  0.00    -0.353 N 
HETATM    3  O   UNL     1      39.786 -15.403   2.569  1.00  0.00    -0.265 OA
HETATM    4  H   UNL     1      42.444 -15.313   0.904  1.00  0.00     0.162 HD
ENDROOT
BRANCH   2   5
HETATM    5  C   UNL     1      41.017 -13.724   0.696  1.00  0.00     0.161 C 
BRANCH   5   6
HETATM    6  C   UNL     1      41.403 -13.243  -0.750  1.00  0.00     0.240 C 
BRANCH   6   7
HETATM    7  N   UNL     1      40.151 -13.275  -1.679  1.00  0.00    -0.069 N 
HETATM    8  H   UNL     1      40.233 -12.474  -2.315  1.00  0.00     0.279 HD
HETATM    9  C   UNL     1      40.141 -14.513  -2.550  1.00  0.00     0.270 C 
HETATM   10  C   UNL     1      38.846 -13.169  -0.939  1.00  0.00     0.270 C 
ENDBRANCH   6   7
BRANCH   6  11
HETATM   11  C   UNL     1      42.041 -11.856  -0.754  1.00  0.00     0.007 A 
HETATM   12  C   UNL     1      42.756 -11.406  -1.887  1.00  0.00     0.076 A 
HETATM   13  C   UNL     1      43.324 -10.130  -1.895  1.00  0.00     0.037 A 
HETATM   14  C   UNL     1      43.191  -9.292  -0.787  1.00  0.00     0.003 A 
HETATM   15  C   UNL     1      42.482  -9.719   0.330  1.00  0.00     0.001 A 
HETATM   16  C   UNL     1      41.904 -10.989   0.348  1.00  0.00     0.012 A 
BRANCH  12  17
HETATM   17  O   UNL     1      42.783 -12.262  -2.958  1.00  0.00    -0.355 OA
HETATM   18  C   UNL     1      42.204 -11.793  -4.174  1.00  0.00     0.210 C 
ENDBRANCH  12  17
ENDBRANCH   6  11
ENDBRANCH   5   6
ENDBRANCH   2   5
BRANCH   1  19
HETATM   19  C   UNL     1      41.655 -16.869   2.598  1.00  0.00     0.150 A 
HETATM   20  O   UNL     1      41.896 -17.897   1.725  1.00  0.00    -0.304 OA
HETATM   21  C   UNL     1      42.707 -18.786   2.358  1.00  0.00     0.087 A 
HETATM   22  C   UNL     1      43.222 -19.949   1.794  1.00  0.00     0.045 A 
HETATM   23  C   UNL     1      42.963 -18.365   3.653  1.00  0.00     0.007 A 
HETATM   24  C   UNL     1      44.067 -20.738   2.597  1.00  0.00    -0.053 A 
HETATM   25  C   UNL     1      44.321 -20.371   3.938  1.00  0.00    -0.055 A 
HETATM   26  C   UNL     1      44.653 -21.993   2.002  1.00  0.00     0.049 C 
HETATM   27  C   UNL     1      45.210 -21.206   4.825  1.00  0.00     0.049 C 
HETATM   28  C   UNL     1      43.783 -19.175   4.461  1.00  0.00     0.022 A 
HETATM   29  C   UNL     1      42.278 -17.120   3.813  1.00  0.00    -0.009 A 
HETATM   30  C   UNL     1      42.259 -16.262   5.025  1.00  0.00     0.052 C 
ENDBRANCH   1  19
TORSDOF 6
ENDMDL
MODEL 10
REMARK VINA RESULT:      -7.8      3.745      8.492
REMARK  6 active torsions:
REMARK  status: ('A' for Active; 'I' for Inactive)
REMARK    1  A    between atoms: C_10  and  C_11 
REMARK       I    between atoms: C_11  and  N_12 
REMARK    2  A    between atoms: N_12  and  C_13 
REMARK    3  A    between atoms: C_13  and  C_14 
REMARK    4  A    between atoms: C_14  and  N_15 
REMARK    5  A    between atoms: C_14  and  C_19 
REMARK    6  A    between atoms: C_20  and  O_21 
ROOT
HETATM    1  C   UNL     1      42.937 -14.228   3.167  1.00  0.00     0.276 C 
HETATM    2  N   UNL     1      42.314 -13.927   4.364  1.00  0.00    -0.353 N 
HETATM    3  O   UNL     1      43.195 -13.351   2.348  1.00  0.00    -0.265 OA
HETATM    4  H   UNL     1      42.022 -14.737   4.908  1.00  0.00     0.162 HD
ENDROOT
BRANCH   2   5
HETATM    5  C   UNL     1      41.706 -12.635   4.610  1.00  0.00     0.161 C 
BRANCH   5   6
HETATM    6  C   UNL     1      40.171 -12.617   4.949  1.00  0.00     0.240 C 
BRANCH   6   7
HETATM    7  N   UNL     1      39.900 -11.673   6.160  1.00  0.00    -0.069 N 
HETATM    8  H   UNL     1      39.185 -11.001   5.858  1.00  0.00     0.279 HD
HETATM    9  C   UNL     1      39.309 -12.430   7.329  1.00  0.00     0.270 C 
HETATM   10  C   UNL     1      41.113 -10.909   6.615  1.00  0.00     0.270 C 
ENDBRANCH   6   7
BRANCH   6  11
HETATM   11  C   UNL     1      39.313 -12.218   3.751  1.00  0.00     0.007 A 
HETATM   12  C   UNL     1      39.095 -13.134   2.698  1.00  0.00     0.076 A 
HETATM   13  C   UNL     1      38.294 -12.773   1.611  1.00  0.00     0.037 A 
HETATM   14  C   UNL     1      37.707 -11.510   1.557  1.00  0.00     0.003 A 
HETATM   15  C   UNL     1      37.906 -10.602   2.591  1.00  0.00     0.001 A 
HETATM   16  C   UNL     1      38.698 -10.952   3.685  1.00  0.00     0.012 A 
BRANCH  12  17
HETATM   17  O   UNL     1      39.650 -14.377   2.860  1.00  0.00    -0.355 OA
HETATM   18  C   UNL     1      39.170 -15.415   2.008  1.00  0.00     0.210 C 
ENDBRANCH  12  17
ENDBRANCH   6  11
ENDBRANCH   5   6
ENDBRANCH   2   5
BRANCH   1  19
HETATM   19  C   UNL     1      43.207 -15.639   2.985  1.00  0.00     0.150 A 
HETATM   20  O   UNL     1      43.766 -16.326   4.031  1.00  0.00    -0.304 OA
HETATM   21  C   UNL     1      43.845 -17.632   3.664  1.00  0.00     0.087 A 
HETATM   22  C   UNL     1      44.312 -18.667   4.469  1.00  0.00     0.045 A 
HETATM   23  C   UNL     1      43.380 -17.797   2.370  1.00  0.00     0.007 A 
HETATM   24  C   UNL     1      44.298 -19.965   3.925  1.00  0.00    -0.053 A 
HETATM   25  C   UNL     1      43.875 -20.175   2.594  1.00  0.00    -0.055 A 
HETATM   26  C   UNL     1      44.783 -21.106   4.784  1.00  0.00     0.049 C 
HETATM   27  C   UNL     1      43.864 -21.552   1.981  1.00  0.00     0.049 C 
HETATM   28  C   UNL     1      43.399 -19.093   1.821  1.00  0.00     0.022 A 
HETATM   29  C   UNL     1      42.967 -16.502   1.924  1.00  0.00    -0.009 A 
HETATM   30  C   UNL     1      42.380 -16.159   0.604  1.00  0.00     0.052 C 
ENDBRANCH   1  19
TORSDOF 6
ENDMDL
