MODEL 1
REMARK VINA RESULT:      -9.8      0.000      0.000
REMARK  6 active torsions:
REMARK  status: ('A' for Active; 'I' for Inactive)
REMARK    1  A    between atoms: O_2  and  C_3 
REMARK    2  A    between atoms: C_5  and  C_6 
REMARK    3  A    between atoms: N_8  and  C_9 
REMARK    4  A    between atoms: C_16  and  C_17 
REMARK       I    between atoms: C_17  and  N_18 
REMARK    5  A    between atoms: N_18  and  N_19 
REMARK       I    between atoms: N_19  and  C_20 
REMARK    6  A    between atoms: C_20  and  C_21 
ROOT
HETATM    1  C   UNL     1      42.406 -16.429   3.381  1.00  0.00     0.105 A 
HETATM    2  N   UNL     1      42.676 -17.598   2.777  1.00  0.00    -0.166 NA
HETATM    3  N   UNL     1      43.339 -18.346   3.685  1.00  0.00    -0.244 N 
HETATM    4  C   UNL     1      43.509 -17.659   4.863  1.00  0.00     0.138 A 
HETATM    5  C   UNL     1      42.933 -16.408   4.707  1.00  0.00     0.082 A 
ENDROOT
BRANCH   5   6
HETATM    6  C   UNL     1      42.935 -15.335   5.689  1.00  0.00     0.274 C 
HETATM    7  N   UNL     1      44.008 -15.352   6.560  1.00  0.00    -0.263 N 
HETATM    8  H   UNL     1      44.637 -16.148   6.641  1.00  0.00     0.190 HD
HETATM    9  O   UNL     1      42.061 -14.473   5.760  1.00  0.00    -0.266 OA
BRANCH   7  10
HETATM   10  N   UNL     1      44.020 -14.451   7.634  1.00  0.00    -0.262 N 
HETATM   11  C   UNL     1      44.985 -13.465   7.652  1.00  0.00     0.286 C 
HETATM   12  O   UNL     1      45.773 -13.321   6.717  1.00  0.00    -0.264 OA
HETATM   13  H   UNL     1      43.426 -14.673   8.428  1.00  0.00     0.190 HD
BRANCH  11  14
HETATM   14  C   UNL     1      45.010 -12.630   8.830  1.00  0.00     0.102 A 
HETATM   15  N   UNL     1      44.102 -12.807   9.855  1.00  0.00    -0.361 N 
HETATM   16  H   UNL     1      43.378 -13.515   9.845  1.00  0.00     0.165 HD
HETATM   17  C   UNL     1      44.330 -11.902  10.855  1.00  0.00     0.088 A 
HETATM   18  C   UNL     1      45.399 -11.123  10.482  1.00  0.00     0.019 A 
HETATM   19  C   UNL     1      45.829 -11.577   9.210  1.00  0.00     0.036 A 
ENDBRANCH  11  14
ENDBRANCH   7  10
ENDBRANCH   5   6
BRANCH   1  20
HETATM   20  C   UNL     1      41.648 -15.409   2.649  1.00  0.00    -0.002 A 
HETATM   21  C   UNL     1      40.277 -15.550   2.401  1.00  0.00     0.050 A 
HETATM   22  C   UNL     1      39.567 -14.575   1.688  1.00  0.00     0.069 A 
HETATM   23  C   UNL     1      40.240 -13.458   1.195  1.00  0.00     0.037 A 
HETATM   24  C   UNL     1      41.611 -13.313   1.418  1.00  0.00     0.004 A 
HETATM   25  C   UNL     1      42.309 -14.281   2.140  1.00  0.00     0.014 A 
BRANCH  22  26
HETATM   26  O   UNL     1      38.233 -14.840   1.533  1.00  0.00    -0.356 OA
HETATM   27  C   UNL     1      37.525 -14.030   0.603  1.00  0.00     0.210 C 
ENDBRANCH  22  26
ENDBRANCH   1  20
BRANCH   3  28
HETATM   28  C   UNL     1      43.774 -19.665   3.369  1.00  0.00     0.058 A 
HETATM   29  C   UNL     1      43.484 -20.200   2.105  1.00  0.00     0.031 A 
HETATM   30  C   UNL     1      43.902 -21.491   1.773  1.00  0.00     0.002 A 
HETATM   31  C   UNL     1      44.607 -22.257   2.700  1.00  0.00     0.000 A 
HETATM   32  C   UNL     1      44.896 -21.734   3.959  1.00  0.00     0.002 A 
HETATM   33  C   UNL     1      44.483 -20.440   4.297  1.00  0.00     0.031 A 
ENDBRANCH   3  28
TORSDOF 6
ENDMDL
MODEL 2
REMARK VINA RESULT:      -8.8      2.521      3.057
REMARK  6 active torsions:
REMARK  status: ('A' for Active; 'I' for Inactive)
REMARK    1  A    between atoms: O_2  and  C_3 
REMARK    2  A    between atoms: C_5  and  C_6 
REMARK    3  A    between atoms: N_8  and  C_9 
REMARK    4  A    between atoms: C_16  and  C_17 
REMARK       I    between atoms: C_17  and  N_18 
REMARK    5  A    between atoms: N_18  and  N_19 
REMARK       I    between atoms: N_19  and  C_20 
REMARK    6  A    between atoms: C_20  and  C_21 
ROOT
HETATM    1  C   UNL     1      42.200 -16.585   2.417  1.00  0.00     0.105 A 
HETATM    2  N   UNL     1      42.402 -17.876   2.110  1.00  0.00    -0.166 NA
HETATM    3  N   UNL     1      43.301 -18.339   3.004  1.00  0.00    -0.244 N 
HETATM    4  C   UNL     1      43.688 -17.348   3.875  1.00  0.00     0.138 A 
HETATM    5  C   UNL     1      43.011 -16.191   3.524  1.00  0.00     0.082 A 
ENDROOT
BRANCH   5   6
HETATM    6  C   UNL     1      43.163 -14.885   4.147  1.00  0.00     0.274 C 
HETATM    7  N   UNL     1      42.604 -14.778   5.407  1.00  0.00    -0.263 N 
HETATM    8  H   UNL     1      41.972 -15.479   5.788  1.00  0.00     0.190 HD
HETATM    9  O   UNL     1      43.737 -13.938   3.614  1.00  0.00    -0.266 OA
BRANCH   7  10
HETATM   10  N   UNL     1      42.568 -13.521   6.024  1.00  0.00    -0.262 N 
HETATM   11  C   UNL     1      41.404 -12.784   5.944  1.00  0.00     0.286 C 
HETATM   12  O   UNL     1      40.391 -13.241   5.414  1.00  0.00    -0.264 OA
HETATM   13  H   UNL     1      43.452 -13.142   6.352  1.00  0.00     0.190 HD
BRANCH  11  14
HETATM   14  C   UNL     1      41.458 -11.457   6.511  1.00  0.00     0.102 A 
HETATM   15  N   UNL     1      41.761 -11.258   7.843  1.00  0.00    -0.361 N 
HETATM   16  H   UNL     1      41.960 -12.011   8.490  1.00  0.00     0.165 HD
HETATM   17  C   UNL     1      41.753  -9.923   8.139  1.00  0.00     0.088 A 
HETATM   18  C   UNL     1      41.441  -9.239   6.988  1.00  0.00     0.019 A 
HETATM   19  C   UNL     1      41.254 -10.199   5.964  1.00  0.00     0.036 A 
ENDBRANCH  11  14
ENDBRANCH   7  10
ENDBRANCH   5   6
BRANCH   1  20
HETATM   20  C   UNL     1      41.230 -15.810   1.635  1.00  0.00    -0.002 A 
HETATM   21  C   UNL     1      41.491 -15.427   0.313  1.00  0.00     0.050 A 
HETATM   22  C   UNL     1      40.564 -14.674  -0.418  1.00  0.00     0.069 A 
HETATM   23  C   UNL     1      39.371 -14.277   0.186  1.00  0.00     0.037 A 
HETATM   24  C   UNL     1      39.105 -14.635   1.509  1.00  0.00     0.004 A 
HETATM   25  C   UNL     1      40.028 -15.396   2.228  1.00  0.00     0.014 A 
BRANCH  22  26
HETATM   26  O   UNL     1      40.948 -14.385  -1.699  1.00  0.00    -0.356 OA
HETATM   27  C   UNL     1      40.955 -15.465  -2.625  1.00  0.00     0.210 C 
ENDBRANCH  22  26
ENDBRANCH   1  20
BRANCH   3  28
HETATM   28  C   UNL     1      43.739 -19.693   2.968  1.00  0.00     0.058 A 
HETATM   29  C   UNL     1      44.423 -20.224   4.073  1.00  0.00     0.031 A 
HETATM   30  C   UNL     1      44.861 -21.551   4.060  1.00  0.00     0.002 A 
HETATM   31  C   UNL     1      44.624 -22.354   2.945  1.00  0.00     0.000 A 
HETATM   32  C   UNL     1      43.948 -21.833   1.843  1.00  0.00     0.002 A 
HETATM   33  C   UNL     1      43.505 -20.506   1.850  1.00  0.00     0.031 A 
ENDBRANCH   3  28
TORSDOF 6
ENDMDL
MODEL 3
REMARK VINA RESULT:      -8.7      1.721      2.108
REMARK  6 active torsions:
REMARK  status: ('A' for Active; 'I' for Inactive)
REMARK    1  A    between atoms: O_2  and  C_3 
REMARK    2  A    between atoms: C_5  and  C_6 
REMARK    3  A    between atoms: N_8  and  C_9 
REMARK    4  A    between atoms: C_16  and  C_17 
REMARK       I    between atoms: C_17  and  N_18 
REMARK    5  A    between atoms: N_18  and  N_19 
REMARK       I    between atoms: N_19  and  C_20 
REMARK    6  A    between atoms: C_20  and  C_21 
ROOT
HETATM    1  C   UNL     1      43.230 -16.659   4.299  1.00  0.00     0.105 A 
HETATM    2  N   UNL     1      43.343 -17.725   3.491  1.00  0.00    -0.166 NA
HETATM    3  N   UNL     1      43.868 -18.714   4.244  1.00  0.00    -0.244 N 
HETATM    4  C   UNL     1      44.106 -18.285   5.528  1.00  0.00     0.138 A 
HETATM    5  C   UNL     1      43.721 -16.956   5.605  1.00  0.00     0.082 A 
ENDROOT
BRANCH   5   6
HETATM    6  C   UNL     1      43.854 -16.092   6.768  1.00  0.00     0.274 C 
HETATM    7  N   UNL     1      44.503 -14.895   6.526  1.00  0.00    -0.263 N 
HETATM    8  H   UNL     1      45.018 -14.715   5.667  1.00  0.00     0.190 HD
HETATM    9  O   UNL     1      43.432 -16.381   7.886  1.00  0.00    -0.266 OA
BRANCH   7  10
HETATM   10  N   UNL     1      44.812 -14.064   7.611  1.00  0.00    -0.262 N 
HETATM   11  C   UNL     1      44.067 -12.917   7.791  1.00  0.00     0.286 C 
HETATM   12  O   UNL     1      43.102 -12.659   7.070  1.00  0.00    -0.264 OA
HETATM   13  H   UNL     1      45.676 -14.258   8.110  1.00  0.00     0.190 HD
BRANCH  11  14
HETATM   14  C   UNL     1      44.493 -12.050   8.864  1.00  0.00     0.102 A 
HETATM   15  N   UNL     1      43.609 -11.625   9.837  1.00  0.00    -0.361 N 
HETATM   16  H   UNL     1      42.631 -11.888   9.858  1.00  0.00     0.165 HD
HETATM   17  C   UNL     1      44.247 -10.821  10.740  1.00  0.00     0.088 A 
HETATM   18  C   UNL     1      45.563 -10.716  10.356  1.00  0.00     0.019 A 
HETATM   19  C   UNL     1      45.720 -11.487   9.178  1.00  0.00     0.036 A 
ENDBRANCH  11  14
ENDBRANCH   7  10
ENDBRANCH   5   6
BRANCH   1  20
HETATM   20  C   UNL     1      42.646 -15.422   3.769  1.00  0.00    -0.002 A 
HETATM   21  C   UNL     1      41.686 -14.697   4.487  1.00  0.00     0.050 A 
HETATM   22  C   UNL     1      41.124 -13.526   3.964  1.00  0.00     0.069 A 
HETATM   23  C   UNL     1      41.506 -13.087   2.696  1.00  0.00     0.037 A 
HETATM   24  C   UNL     1      42.447 -13.810   1.960  1.00  0.00     0.004 A 
HETATM   25  C   UNL     1      43.012 -14.969   2.493  1.00  0.00     0.014 A 
BRANCH  22  26
HETATM   26  O   UNL     1      40.211 -12.916   4.781  1.00  0.00    -0.356 OA
HETATM   27  C   UNL     1      39.829 -13.625   5.953  1.00  0.00     0.210 C 
ENDBRANCH  22  26
ENDBRANCH   1  20
BRANCH   3  28
HETATM   28  C   UNL     1      44.115 -20.003   3.691  1.00  0.00     0.058 A 
HETATM   29  C   UNL     1      44.575 -21.033   4.527  1.00  0.00     0.031 A 
HETATM   30  C   UNL     1      44.823 -22.306   4.006  1.00  0.00     0.002 A 
HETATM   31  C   UNL     1      44.618 -22.558   2.652  1.00  0.00     0.000 A 
HETATM   32  C   UNL     1      44.164 -21.541   1.814  1.00  0.00     0.002 A 
HETATM   33  C   UNL     1      43.911 -20.264   2.329  1.00  0.00     0.031 A 
ENDBRANCH   3  28
TORSDOF 6
ENDMDL
MODEL 4
REMARK VINA RESULT:      -8.6      3.036      9.006
REMARK  6 active torsions:
REMARK  status: ('A' for Active; 'I' for Inactive)
REMARK    1  A    between atoms: O_2  and  C_3 
REMARK    2  A    between atoms: C_5  and  C_6 
REMARK    3  A    between atoms: N_8  and  C_9 
REMARK    4  A    between atoms: C_16  and  C_17 
REMARK       I    between atoms: C_17  and  N_18 
REMARK    5  A    between atoms: N_18  and  N_19 
REMARK       I    between atoms: N_19  and  C_20 
REMARK    6  A    between atoms: C_20  and  C_21 
ROOT
HETATM    1  C   UNL     1      43.019 -17.068   3.799  1.00  0.00     0.105 A 
HETATM    2  N   UNL     1      43.604 -16.424   4.822  1.00  0.00    -0.166 NA
HETATM    3  N   UNL     1      42.978 -15.232   4.923  1.00  0.00    -0.244 N 
HETATM    4  C   UNL     1      42.004 -15.101   3.962  1.00  0.00     0.138 A 
HETATM    5  C   UNL     1      42.005 -16.260   3.202  1.00  0.00     0.082 A 
ENDROOT
BRANCH   5   6
HETATM    6  C   UNL     1      41.171 -16.524   2.040  1.00  0.00     0.274 C 
HETATM    7  N   UNL     1      41.680 -16.050   0.845  1.00  0.00    -0.263 N 
HETATM    8  H   UNL     1      42.465 -15.405   0.801  1.00  0.00     0.190 HD
HETATM    9  O   UNL     1      40.095 -17.116   2.092  1.00  0.00    -0.266 OA
BRANCH   7  10
HETATM   10  N   UNL     1      40.881 -16.123  -0.304  1.00  0.00    -0.262 N 
HETATM   11  C   UNL     1      40.925 -15.075  -1.201  1.00  0.00     0.286 C 
HETATM   12  O   UNL     1      41.701 -14.131  -1.046  1.00  0.00    -0.264 OA
HETATM   13  H   UNL     1      40.184 -16.861  -0.336  1.00  0.00     0.190 HD
BRANCH  11  14
HETATM   14  C   UNL     1      40.009 -15.158  -2.314  1.00  0.00     0.102 A 
HETATM   15  N   UNL     1      40.008 -16.248  -3.162  1.00  0.00    -0.361 N 
HETATM   16  H   UNL     1      40.634 -17.037  -3.060  1.00  0.00     0.165 HD
HETATM   17  C   UNL     1      39.054 -16.097  -4.130  1.00  0.00     0.088 A 
HETATM   18  C   UNL     1      38.422 -14.895  -3.915  1.00  0.00     0.019 A 
HETATM   19  C   UNL     1      39.020 -14.302  -2.775  1.00  0.00     0.036 A 
ENDBRANCH  11  14
ENDBRANCH   7  10
ENDBRANCH   5   6
BRANCH   1  20
HETATM   20  C   UNL     1      43.464 -18.425   3.465  1.00  0.00    -0.002 A 
HETATM   21  C   UNL     1      44.129 -19.231   4.398  1.00  0.00     0.050 A 
HETATM   22  C   UNL     1      44.562 -20.519   4.062  1.00  0.00     0.069 A 
HETATM   23  C   UNL     1      44.351 -21.001   2.769  1.00  0.00     0.037 A 
HETATM   24  C   UNL     1      43.707 -20.202   1.823  1.00  0.00     0.004 A 
HETATM   25  C   UNL     1      43.267 -18.923   2.168  1.00  0.00     0.014 A 
BRANCH  22  26
HETATM   26  O   UNL     1      45.185 -21.195   5.077  1.00  0.00    -0.356 OA
HETATM   27  C   UNL     1      45.149 -22.615   5.015  1.00  0.00     0.210 C 
ENDBRANCH  22  26
ENDBRANCH   1  20
BRANCH   3  28
HETATM   28  C   UNL     1      43.352 -14.291   5.925  1.00  0.00     0.058 A 
HETATM   29  C   UNL     1      42.573 -13.139   6.110  1.00  0.00     0.031 A 
HETATM   30  C   UNL     1      42.920 -12.203   7.088  1.00  0.00     0.002 A 
HETATM   31  C   UNL     1      44.046 -12.408   7.882  1.00  0.00     0.000 A 
HETATM   32  C   UNL     1      44.827 -13.548   7.702  1.00  0.00     0.002 A 
HETATM   33  C   UNL     1      44.484 -14.491   6.727  1.00  0.00     0.031 A 
ENDBRANCH   3  28
TORSDOF 6
ENDMDL
MODEL 5
REMARK VINA RESULT:      -8.5      2.322      2.641
REMARK  6 active torsions:
REMARK  status: ('A' for Active; 'I' for Inactive)
REMARK    1  A    between atoms: O_2  and  C_3 
REMARK    2  A    between atoms: C_5  and  C_6 
REMARK    3  A    between atoms: N_8  and  C_9 
REMARK    4  A    between atoms: C_16  and  C_17 
REMARK       I    between atoms: C_17  and  N_18 
REMARK    5  A    between atoms: N_18  and  N_19 
REMARK       I    between atoms: N_19  and  C_20 
REMARK    6  A    between atoms: C_20  and  C_21 
ROOT
HETATM    1  C   UNL     1      42.373 -16.538   2.365  1.00  0.00     0.105 A 
HETATM    2  N   UNL     1      42.571 -17.830   2.058  1.00  0.00    -0.166 NA
HETATM    3  N   UNL     1      43.370 -18.329   3.025  1.00  0.00    -0.244 N 
HETATM    4  C   UNL     1      43.698 -17.360   3.943  1.00  0.00     0.138 A 
HETATM    5  C   UNL     1      43.086 -16.181   3.548  1.00  0.00     0.082 A 
ENDROOT
BRANCH   5   6
HETATM    6  C   UNL     1      43.213 -14.888   4.203  1.00  0.00     0.274 C 
HETATM    7  N   UNL     1      42.577 -14.796   5.427  1.00  0.00    -0.263 N 
HETATM    8  H   UNL     1      41.915 -15.496   5.754  1.00  0.00     0.190 HD
HETATM    9  O   UNL     1      43.829 -13.938   3.724  1.00  0.00    -0.266 OA
BRANCH   7  10
HETATM   10  N   UNL     1      42.515 -13.549   6.062  1.00  0.00    -0.262 N 
HETATM   11  C   UNL     1      41.400 -12.763   5.858  1.00  0.00     0.286 C 
HETATM   12  O   UNL     1      40.442 -13.168   5.198  1.00  0.00    -0.264 OA
HETATM   13  H   UNL     1      43.366 -13.214   6.504  1.00  0.00     0.190 HD
BRANCH  11  14
HETATM   14  C   UNL     1      41.435 -11.450   6.456  1.00  0.00     0.102 A 
HETATM   15  N   UNL     1      41.791 -11.274   7.779  1.00  0.00    -0.361 N 
HETATM   16  H   UNL     1      42.043 -12.036   8.397  1.00  0.00     0.165 HD
HETATM   17  C   UNL     1      41.753  -9.947   8.110  1.00  0.00     0.088 A 
HETATM   18  C   UNL     1      41.368  -9.245   6.992  1.00  0.00     0.019 A 
HETATM   19  C   UNL     1      41.167 -10.186   5.952  1.00  0.00     0.036 A 
ENDBRANCH  11  14
ENDBRANCH   7  10
ENDBRANCH   5   6
BRANCH   1  20
HETATM   20  C   UNL     1      41.501 -15.728   1.508  1.00  0.00    -0.002 A 
HETATM   21  C   UNL     1      40.323 -15.149   1.997  1.00  0.00     0.050 A 
HETATM   22  C   UNL     1      39.490 -14.391   1.165  1.00  0.00     0.069 A 
HETATM   23  C   UNL     1      39.825 -14.229  -0.180  1.00  0.00     0.037 A 
HETATM   24  C   UNL     1      40.986 -14.815  -0.686  1.00  0.00     0.004 A 
HETATM   25  C   UNL     1      41.817 -15.560   0.151  1.00  0.00     0.014 A 
BRANCH  22  26
HETATM   26  O   UNL     1      38.382 -13.877   1.782  1.00  0.00    -0.356 OA
HETATM   27  C   UNL     1      37.996 -12.559   1.410  1.00  0.00     0.210 C 
ENDBRANCH  22  26
ENDBRANCH   1  20
BRANCH   3  28
HETATM   28  C   UNL     1      43.775 -19.694   3.008  1.00  0.00     0.058 A 
HETATM   29  C   UNL     1      43.511 -20.476   1.873  1.00  0.00     0.031 A 
HETATM   30  C   UNL     1      43.902 -21.817   1.834  1.00  0.00     0.002 A 
HETATM   31  C   UNL     1      44.551 -22.387   2.927  1.00  0.00     0.000 A 
HETATM   32  C   UNL     1      44.814 -21.618   4.059  1.00  0.00     0.002 A 
HETATM   33  C   UNL     1      44.429 -20.274   4.104  1.00  0.00     0.031 A 
ENDBRANCH   3  28
TORSDOF 6
ENDMDL
MODEL 6
REMARK VINA RESULT:      -8.5      2.350      8.473
REMARK  6 active torsions:
REMARK  status: ('A' for Active; 'I' for Inactive)
REMARK    1  A    between atoms: O_2  and  C_3 
REMARK    2  A    between atoms: C_5  and  C_6 
REMARK    3  A    between atoms: N_8  and  C_9 
REMARK    4  A    between atoms: C_16  and  C_17 
REMARK       I    between atoms: C_17  and  N_18 
REMARK    5  A    between atoms: N_18  and  N_19 
REMARK       I    between atoms: N_19  and  C_20 
REMARK    6  A    between atoms: C_20  and  C_21 
ROOT
HETATM    1  C   UNL     1      43.866 -15.877   6.448  1.00  0.00     0.105 A 
HETATM    2  N   UNL     1      44.530 -15.211   7.406  1.00  0.00    -0.166 NA
HETATM    3  N   UNL     1      44.259 -13.903   7.212  1.00  0.00    -0.244 N 
HETATM    4  C   UNL     1      43.436 -13.724   6.126  1.00  0.00     0.138 A 
HETATM    5  C   UNL     1      43.168 -14.974   5.591  1.00  0.00     0.082 A 
ENDROOT
BRANCH   5   6
HETATM    6  C   UNL     1      42.382 -15.246   4.397  1.00  0.00     0.274 C 
HETATM    7  N   UNL     1      43.082 -15.135   3.209  1.00  0.00    -0.263 N 
HETATM    8  H   UNL     1      44.006 -14.712   3.154  1.00  0.00     0.190 HD
HETATM    9  O   UNL     1      41.191 -15.548   4.417  1.00  0.00    -0.266 OA
BRANCH   7  10
HETATM   10  N   UNL     1      42.378 -15.230   2.001  1.00  0.00    -0.262 N 
HETATM   11  C   UNL     1      42.115 -14.070   1.303  1.00  0.00     0.286 C 
HETATM   12  O   UNL     1      42.549 -12.981   1.681  1.00  0.00    -0.264 OA
HETATM   13  H   UNL     1      41.950 -16.126   1.785  1.00  0.00     0.190 HD
BRANCH  11  14
HETATM   14  C   UNL     1      41.302 -14.217   0.119  1.00  0.00     0.102 A 
HETATM   15  N   UNL     1      41.687 -15.046  -0.917  1.00  0.00    -0.361 N 
HETATM   16  H   UNL     1      42.542 -15.588  -0.911  1.00  0.00     0.165 HD
HETATM   17  C   UNL     1      40.756 -15.019  -1.919  1.00  0.00     0.088 A 
HETATM   18  C   UNL     1      39.750 -14.164  -1.536  1.00  0.00     0.019 A 
HETATM   19  C   UNL     1      40.090 -13.658  -0.257  1.00  0.00     0.036 A 
ENDBRANCH  11  14
ENDBRANCH   7  10
ENDBRANCH   5   6
BRANCH   1  20
HETATM   20  C   UNL     1      43.935 -17.342   6.421  1.00  0.00    -0.002 A 
HETATM   21  C   UNL     1      44.136 -18.046   5.226  1.00  0.00     0.050 A 
HETATM   22  C   UNL     1      44.184 -19.445   5.211  1.00  0.00     0.069 A 
HETATM   23  C   UNL     1      44.004 -20.153   6.400  1.00  0.00     0.037 A 
HETATM   24  C   UNL     1      43.784 -19.465   7.595  1.00  0.00     0.004 A 
HETATM   25  C   UNL     1      43.749 -18.070   7.605  1.00  0.00     0.014 A 
BRANCH  22  26
HETATM   26  O   UNL     1      44.399 -19.995   3.976  1.00  0.00    -0.356 OA
HETATM   27  C   UNL     1      44.037 -19.203   2.852  1.00  0.00     0.210 C 
ENDBRANCH  22  26
ENDBRANCH   1  20
BRANCH   3  28
HETATM   28  C   UNL     1      44.806 -12.907   8.070  1.00  0.00     0.058 A 
HETATM   29  C   UNL     1      46.143 -12.513   7.901  1.00  0.00     0.031 A 
HETATM   30  C   UNL     1      46.700 -11.536   8.729  1.00  0.00     0.002 A 
HETATM   31  C   UNL     1      45.931 -10.950   9.733  1.00  0.00     0.000 A 
HETATM   32  C   UNL     1      44.604 -11.337   9.909  1.00  0.00     0.002 A 
HETATM   33  C   UNL     1      44.038 -12.313   9.081  1.00  0.00     0.031 A 
ENDBRANCH   3  28
TORSDOF 6
ENDMDL
MODEL 7
REMARK VINA RESULT:      -8.5      1.151      1.539
REMARK  6 active torsions:
REMARK  status: ('A' for Active; 'I' for Inactive)
REMARK    1  A    between atoms: O_2  and  C_3 
REMARK    2  A    between atoms: C_5  and  C_6 
REMARK    3  A    between atoms: N_8  and  C_9 
REMARK    4  A    between atoms: C_16  and  C_17 
REMARK       I    between atoms: C_17  and  N_18 
REMARK    5  A    between atoms: N_18  and  N_19 
REMARK       I    between atoms: N_19  and  C_20 
REMARK    6  A    between atoms: C_20  and  C_21 
ROOT
HETATM    1  C   UNL     1      42.230 -15.534   3.146  1.00  0.00     0.105 A 
HETATM    2  N   UNL     1      42.633 -16.674   2.561  1.00  0.00    -0.166 NA
HETATM    3  N   UNL     1      43.024 -17.492   3.561  1.00  0.00    -0.244 N 
HETATM    4  C   UNL     1      42.888 -16.879   4.784  1.00  0.00     0.138 A 
HETATM    5  C   UNL     1      42.390 -15.605   4.563  1.00  0.00     0.082 A 
ENDROOT
BRANCH   5   6
HETATM    6  C   UNL     1      42.147 -14.591   5.577  1.00  0.00     0.274 C 
HETATM    7  N   UNL     1      43.250 -13.822   5.900  1.00  0.00    -0.263 N 
HETATM    8  H   UNL     1      44.193 -14.065   5.605  1.00  0.00     0.190 HD
HETATM    9  O   UNL     1      41.058 -14.415   6.120  1.00  0.00    -0.266 OA
BRANCH   7  10
HETATM   10  N   UNL     1      43.155 -12.923   6.970  1.00  0.00    -0.262 N 
HETATM   11  C   UNL     1      44.050 -13.048   8.013  1.00  0.00     0.286 C 
HETATM   12  O   UNL     1      44.962 -13.874   7.980  1.00  0.00    -0.264 OA
HETATM   13  H   UNL     1      42.328 -12.334   7.006  1.00  0.00     0.190 HD
BRANCH  11  14
HETATM   14  C   UNL     1      43.842 -12.159   9.132  1.00  0.00     0.102 A 
HETATM   15  N   UNL     1      44.041 -12.583  10.431  1.00  0.00    -0.361 N 
HETATM   16  H   UNL     1      44.338 -13.520  10.675  1.00  0.00     0.165 HD
HETATM   17  C   UNL     1      43.785 -11.566  11.308  1.00  0.00     0.088 A 
HETATM   18  C   UNL     1      43.413 -10.462  10.577  1.00  0.00     0.019 A 
HETATM   19  C   UNL     1      43.448 -10.832   9.209  1.00  0.00     0.036 A 
ENDBRANCH  11  14
ENDBRANCH   7  10
ENDBRANCH   5   6
BRANCH   1  20
HETATM   20  C   UNL     1      41.704 -14.451   2.308  1.00  0.00    -0.002 A 
HETATM   21  C   UNL     1      40.495 -14.582   1.613  1.00  0.00     0.050 A 
HETATM   22  C   UNL     1      40.011 -13.546   0.804  1.00  0.00     0.069 A 
HETATM   23  C   UNL     1      40.756 -12.375   0.667  1.00  0.00     0.037 A 
HETATM   24  C   UNL     1      41.972 -12.238   1.339  1.00  0.00     0.004 A 
HETATM   25  C   UNL     1      42.442 -13.269   2.153  1.00  0.00     0.014 A 
BRANCH  22  26
HETATM   26  O   UNL     1      38.813 -13.809   0.197  1.00  0.00    -0.356 OA
HETATM   27  C   UNL     1      37.772 -14.311   1.026  1.00  0.00     0.210 C 
ENDBRANCH  22  26
ENDBRANCH   1  20
BRANCH   3  28
HETATM   28  C   UNL     1      43.510 -18.802   3.287  1.00  0.00     0.058 A 
HETATM   29  C   UNL     1      44.364 -19.426   4.210  1.00  0.00     0.031 A 
HETATM   30  C   UNL     1      44.851 -20.712   3.963  1.00  0.00     0.002 A 
HETATM   31  C   UNL     1      44.493 -21.381   2.795  1.00  0.00     0.000 A 
HETATM   32  C   UNL     1      43.648 -20.768   1.872  1.00  0.00     0.002 A 
HETATM   33  C   UNL     1      43.154 -19.481   2.113  1.00  0.00     0.031 A 
ENDBRANCH   3  28
TORSDOF 6
ENDMDL
MODEL 8
REMARK VINA RESULT:      -8.4      3.327      7.594
REMARK  6 active torsions:
REMARK  status: ('A' for Active; 'I' for Inactive)
REMARK    1  A    between atoms: O_2  and  C_3 
REMARK    2  A    between atoms: C_5  and  C_6 
REMARK    3  A    between atoms: N_8  and  C_9 
REMARK    4  A    between atoms: C_16  and  C_17 
REMARK       I    between atoms: C_17  and  N_18 
REMARK    5  A    between atoms: N_18  and  N_19 
REMARK       I    between atoms: N_19  and  C_20 
REMARK    6  A    between atoms: C_20  and  C_21 
ROOT
HETATM    1  C   UNL     1      42.029 -16.411   3.062  1.00  0.00     0.105 A 
HETATM    2  N   UNL     1      42.557 -17.554   3.528  1.00  0.00    -0.166 NA
HETATM    3  N   UNL     1      42.842 -18.306   2.445  1.00  0.00    -0.244 N 
HETATM    4  C   UNL     1      42.486 -17.659   1.286  1.00  0.00     0.138 A 
HETATM    5  C   UNL     1      41.943 -16.434   1.638  1.00  0.00     0.082 A 
ENDROOT
BRANCH   5   6
HETATM    6  C   UNL     1      41.382 -15.450   0.725  1.00  0.00     0.274 C 
HETATM    7  N   UNL     1      42.256 -15.002  -0.248  1.00  0.00    -0.263 N 
HETATM    8  H   UNL     1      43.256 -15.188  -0.214  1.00  0.00     0.190 HD
HETATM    9  O   UNL     1      40.227 -15.034   0.794  1.00  0.00    -0.266 OA
BRANCH   7  10
HETATM   10  N   UNL     1      41.857 -13.946  -1.078  1.00  0.00    -0.262 N 
HETATM   11  C   UNL     1      41.487 -14.236  -2.375  1.00  0.00     0.286 C 
HETATM   12  O   UNL     1      41.429 -15.397  -2.782  1.00  0.00    -0.264 OA
HETATM   13  H   UNL     1      42.023 -13.003  -0.738  1.00  0.00     0.190 HD
BRANCH  11  14
HETATM   14  C   UNL     1      41.181 -13.100  -3.213  1.00  0.00     0.102 A 
HETATM   15  N   UNL     1      42.180 -12.386  -3.845  1.00  0.00    -0.361 N 
HETATM   16  H   UNL     1      43.165 -12.607  -3.763  1.00  0.00     0.165 HD
HETATM   17  C   UNL     1      41.643 -11.364  -4.579  1.00  0.00     0.088 A 
HETATM   18  C   UNL     1      40.278 -11.408  -4.427  1.00  0.00     0.019 A 
HETATM   19  C   UNL     1      39.984 -12.497  -3.568  1.00  0.00     0.036 A 
ENDBRANCH  11  14
ENDBRANCH   7  10
ENDBRANCH   5   6
BRANCH   1  20
HETATM   20  C   UNL     1      41.650 -15.362   4.014  1.00  0.00    -0.002 A 
HETATM   21  C   UNL     1      42.602 -14.718   4.815  1.00  0.00     0.050 A 
HETATM   22  C   UNL     1      42.226 -13.728   5.732  1.00  0.00     0.069 A 
HETATM   23  C   UNL     1      40.878 -13.394   5.868  1.00  0.00     0.037 A 
HETATM   24  C   UNL     1      39.916 -14.040   5.090  1.00  0.00     0.004 A 
HETATM   25  C   UNL     1      40.299 -15.017   4.170  1.00  0.00     0.014 A 
BRANCH  22  26
HETATM   26  O   UNL     1      43.263 -13.179   6.436  1.00  0.00    -0.356 OA
HETATM   27  C   UNL     1      44.335 -14.048   6.778  1.00  0.00     0.210 C 
ENDBRANCH  22  26
ENDBRANCH   1  20
BRANCH   3  28
HETATM   28  C   UNL     1      43.429 -19.597   2.582  1.00  0.00     0.058 A 
HETATM   29  C   UNL     1      44.215 -19.877   3.711  1.00  0.00     0.031 A 
HETATM   30  C   UNL     1      44.799 -21.137   3.868  1.00  0.00     0.002 A 
HETATM   31  C   UNL     1      44.607 -22.121   2.900  1.00  0.00     0.000 A 
HETATM   32  C   UNL     1      43.829 -21.850   1.776  1.00  0.00     0.002 A 
HETATM   33  C   UNL     1      43.239 -20.592   1.613  1.00  0.00     0.031 A 
ENDBRANCH   3  28
TORSDOF 6
ENDMDL
MODEL 9
REMARK VINA RESULT:      -8.3      2.709      7.410
REMARK  6 active torsions:
REMARK  status: ('A' for Active; 'I' for Inactive)
REMARK    1  A    between atoms: O_2  and  C_3 
REMARK    2  A    between atoms: C_5  and  C_6 
REMARK    3  A    between atoms: N_8  and  C_9 
REMARK    4  A    between atoms: C_16  and  C_17 
REMARK       I    between atoms: C_17  and  N_18 
REMARK    5  A    between atoms: N_18  and  N_19 
REMARK       I    between atoms: N_19  and  C_20 
REMARK    6  A    between atoms: C_20  and  C_21 
ROOT
HETATM    1  C   UNL     1      42.246 -16.289   3.110  1.00  0.00     0.105 A 
HETATM    2  N   UNL     1      42.769 -17.420   3.611  1.00  0.00    -0.166 NA
HETATM    3  N   UNL     1      42.975 -18.238   2.558  1.00  0.00    -0.244 N 
HETATM    4  C   UNL     1      42.573 -17.645   1.385  1.00  0.00     0.138 A 
HETATM    5  C   UNL     1      42.082 -16.388   1.696  1.00  0.00     0.082 A 
ENDROOT
BRANCH   5   6
HETATM    6  C   UNL     1      41.498 -15.439   0.760  1.00  0.00     0.274 C 
HETATM    7  N   UNL     1      40.144 -15.608   0.537  1.00  0.00    -0.263 N 
HETATM    8  H   UNL     1      39.637 -16.436   0.841  1.00  0.00     0.190 HD
HETATM    9  O   UNL     1      42.138 -14.553   0.198  1.00  0.00    -0.266 OA
BRANCH   7  10
HETATM   10  N   UNL     1      39.524 -14.842  -0.459  1.00  0.00    -0.262 N 
HETATM   11  C   UNL     1      38.693 -13.811  -0.072  1.00  0.00     0.286 C 
HETATM   12  O   UNL     1      38.552 -13.512   1.115  1.00  0.00    -0.264 OA
HETATM   13  H   UNL     1      39.582 -15.190  -1.412  1.00  0.00     0.190 HD
BRANCH  11  14
HETATM   14  C   UNL     1      38.004 -13.121  -1.138  1.00  0.00     0.102 A 
HETATM   15  N   UNL     1      38.035 -13.594  -2.435  1.00  0.00    -0.361 N 
HETATM   16  H   UNL     1      38.529 -14.433  -2.714  1.00  0.00     0.165 HD
HETATM   17  C   UNL     1      37.310 -12.776  -3.257  1.00  0.00     0.088 A 
HETATM   18  C   UNL     1      36.800 -11.754  -2.490  1.00  0.00     0.019 A 
HETATM   19  C   UNL     1      37.235 -11.968  -1.159  1.00  0.00     0.036 A 
ENDBRANCH  11  14
ENDBRANCH   7  10
ENDBRANCH   5   6
BRANCH   1  20
HETATM   20  C   UNL     1      41.946 -15.179   4.020  1.00  0.00    -0.002 A 
HETATM   21  C   UNL     1      42.885 -14.721   4.954  1.00  0.00     0.050 A 
HETATM   22  C   UNL     1      42.582 -13.670   5.828  1.00  0.00     0.069 A 
HETATM   23  C   UNL     1      41.316 -13.085   5.788  1.00  0.00     0.037 A 
HETATM   24  C   UNL     1      40.364 -13.543   4.875  1.00  0.00     0.004 A 
HETATM   25  C   UNL     1      40.677 -14.583   3.999  1.00  0.00     0.014 A 
BRANCH  22  26
HETATM   26  O   UNL     1      43.598 -13.321   6.676  1.00  0.00    -0.356 OA
HETATM   27  C   UNL     1      44.615 -14.293   6.888  1.00  0.00     0.210 C 
ENDBRANCH  22  26
ENDBRANCH   1  20
BRANCH   3  28
HETATM   28  C   UNL     1      43.534 -19.536   2.737  1.00  0.00     0.058 A 
HETATM   29  C   UNL     1      43.344 -20.509   1.744  1.00  0.00     0.031 A 
HETATM   30  C   UNL     1      43.885 -21.788   1.897  1.00  0.00     0.002 A 
HETATM   31  C   UNL     1      44.614 -22.105   3.042  1.00  0.00     0.000 A 
HETATM   32  C   UNL     1      44.806 -21.145   4.034  1.00  0.00     0.002 A 
HETATM   33  C   UNL     1      44.269 -19.861   3.885  1.00  0.00     0.031 A 
ENDBRANCH   3  28
TORSDOF 6
ENDMDL
MODEL 10
REMARK VINA RESULT:      -8.3      3.309      7.466
REMARK  6 active torsions:
REMARK  status: ('A' for Active; 'I' for Inactive)
REMARK    1  A    between atoms: O_2  and  C_3 
REMARK    2  A    between atoms: C_5  and  C_6 
REMARK    3  A    between atoms: N_8  and  C_9 
REMARK    4  A    between atoms: C_16  and  C_17 
REMARK       I    between atoms: C_17  and  N_18 
REMARK    5  A    between atoms: N_18  and  N_19 
REMARK       I    between atoms: N_19  and  C_20 
REMARK    6  A    between atoms: C_20  and  C_21 
ROOT
HETATM    1  C   UNL     1      42.020 -16.438   3.327  1.00  0.00     0.105 A 
HETATM    2  N   UNL     1      42.801 -17.468   3.691  1.00  0.00    -0.166 NA
HETATM    3  N   UNL     1      42.663 -18.403   2.728  1.00  0.00    -0.244 N 
HETATM    4  C   UNL     1      41.786 -17.986   1.755  1.00  0.00     0.138 A 
HETATM    5  C   UNL     1      41.334 -16.725   2.109  1.00  0.00     0.082 A 
ENDROOT
BRANCH   5   6
HETATM    6  C   UNL     1      40.347 -15.935   1.389  1.00  0.00     0.274 C 
HETATM    7  N   UNL     1      40.710 -15.595   0.099  1.00  0.00    -0.263 N 
HETATM    8  H   UNL     1      41.657 -15.713  -0.254  1.00  0.00     0.190 HD
HETATM    9  O   UNL     1      39.272 -15.583   1.869  1.00  0.00    -0.266 OA
BRANCH   7  10
HETATM   10  N   UNL     1      39.894 -14.711  -0.620  1.00  0.00    -0.262 N 
HETATM   11  C   UNL     1      39.983 -14.709  -1.997  1.00  0.00     0.286 C 
HETATM   12  O   UNL     1      40.700 -15.513  -2.595  1.00  0.00    -0.264 OA
HETATM   13  H   UNL     1      39.404 -13.998  -0.087  1.00  0.00     0.190 HD
BRANCH  11  14
HETATM   14  C   UNL     1      39.194 -13.711  -2.679  1.00  0.00     0.102 A 
HETATM   15  N   UNL     1      39.712 -12.465  -2.974  1.00  0.00    -0.361 N 
HETATM   16  H   UNL     1      40.655 -12.181  -2.737  1.00  0.00     0.165 HD
HETATM   17  C   UNL     1      38.780 -11.702  -3.620  1.00  0.00     0.088 A 
HETATM   18  C   UNL     1      37.637 -12.455  -3.751  1.00  0.00     0.019 A 
HETATM   19  C   UNL     1      37.893 -13.717  -3.160  1.00  0.00     0.036 A 
ENDBRANCH  11  14
ENDBRANCH   7  10
ENDBRANCH   5   6
BRANCH   1  20
HETATM   20  C   UNL     1      41.988 -15.236   4.167  1.00  0.00    -0.002 A 
HETATM   21  C   UNL     1      40.822 -14.834   4.831  1.00  0.00     0.050 A 
HETATM   22  C   UNL     1      40.800 -13.676   5.617  1.00  0.00     0.069 A 
HETATM   23  C   UNL     1      41.951 -12.895   5.724  1.00  0.00     0.037 A 
HETATM   24  C   UNL     1      43.116 -13.273   5.053  1.00  0.00     0.004 A 
HETATM   25  C   UNL     1      43.134 -14.435   4.281  1.00  0.00     0.014 A 
BRANCH  22  26
HETATM   26  O   UNL     1      39.596 -13.414   6.215  1.00  0.00    -0.356 OA
HETATM   27  C   UNL     1      39.482 -12.177   6.907  1.00  0.00     0.210 C 
ENDBRANCH  22  26
ENDBRANCH   1  20
BRANCH   3  28
HETATM   28  C   UNL     1      43.370 -19.637   2.799  1.00  0.00     0.058 A 
HETATM   29  C   UNL     1      43.255 -20.557   1.746  1.00  0.00     0.031 A 
HETATM   30  C   UNL     1      43.941 -21.774   1.794  1.00  0.00     0.002 A 
HETATM   31  C   UNL     1      44.740 -22.082   2.892  1.00  0.00     0.000 A 
HETATM   32  C   UNL     1      44.858 -21.174   3.944  1.00  0.00     0.002 A 
HETATM   33  C   UNL     1      44.176 -19.953   3.902  1.00  0.00     0.031 A 
ENDBRANCH   3  28
TORSDOF 6
ENDMDL
