MODEL 1
REMARK VINA RESULT:      -7.0      0.000      0.000
REMARK  5 active torsions:
REMARK  status: ('A' for Active; 'I' for Inactive)
REMARK    1  A    between atoms: C_2  and  O_3 
REMARK    2  A    between atoms: O_3  and  C_4 
REMARK    3  A    between atoms: C_9  and  C_10 
REMARK       I    between atoms: C_10  and  N_11 
REMARK    4  A    between atoms: N_11  and  C_12 
REMARK    5  A    between atoms: C_12  and  C_13 
ROOT
HETATM    1  C   UNL     1      41.358 -16.095   5.693  1.00  0.00     0.256 C 
HETATM    2  N   UNL     1      42.667 -16.378   5.393  1.00  0.00    -0.348 N 
HETATM    3  O   UNL     1      40.702 -16.772   6.479  1.00  0.00    -0.267 OA
HETATM    4  H   UNL     1      43.172 -15.754   4.771  1.00  0.00     0.163 HD
ENDROOT
BRANCH   1   5
HETATM    5  C   UNL     1      40.725 -14.929   5.011  1.00  0.00     0.084 A 
HETATM    6  C   UNL     1      40.658 -14.745   3.628  1.00  0.00     0.180 A 
HETATM    7  N   UNL     1      40.060 -13.676   3.042  1.00  0.00    -0.236 NA
HETATM    8  C   UNL     1      39.506 -12.752   3.856  1.00  0.00     0.119 A 
HETATM    9  C   UNL     1      39.522 -12.838   5.235  1.00  0.00     0.020 A 
HETATM   10  C   UNL     1      40.142 -13.941   5.817  1.00  0.00     0.023 A 
BRANCH   6  11
HETATM   11  O   UNL     1      41.236 -15.691   2.803  1.00  0.00    -0.334 OA
BRANCH  11  12
HETATM   12  C   UNL     1      40.300 -16.462   2.046  1.00  0.00     0.173 C 
HETATM   13  C   UNL     1      41.048 -17.063   0.869  1.00  0.00     0.034 C 
ENDBRANCH  11  12
ENDBRANCH   6  11
ENDBRANCH   1   5
BRANCH   2  14
HETATM   14  C   UNL     1      43.398 -17.483   5.982  1.00  0.00     0.114 C 
HETATM   15  C   UNL     1      44.649 -16.985   6.709  1.00  0.00     0.037 C 
BRANCH  14  16
HETATM   16  C   UNL     1      43.679 -18.512   4.899  1.00  0.00    -0.036 A 
HETATM   17  C   UNL     1      43.110 -18.432   3.618  1.00  0.00     0.010 A 
HETATM   18  C   UNL     1      43.350 -19.427   2.666  1.00  0.00     0.019 A 
HETATM   19  C   UNL     1      44.152 -20.518   2.992  1.00  0.00     0.011 A 
HETATM   20 BR   UNL     1      44.466 -21.869   1.708  1.00  0.00    -0.051 Br
HETATM   21  C   UNL     1      44.715 -20.626   4.260  1.00  0.00     0.019 A 
HETATM   22  C   UNL     1      44.474 -19.629   5.210  1.00  0.00     0.010 A 
ENDBRANCH  14  16
ENDBRANCH   2  14
TORSDOF 5
ENDMDL
MODEL 2
REMARK VINA RESULT:      -7.0      3.260      6.786
REMARK  5 active torsions:
REMARK  status: ('A' for Active; 'I' for Inactive)
REMARK    1  A    between atoms: C_2  and  O_3 
REMARK    2  A    between atoms: O_3  and  C_4 
REMARK    3  A    between atoms: C_9  and  C_10 
REMARK       I    between atoms: C_10  and  N_11 
REMARK    4  A    between atoms: N_11  and  C_12 
REMARK    5  A    between atoms: C_12  and  C_13 
ROOT
HETATM    1  C   UNL     1      43.946 -17.809   2.776  1.00  0.00     0.256 C 
HETATM    2  N   UNL     1      43.296 -17.174   3.804  1.00  0.00    -0.348 N 
HETATM    3  O   UNL     1      44.402 -17.203   1.811  1.00  0.00    -0.267 OA
HETATM    4  H   UNL     1      42.981 -17.723   4.598  1.00  0.00     0.163 HD
ENDROOT
BRANCH   1   5
HETATM    5  C   UNL     1      44.071 -19.294   2.846  1.00  0.00     0.084 A 
HETATM    6  C   UNL     1      44.615 -20.007   3.917  1.00  0.00     0.180 A 
HETATM    7  N   UNL     1      44.699 -21.362   3.950  1.00  0.00    -0.236 NA
HETATM    8  C   UNL     1      44.227 -22.039   2.882  1.00  0.00     0.119 A 
HETATM    9  C   UNL     1      43.675 -21.429   1.771  1.00  0.00     0.020 A 
HETATM   10  C   UNL     1      43.599 -20.039   1.756  1.00  0.00     0.023 A 
BRANCH   6  11
HETATM   11  O   UNL     1      45.104 -19.304   5.002  1.00  0.00    -0.334 OA
BRANCH  11  12
HETATM   12  C   UNL     1      44.353 -19.484   6.205  1.00  0.00     0.173 C 
HETATM   13  C   UNL     1      44.581 -18.258   7.073  1.00  0.00     0.034 C 
ENDBRANCH  11  12
ENDBRANCH   6  11
ENDBRANCH   1   5
BRANCH   2  14
HETATM   14  C   UNL     1      43.103 -15.737   3.856  1.00  0.00     0.114 C 
HETATM   15  C   UNL     1      43.225 -15.221   5.291  1.00  0.00     0.037 C 
BRANCH  14  16
HETATM   16  C   UNL     1      41.779 -15.401   3.188  1.00  0.00    -0.036 A 
HETATM   17  C   UNL     1      40.903 -16.389   2.711  1.00  0.00     0.010 A 
HETATM   18  C   UNL     1      39.721 -16.039   2.053  1.00  0.00     0.019 A 
HETATM   19  C   UNL     1      39.410 -14.695   1.855  1.00  0.00     0.011 A 
HETATM   20 BR   UNL     1      37.818 -14.223   0.954  1.00  0.00    -0.051 Br
HETATM   21  C   UNL     1      40.271 -13.699   2.305  1.00  0.00     0.019 A 
HETATM   22  C   UNL     1      41.452 -14.052   2.964  1.00  0.00     0.010 A 
ENDBRANCH  14  16
ENDBRANCH   2  14
TORSDOF 5
ENDMDL
MODEL 3
REMARK VINA RESULT:      -6.9      3.287      6.427
REMARK  5 active torsions:
REMARK  status: ('A' for Active; 'I' for Inactive)
REMARK    1  A    between atoms: C_2  and  O_3 
REMARK    2  A    between atoms: O_3  and  C_4 
REMARK    3  A    between atoms: C_9  and  C_10 
REMARK       I    between atoms: C_10  and  N_11 
REMARK    4  A    between atoms: N_11  and  C_12 
REMARK    5  A    between atoms: C_12  and  C_13 
ROOT
HETATM    1  C   UNL     1      44.574 -18.866   5.427  1.00  0.00     0.256 C 
HETATM    2  N   UNL     1      43.422 -18.121   5.433  1.00  0.00    -0.348 N 
HETATM    3  O   UNL     1      45.583 -18.523   6.037  1.00  0.00    -0.267 OA
HETATM    4  H   UNL     1      42.605 -18.479   4.948  1.00  0.00     0.163 HD
ENDROOT
BRANCH   1   5
HETATM    5  C   UNL     1      44.585 -20.122   4.624  1.00  0.00     0.084 A 
HETATM    6  C   UNL     1      44.516 -20.189   3.231  1.00  0.00     0.180 A 
HETATM    7  N   UNL     1      44.543 -21.353   2.532  1.00  0.00    -0.236 NA
HETATM    8  C   UNL     1      44.641 -22.498   3.241  1.00  0.00     0.119 A 
HETATM    9  C   UNL     1      44.710 -22.542   4.620  1.00  0.00     0.020 A 
HETATM   10  C   UNL     1      44.680 -21.338   5.318  1.00  0.00     0.023 A 
BRANCH   6  11
HETATM   11  O   UNL     1      44.406 -19.011   2.515  1.00  0.00    -0.334 OA
BRANCH  11  12
HETATM   12  C   UNL     1      43.156 -18.848   1.840  1.00  0.00     0.173 C 
HETATM   13  C   UNL     1      43.221 -17.544   1.065  1.00  0.00     0.034 C 
ENDBRANCH  11  12
ENDBRANCH   6  11
ENDBRANCH   1   5
BRANCH   2  14
HETATM   14  C   UNL     1      43.280 -16.879   6.169  1.00  0.00     0.114 C 
HETATM   15  C   UNL     1      42.809 -17.142   7.601  1.00  0.00     0.037 C 
BRANCH  14  16
HETATM   16  C   UNL     1      42.373 -15.948   5.380  1.00  0.00    -0.036 A 
HETATM   17  C   UNL     1      42.735 -15.426   4.128  1.00  0.00     0.010 A 
HETATM   18  C   UNL     1      41.897 -14.531   3.458  1.00  0.00     0.019 A 
HETATM   19  C   UNL     1      40.694 -14.139   4.042  1.00  0.00     0.011 A 
HETATM   20 BR   UNL     1      39.568 -12.918   3.141  1.00  0.00    -0.051 Br
HETATM   21  C   UNL     1      40.322 -14.631   5.289  1.00  0.00     0.019 A 
HETATM   22  C   UNL     1      41.162 -15.528   5.956  1.00  0.00     0.010 A 
ENDBRANCH  14  16
ENDBRANCH   2  14
TORSDOF 5
ENDMDL
MODEL 4
REMARK VINA RESULT:      -6.9      1.815      3.346
REMARK  5 active torsions:
REMARK  status: ('A' for Active; 'I' for Inactive)
REMARK    1  A    between atoms: C_2  and  O_3 
REMARK    2  A    between atoms: O_3  and  C_4 
REMARK    3  A    between atoms: C_9  and  C_10 
REMARK       I    between atoms: C_10  and  N_11 
REMARK    4  A    between atoms: N_11  and  C_12 
REMARK    5  A    between atoms: C_12  and  C_13 
ROOT
HETATM    1  C   UNL     1      42.710 -14.893   3.273  1.00  0.00     0.256 C 
HETATM    2  N   UNL     1      42.646 -16.242   3.032  1.00  0.00    -0.348 N 
HETATM    3  O   UNL     1      43.645 -14.199   2.885  1.00  0.00    -0.267 OA
HETATM    4  H   UNL     1      41.825 -16.755   3.337  1.00  0.00     0.163 HD
ENDROOT
BRANCH   1   5
HETATM    5  C   UNL     1      41.601 -14.274   4.056  1.00  0.00     0.084 A 
HETATM    6  C   UNL     1      41.359 -14.485   5.414  1.00  0.00     0.180 A 
HETATM    7  N   UNL     1      40.346 -13.892   6.098  1.00  0.00    -0.236 NA
HETATM    8  C   UNL     1      39.541 -13.056   5.409  1.00  0.00     0.119 A 
HETATM    9  C   UNL     1      39.692 -12.783   4.063  1.00  0.00     0.020 A 
HETATM   10  C   UNL     1      40.735 -13.402   3.380  1.00  0.00     0.023 A 
BRANCH   6  11
HETATM   11  O   UNL     1      42.184 -15.351   6.109  1.00  0.00    -0.334 OA
BRANCH  11  12
HETATM   12  C   UNL     1      41.556 -16.574   6.500  1.00  0.00     0.173 C 
HETATM   13  C   UNL     1      42.508 -17.299   7.435  1.00  0.00     0.034 C 
ENDBRANCH  11  12
ENDBRANCH   6  11
ENDBRANCH   1   5
BRANCH   2  14
HETATM   14  C   UNL     1      43.658 -16.967   2.288  1.00  0.00     0.114 C 
HETATM   15  C   UNL     1      43.240 -17.146   0.827  1.00  0.00     0.037 C 
BRANCH  14  16
HETATM   16  C   UNL     1      43.951 -18.271   3.012  1.00  0.00    -0.036 A 
HETATM   17  C   UNL     1      44.177 -18.331   4.396  1.00  0.00     0.010 A 
HETATM   18  C   UNL     1      44.497 -19.541   5.017  1.00  0.00     0.019 A 
HETATM   19  C   UNL     1      44.608 -20.702   4.255  1.00  0.00     0.011 A 
HETATM   20 BR   UNL     1      45.054 -22.336   5.094  1.00  0.00    -0.051 Br
HETATM   21  C   UNL     1      44.405 -20.664   2.879  1.00  0.00     0.019 A 
HETATM   22  C   UNL     1      44.083 -19.453   2.261  1.00  0.00     0.010 A 
ENDBRANCH  14  16
ENDBRANCH   2  14
TORSDOF 5
ENDMDL
MODEL 5
REMARK VINA RESULT:      -6.7      3.041      6.293
REMARK  5 active torsions:
REMARK  status: ('A' for Active; 'I' for Inactive)
REMARK    1  A    between atoms: C_2  and  O_3 
REMARK    2  A    between atoms: O_3  and  C_4 
REMARK    3  A    between atoms: C_9  and  C_10 
REMARK       I    between atoms: C_10  and  N_11 
REMARK    4  A    between atoms: N_11  and  C_12 
REMARK    5  A    between atoms: C_12  and  C_13 
ROOT
HETATM    1  C   UNL     1      43.509 -18.182   4.959  1.00  0.00     0.256 C 
HETATM    2  N   UNL     1      42.269 -17.683   4.649  1.00  0.00    -0.348 N 
HETATM    3  O   UNL     1      44.295 -17.584   5.688  1.00  0.00    -0.267 OA
HETATM    4  H   UNL     1      41.644 -18.244   4.079  1.00  0.00     0.163 HD
ENDROOT
BRANCH   1   5
HETATM    5  C   UNL     1      43.902 -19.489   4.359  1.00  0.00     0.084 A 
HETATM    6  C   UNL     1      43.659 -19.875   3.039  1.00  0.00     0.180 A 
HETATM    7  N   UNL     1      44.045 -21.070   2.523  1.00  0.00    -0.236 NA
HETATM    8  C   UNL     1      44.697 -21.919   3.346  1.00  0.00     0.119 A 
HETATM    9  C   UNL     1      44.982 -21.636   4.668  1.00  0.00     0.020 A 
HETATM   10  C   UNL     1      44.577 -20.406   5.178  1.00  0.00     0.023 A 
BRANCH   6  11
HETATM   11  O   UNL     1      42.982 -19.003   2.206  1.00  0.00    -0.334 OA
BRANCH  11  12
HETATM   12  C   UNL     1      43.790 -18.427   1.177  1.00  0.00     0.173 C 
HETATM   13  C   UNL     1      44.087 -16.992   1.577  1.00  0.00     0.034 C 
ENDBRANCH  11  12
ENDBRANCH   6  11
ENDBRANCH   1   5
BRANCH   2  14
HETATM   14  C   UNL     1      41.766 -16.423   5.162  1.00  0.00     0.114 C 
HETATM   15  C   UNL     1      41.030 -16.626   6.488  1.00  0.00     0.037 C 
BRANCH  14  16
HETATM   16  C   UNL     1      40.926 -15.760   4.082  1.00  0.00    -0.036 A 
HETATM   17  C   UNL     1      40.354 -14.489   4.246  1.00  0.00     0.010 A 
HETATM   18  C   UNL     1      39.542 -13.936   3.252  1.00  0.00     0.019 A 
HETATM   19  C   UNL     1      39.284 -14.658   2.088  1.00  0.00     0.011 A 
HETATM   20 BR   UNL     1      38.176 -13.915   0.750  1.00  0.00    -0.051 Br
HETATM   21  C   UNL     1      39.828 -15.927   1.911  1.00  0.00     0.019 A 
HETATM   22  C   UNL     1      40.640 -16.475   2.906  1.00  0.00     0.010 A 
ENDBRANCH  14  16
ENDBRANCH   2  14
TORSDOF 5
ENDMDL
MODEL 6
REMARK VINA RESULT:      -6.7      1.883      2.824
REMARK  5 active torsions:
REMARK  status: ('A' for Active; 'I' for Inactive)
REMARK    1  A    between atoms: C_2  and  O_3 
REMARK    2  A    between atoms: O_3  and  C_4 
REMARK    3  A    between atoms: C_9  and  C_10 
REMARK       I    between atoms: C_10  and  N_11 
REMARK    4  A    between atoms: N_11  and  C_12 
REMARK    5  A    between atoms: C_12  and  C_13 
ROOT
HETATM    1  C   UNL     1      42.807 -14.689   3.355  1.00  0.00     0.256 C 
HETATM    2  N   UNL     1      42.642 -16.030   3.113  1.00  0.00    -0.348 N 
HETATM    3  O   UNL     1      43.704 -14.032   2.835  1.00  0.00    -0.267 OA
HETATM    4  H   UNL     1      41.853 -16.510   3.536  1.00  0.00     0.163 HD
ENDROOT
BRANCH   1   5
HETATM    5  C   UNL     1      41.863 -14.034   4.306  1.00  0.00     0.084 A 
HETATM    6  C   UNL     1      40.475 -14.181   4.293  1.00  0.00     0.180 A 
HETATM    7  N   UNL     1      39.648 -13.578   5.186  1.00  0.00    -0.236 NA
HETATM    8  C   UNL     1      40.217 -12.798   6.129  1.00  0.00     0.119 A 
HETATM    9  C   UNL     1      41.579 -12.583   6.226  1.00  0.00     0.020 A 
HETATM   10  C   UNL     1      42.410 -13.209   5.300  1.00  0.00     0.023 A 
BRANCH   6  11
HETATM   11  O   UNL     1      39.900 -14.974   3.317  1.00  0.00    -0.334 OA
BRANCH  11  12
HETATM   12  C   UNL     1      39.274 -14.243   2.260  1.00  0.00     0.173 C 
HETATM   13  C   UNL     1      39.838 -14.763   0.949  1.00  0.00     0.034 C 
ENDBRANCH  11  12
ENDBRANCH   6  11
ENDBRANCH   1   5
BRANCH   2  14
HETATM   14  C   UNL     1      43.491 -16.788   2.214  1.00  0.00     0.114 C 
HETATM   15  C   UNL     1      42.814 -16.985   0.857  1.00  0.00     0.037 C 
BRANCH  14  16
HETATM   16  C   UNL     1      43.890 -18.084   2.901  1.00  0.00    -0.036 A 
HETATM   17  C   UNL     1      44.129 -19.271   2.191  1.00  0.00     0.010 A 
HETATM   18  C   UNL     1      44.441 -20.456   2.863  1.00  0.00     0.019 A 
HETATM   19  C   UNL     1      44.503 -20.466   4.255  1.00  0.00     0.011 A 
HETATM   20 BR   UNL     1      44.912 -22.072   5.164  1.00  0.00    -0.051 Br
HETATM   21  C   UNL     1      44.254 -19.305   4.981  1.00  0.00     0.019 A 
HETATM   22  C   UNL     1      43.945 -18.121   4.305  1.00  0.00     0.010 A 
ENDBRANCH  14  16
ENDBRANCH   2  14
TORSDOF 5
ENDMDL
MODEL 7
REMARK VINA RESULT:      -6.3      3.154      6.053
REMARK  5 active torsions:
REMARK  status: ('A' for Active; 'I' for Inactive)
REMARK    1  A    between atoms: C_2  and  O_3 
REMARK    2  A    between atoms: O_3  and  C_4 
REMARK    3  A    between atoms: C_9  and  C_10 
REMARK       I    between atoms: C_10  and  N_11 
REMARK    4  A    between atoms: N_11  and  C_12 
REMARK    5  A    between atoms: C_12  and  C_13 
ROOT
HETATM    1  C   UNL     1      43.447 -18.619   3.871  1.00  0.00     0.256 C 
HETATM    2  N   UNL     1      42.741 -17.667   3.179  1.00  0.00    -0.348 N 
HETATM    3  O   UNL     1      43.936 -19.603   3.324  1.00  0.00    -0.267 OA
HETATM    4  H   UNL     1      42.400 -16.852   3.679  1.00  0.00     0.163 HD
ENDROOT
BRANCH   1   5
HETATM    5  C   UNL     1      43.595 -18.439   5.345  1.00  0.00     0.084 A 
HETATM    6  C   UNL     1      43.660 -17.210   6.004  1.00  0.00     0.180 A 
HETATM    7  N   UNL     1      43.780 -17.087   7.351  1.00  0.00    -0.236 NA
HETATM    8  C   UNL     1      43.840 -18.225   8.075  1.00  0.00     0.119 A 
HETATM    9  C   UNL     1      43.789 -19.489   7.520  1.00  0.00     0.020 A 
HETATM   10  C   UNL     1      43.667 -19.594   6.137  1.00  0.00     0.023 A 
BRANCH   6  11
HETATM   11  O   UNL     1      43.608 -16.051   5.253  1.00  0.00    -0.334 OA
BRANCH  11  12
HETATM   12  C   UNL     1      42.916 -14.972   5.886  1.00  0.00     0.173 C 
HETATM   13  C   UNL     1      41.475 -15.009   5.408  1.00  0.00     0.034 C 
ENDBRANCH  11  12
ENDBRANCH   6  11
ENDBRANCH   1   5
BRANCH   2  14
HETATM   14  C   UNL     1      42.521 -17.724   1.747  1.00  0.00     0.114 C 
HETATM   15  C   UNL     1      43.840 -17.582   0.985  1.00  0.00     0.037 C 
BRANCH  14  16
HETATM   16  C   UNL     1      41.476 -16.684   1.375  1.00  0.00    -0.036 A 
HETATM   17  C   UNL     1      41.640 -15.804   0.295  1.00  0.00     0.010 A 
HETATM   18  C   UNL     1      40.681 -14.825   0.018  1.00  0.00     0.019 A 
HETATM   19  C   UNL     1      39.554 -14.711   0.829  1.00  0.00     0.011 A 
HETATM   20 BR   UNL     1      38.265 -13.379   0.462  1.00  0.00    -0.051 Br
HETATM   21  C   UNL     1      39.378 -15.563   1.915  1.00  0.00     0.019 A 
HETATM   22  C   UNL     1      40.338 -16.541   2.188  1.00  0.00     0.010 A 
ENDBRANCH  14  16
ENDBRANCH   2  14
TORSDOF 5
ENDMDL
MODEL 8
REMARK VINA RESULT:      -6.2      3.049      3.796
REMARK  5 active torsions:
REMARK  status: ('A' for Active; 'I' for Inactive)
REMARK    1  A    between atoms: C_2  and  O_3 
REMARK    2  A    between atoms: O_3  and  C_4 
REMARK    3  A    between atoms: C_9  and  C_10 
REMARK       I    between atoms: C_10  and  N_11 
REMARK    4  A    between atoms: N_11  and  C_12 
REMARK    5  A    between atoms: C_12  and  C_13 
ROOT
HETATM    1  C   UNL     1      40.591 -14.236   2.465  1.00  0.00     0.256 C 
HETATM    2  N   UNL     1      41.755 -14.932   2.252  1.00  0.00    -0.348 N 
HETATM    3  O   UNL     1      40.242 -13.863   3.581  1.00  0.00    -0.267 OA
HETATM    4  H   UNL     1      42.013 -15.174   1.300  1.00  0.00     0.163 HD
ENDROOT
BRANCH   1   5
HETATM    5  C   UNL     1      39.724 -13.955   1.284  1.00  0.00     0.084 A 
HETATM    6  C   UNL     1      40.171 -13.465   0.055  1.00  0.00     0.180 A 
HETATM    7  N   UNL     1      39.352 -13.235  -1.004  1.00  0.00    -0.236 NA
HETATM    8  C   UNL     1      38.038 -13.499  -0.840  1.00  0.00     0.119 A 
HETATM    9  C   UNL     1      37.495 -13.981   0.335  1.00  0.00     0.020 A 
HETATM   10  C   UNL     1      38.350 -14.210   1.409  1.00  0.00     0.023 A 
BRANCH   6  11
HETATM   11  O   UNL     1      41.516 -13.189  -0.100  1.00  0.00    -0.334 OA
BRANCH  11  12
HETATM   12  C   UNL     1      41.993 -13.319  -1.441  1.00  0.00     0.173 C 
HETATM   13  C   UNL     1      42.784 -12.065  -1.769  1.00  0.00     0.034 C 
ENDBRANCH  11  12
ENDBRANCH   6  11
ENDBRANCH   1   5
BRANCH   2  14
HETATM   14  C   UNL     1      42.683 -15.273   3.313  1.00  0.00     0.114 C 
HETATM   15  C   UNL     1      43.809 -14.242   3.407  1.00  0.00     0.037 C 
BRANCH  14  16
HETATM   16  C   UNL     1      43.166 -16.699   3.094  1.00  0.00    -0.036 A 
HETATM   17  C   UNL     1      43.517 -17.190   1.827  1.00  0.00     0.010 A 
HETATM   18  C   UNL     1      43.904 -18.522   1.659  1.00  0.00     0.019 A 
HETATM   19  C   UNL     1      43.931 -19.379   2.757  1.00  0.00     0.011 A 
HETATM   20 BR   UNL     1      44.442 -21.184   2.526  1.00  0.00    -0.051 Br
HETATM   21  C   UNL     1      43.572 -18.918   4.020  1.00  0.00     0.019 A 
HETATM   22  C   UNL     1      43.187 -17.585   4.185  1.00  0.00     0.010 A 
ENDBRANCH  14  16
ENDBRANCH   2  14
TORSDOF 5
ENDMDL
MODEL 9
REMARK VINA RESULT:      -6.2      3.163      6.791
REMARK  5 active torsions:
REMARK  status: ('A' for Active; 'I' for Inactive)
REMARK    1  A    between atoms: C_2  and  O_3 
REMARK    2  A    between atoms: O_3  and  C_4 
REMARK    3  A    between atoms: C_9  and  C_10 
REMARK       I    between atoms: C_10  and  N_11 
REMARK    4  A    between atoms: N_11  and  C_12 
REMARK    5  A    between atoms: C_12  and  C_13 
ROOT
HETATM    1  C   UNL     1      41.780 -17.691   4.131  1.00  0.00     0.256 C 
HETATM    2  N   UNL     1      41.719 -16.718   3.165  1.00  0.00    -0.348 N 
HETATM    3  O   UNL     1      40.903 -17.834   4.978  1.00  0.00    -0.267 OA
HETATM    4  H   UNL     1      42.452 -16.678   2.464  1.00  0.00     0.163 HD
ENDROOT
BRANCH   1   5
HETATM    5  C   UNL     1      42.978 -18.580   4.146  1.00  0.00     0.084 A 
HETATM    6  C   UNL     1      43.792 -18.817   5.256  1.00  0.00     0.180 A 
HETATM    7  N   UNL     1      44.868 -19.645   5.235  1.00  0.00    -0.236 NA
HETATM    8  C   UNL     1      45.150 -20.265   4.069  1.00  0.00     0.119 A 
HETATM    9  C   UNL     1      44.411 -20.096   2.913  1.00  0.00     0.020 A 
HETATM   10  C   UNL     1      43.313 -19.241   2.955  1.00  0.00     0.023 A 
BRANCH   6  11
HETATM   11  O   UNL     1      43.501 -18.170   6.442  1.00  0.00    -0.334 OA
BRANCH  11  12
HETATM   12  C   UNL     1      44.373 -17.078   6.746  1.00  0.00     0.173 C 
HETATM   13  C   UNL     1      43.530 -15.815   6.780  1.00  0.00     0.034 C 
ENDBRANCH  11  12
ENDBRANCH   6  11
ENDBRANCH   1   5
BRANCH   2  14
HETATM   14  C   UNL     1      40.614 -15.787   3.043  1.00  0.00     0.114 C 
HETATM   15  C   UNL     1      40.394 -15.388   1.582  1.00  0.00     0.037 C 
BRANCH  14  16
HETATM   16  C   UNL     1      40.864 -14.612   3.975  1.00  0.00    -0.036 A 
HETATM   17  C   UNL     1      42.011 -13.808   3.883  1.00  0.00     0.010 A 
HETATM   18  C   UNL     1      42.231 -12.771   4.793  1.00  0.00     0.019 A 
HETATM   19  C   UNL     1      41.311 -12.536   5.812  1.00  0.00     0.011 A 
HETATM   20 BR   UNL     1      41.616 -11.141   7.050  1.00  0.00    -0.051 Br
HETATM   21  C   UNL     1      40.174 -13.330   5.932  1.00  0.00     0.019 A 
HETATM   22  C   UNL     1      39.956 -14.366   5.019  1.00  0.00     0.010 A 
ENDBRANCH  14  16
ENDBRANCH   2  14
TORSDOF 5
ENDMDL
MODEL 10
REMARK VINA RESULT:      -6.2      5.578      7.948
REMARK  5 active torsions:
REMARK  status: ('A' for Active; 'I' for Inactive)
REMARK    1  A    between atoms: C_2  and  O_3 
REMARK    2  A    between atoms: O_3  and  C_4 
REMARK    3  A    between atoms: C_9  and  C_10 
REMARK       I    between atoms: C_10  and  N_11 
REMARK    4  A    between atoms: N_11  and  C_12 
REMARK    5  A    between atoms: C_12  and  C_13 
ROOT
HETATM    1  C   UNL     1      44.338 -14.184   6.711  1.00  0.00     0.256 C 
HETATM    2  N   UNL     1      44.315 -13.669   7.983  1.00  0.00    -0.348 N 
HETATM    3  O   UNL     1      44.774 -13.552   5.753  1.00  0.00    -0.267 OA
HETATM    4  H   UNL     1      43.985 -14.257   8.742  1.00  0.00     0.163 HD
ENDROOT
BRANCH   1   5
HETATM    5  C   UNL     1      43.785 -15.554   6.505  1.00  0.00     0.084 A 
HETATM    6  C   UNL     1      42.568 -15.848   5.886  1.00  0.00     0.180 A 
HETATM    7  N   UNL     1      42.104 -17.111   5.705  1.00  0.00    -0.236 NA
HETATM    8  C   UNL     1      42.874 -18.124   6.154  1.00  0.00     0.119 A 
HETATM    9  C   UNL     1      44.090 -17.942   6.783  1.00  0.00     0.020 A 
HETATM   10  C   UNL     1      44.548 -16.639   6.961  1.00  0.00     0.023 A 
BRANCH   6  11
HETATM   11  O   UNL     1      41.782 -14.802   5.439  1.00  0.00    -0.334 OA
BRANCH  11  12
HETATM   12  C   UNL     1      40.391 -14.946   5.732  1.00  0.00     0.173 C 
HETATM   13  C   UNL     1      39.808 -13.551   5.883  1.00  0.00     0.034 C 
ENDBRANCH  11  12
ENDBRANCH   6  11
ENDBRANCH   1   5
BRANCH   2  14
HETATM   14  C   UNL     1      44.817 -12.350   8.317  1.00  0.00     0.114 C 
HETATM   15  C   UNL     1      46.346 -12.347   8.382  1.00  0.00     0.037 C 
BRANCH  14  16
HETATM   16  C   UNL     1      44.142 -11.885   9.597  1.00  0.00    -0.036 A 
HETATM   17  C   UNL     1      43.336 -10.737   9.649  1.00  0.00     0.010 A 
HETATM   18  C   UNL     1      42.777 -10.310  10.857  1.00  0.00     0.019 A 
HETATM   19  C   UNL     1      43.030 -11.023  12.027  1.00  0.00     0.011 A 
HETATM   20 BR   UNL     1      42.283 -10.439  13.662  1.00  0.00    -0.051 Br
HETATM   21  C   UNL     1      43.838 -12.155  12.002  1.00  0.00     0.019 A 
HETATM   22  C   UNL     1      44.395 -12.580  10.792  1.00  0.00     0.010 A 
ENDBRANCH  14  16
ENDBRANCH   2  14
TORSDOF 5
ENDMDL
