MODEL 1
REMARK VINA RESULT:      -8.3      0.000      0.000
REMARK  6 active torsions:
REMARK  status: ('A' for Active; 'I' for Inactive)
REMARK    1  A    between atoms: C_2  and  N_3 
REMARK    2  A    between atoms: C_2  and  C_24 
REMARK       I    between atoms: N_3  and  C_4 
REMARK    3  A    between atoms: C_4  and  C_5 
REMARK    4  A    between atoms: C_5  and  N_6 
REMARK    5  A    between atoms: C_10  and  N_11 
REMARK       I    between atoms: N_11  and  C_12 
REMARK       I    between atoms: C_12  and  N_13 
REMARK    6  A    between atoms: N_13  and  C_14 
ROOT
HETATM    1  N   UNL     1      43.422 -15.691   6.031  1.00  0.00    -0.063 N 
HETATM    2  H   UNL     1      43.756 -15.792   5.058  1.00  0.00     0.280 HD
HETATM    3  C   UNL     1      42.320 -14.660   6.007  1.00  0.00     0.237 C 
HETATM    4  C   UNL     1      42.851 -13.242   5.911  1.00  0.00     0.053 C 
HETATM    5  C   UNL     1      44.007 -12.918   6.856  1.00  0.00     0.089 C 
HETATM    6  C   UNL     1      45.094 -13.985   6.777  1.00  0.00     0.053 C 
HETATM    7  C   UNL     1      44.584 -15.401   6.936  1.00  0.00     0.237 C 
ENDROOT
BRANCH   1   8
HETATM    8  C   UNL     1      42.836 -17.079   6.384  1.00  0.00     0.337 C 
BRANCH   8   9
HETATM    9  C   UNL     1      41.867 -17.559   5.308  1.00  0.00     0.244 C 
HETATM   10  N   UNL     1      42.288 -18.096   4.137  1.00  0.00    -0.351 N 
HETATM   11  H   UNL     1      41.507 -18.300   3.521  1.00  0.00     0.163 HD
HETATM   12  O   UNL     1      40.654 -17.477   5.530  1.00  0.00    -0.272 OA
BRANCH  10  13
HETATM   13  C   UNL     1      43.600 -18.226   3.496  1.00  0.00     0.120 C 
HETATM   14  C   UNL     1      43.914 -17.227   2.387  1.00  0.00     0.038 C 
BRANCH  13  15
HETATM   15  C   UNL     1      43.884 -19.648   3.081  1.00  0.00     0.005 A 
HETATM   16  S   UNL     1      44.725 -20.761   4.080  1.00  0.00    -0.104 SA
HETATM   17  C   UNL     1      44.574 -22.021   2.938  1.00  0.00     0.050 A 
HETATM   18  C   UNL     1      43.882 -21.620   1.819  1.00  0.00     0.008 A 
HETATM   19  C   UNL     1      43.486 -20.254   1.901  1.00  0.00     0.017 A 
ENDBRANCH  13  15
ENDBRANCH  10  13
ENDBRANCH   8   9
ENDBRANCH   1   8
BRANCH   5  20
HETATM   20  N   UNL     1      43.615 -12.554   8.217  1.00  0.00    -0.338 N 
HETATM   21  C   UNL     1      42.989 -11.409   8.619  1.00  0.00     0.316 C 
HETATM   22  N   UNL     1      42.713 -11.413   9.957  1.00  0.00    -0.339 N 
HETATM   23  O   UNL     1      42.692 -10.492   7.865  1.00  0.00    -0.247 OA
HETATM   24  H   UNL     1      43.292 -12.005  10.536  1.00  0.00     0.164 HD
HETATM   25  H   UNL     1      43.565 -13.315   8.884  1.00  0.00     0.164 HD
BRANCH  22  26
HETATM   26  C   UNL     1      42.122 -10.243  10.608  1.00  0.00     0.086 C 
HETATM   27  C   UNL     1      40.964 -10.654  11.524  1.00  0.00     0.025 C 
HETATM   28  C   UNL     1      41.431 -11.344  12.805  1.00  0.00     0.002 C 
HETATM   29  C   UNL     1      42.473 -10.512  13.546  1.00  0.00     0.000 C 
HETATM   30  C   UNL     1      43.648 -10.145  12.647  1.00  0.00     0.002 C 
HETATM   31  C   UNL     1      43.183  -9.439  11.373  1.00  0.00     0.025 C 
ENDBRANCH  22  26
ENDBRANCH   5  20
TORSDOF 6
ENDMDL
MODEL 2
REMARK VINA RESULT:      -8.3      1.788      2.043
REMARK  6 active torsions:
REMARK  status: ('A' for Active; 'I' for Inactive)
REMARK    1  A    between atoms: C_2  and  N_3 
REMARK    2  A    between atoms: C_2  and  C_24 
REMARK       I    between atoms: N_3  and  C_4 
REMARK    3  A    between atoms: C_4  and  C_5 
REMARK    4  A    between atoms: C_5  and  N_6 
REMARK    5  A    between atoms: C_10  and  N_11 
REMARK       I    between atoms: N_11  and  C_12 
REMARK       I    between atoms: C_12  and  N_13 
REMARK    6  A    between atoms: N_13  and  C_14 
ROOT
HETATM    1  N   UNL     1      41.225 -14.842   4.313  1.00  0.00    -0.063 N 
HETATM    2  H   UNL     1      40.769 -14.721   3.393  1.00  0.00     0.280 HD
HETATM    3  C   UNL     1      40.170 -14.569   5.358  1.00  0.00     0.237 C 
HETATM    4  C   UNL     1      39.904 -13.087   5.544  1.00  0.00     0.053 C 
HETATM    5  C   UNL     1      41.153 -12.214   5.655  1.00  0.00     0.089 C 
HETATM    6  C   UNL     1      42.138 -12.522   4.532  1.00  0.00     0.053 C 
HETATM    7  C   UNL     1      42.461 -13.993   4.378  1.00  0.00     0.237 C 
ENDROOT
BRANCH   1   8
HETATM    8  C   UNL     1      41.629 -16.334   4.352  1.00  0.00     0.337 C 
BRANCH   8   9
HETATM    9  C   UNL     1      41.247 -17.044   3.057  1.00  0.00     0.244 C 
HETATM   10  N   UNL     1      42.121 -17.813   2.362  1.00  0.00    -0.351 N 
HETATM   11  H   UNL     1      41.709 -18.152   1.498  1.00  0.00     0.163 HD
HETATM   12  O   UNL     1      40.086 -16.931   2.645  1.00  0.00    -0.272 OA
BRANCH  10  13
HETATM   13  C   UNL     1      43.561 -18.061   2.472  1.00  0.00     0.120 C 
HETATM   14  C   UNL     1      44.447 -17.381   1.431  1.00  0.00     0.038 C 
BRANCH  13  15
HETATM   15  C   UNL     1      43.869 -19.530   2.613  1.00  0.00     0.005 A 
HETATM   16  S   UNL     1      44.629 -20.195   4.000  1.00  0.00    -0.104 SA
HETATM   17  C   UNL     1      44.559 -21.782   3.375  1.00  0.00     0.050 A 
HETATM   18  C   UNL     1      43.954 -21.821   2.141  1.00  0.00     0.008 A 
HETATM   19  C   UNL     1      43.557 -20.525   1.702  1.00  0.00     0.017 A 
ENDBRANCH  13  15
ENDBRANCH  10  13
ENDBRANCH   8   9
ENDBRANCH   1   8
BRANCH   5  20
HETATM   20  N   UNL     1      41.755 -12.154   6.987  1.00  0.00    -0.338 N 
HETATM   21  C   UNL     1      42.112 -11.035   7.684  1.00  0.00     0.316 C 
HETATM   22  N   UNL     1      42.592 -11.331   8.928  1.00  0.00    -0.339 N 
HETATM   23  O   UNL     1      41.997  -9.896   7.252  1.00  0.00    -0.247 OA
HETATM   24  H   UNL     1      42.982 -12.255   9.053  1.00  0.00     0.164 HD
HETATM   25  H   UNL     1      41.665 -12.989   7.554  1.00  0.00     0.164 HD
BRANCH  22  26
HETATM   26  C   UNL     1      43.112 -10.282   9.805  1.00  0.00     0.086 C 
HETATM   27  C   UNL     1      42.034  -9.801  10.782  1.00  0.00     0.025 C 
HETATM   28  C   UNL     1      41.735 -10.813  11.887  1.00  0.00     0.002 C 
HETATM   29  C   UNL     1      43.005 -11.247  12.612  1.00  0.00     0.000 C 
HETATM   30  C   UNL     1      44.059 -11.770  11.643  1.00  0.00     0.002 C 
HETATM   31  C   UNL     1      44.371 -10.751  10.547  1.00  0.00     0.025 C 
ENDBRANCH  22  26
ENDBRANCH   5  20
TORSDOF 6
ENDMDL
MODEL 3
REMARK VINA RESULT:      -7.9      1.768      2.143
REMARK  6 active torsions:
REMARK  status: ('A' for Active; 'I' for Inactive)
REMARK    1  A    between atoms: C_2  and  N_3 
REMARK    2  A    between atoms: C_2  and  C_24 
REMARK       I    between atoms: N_3  and  C_4 
REMARK    3  A    between atoms: C_4  and  C_5 
REMARK    4  A    between atoms: C_5  and  N_6 
REMARK    5  A    between atoms: C_10  and  N_11 
REMARK       I    between atoms: N_11  and  C_12 
REMARK       I    between atoms: C_12  and  N_13 
REMARK    6  A    between atoms: N_13  and  C_14 
ROOT
HETATM    1  N   UNL     1      41.657 -14.657   4.803  1.00  0.00    -0.063 N 
HETATM    2  H   UNL     1      41.375 -14.643   3.809  1.00  0.00     0.280 HD
HETATM    3  C   UNL     1      40.385 -14.604   5.616  1.00  0.00     0.237 C 
HETATM    4  C   UNL     1      39.790 -13.210   5.675  1.00  0.00     0.053 C 
HETATM    5  C   UNL     1      40.787 -12.093   5.977  1.00  0.00     0.089 C 
HETATM    6  C   UNL     1      42.014 -12.195   5.078  1.00  0.00     0.053 C 
HETATM    7  C   UNL     1      42.656 -13.566   5.060  1.00  0.00     0.237 C 
ENDROOT
BRANCH   1   8
HETATM    8  C   UNL     1      42.344 -16.030   4.992  1.00  0.00     0.337 C 
BRANCH   8   9
HETATM    9  C   UNL     1      43.139 -16.425   3.751  1.00  0.00     0.244 C 
HETATM   10  N   UNL     1      43.743 -17.631   3.627  1.00  0.00    -0.351 N 
HETATM   11  H   UNL     1      44.276 -17.692   2.764  1.00  0.00     0.163 HD
HETATM   12  O   UNL     1      43.209 -15.619   2.816  1.00  0.00    -0.272 OA
BRANCH  10  13
HETATM   13  C   UNL     1      43.978 -18.747   4.549  1.00  0.00     0.120 C 
HETATM   14  C   UNL     1      45.028 -18.522   5.632  1.00  0.00     0.038 C 
BRANCH  13  15
HETATM   15  C   UNL     1      44.184 -20.048   3.815  1.00  0.00     0.005 A 
HETATM   16  S   UNL     1      44.755 -21.472   4.583  1.00  0.00    -0.104 SA
HETATM   17  C   UNL     1      44.658 -22.383   3.143  1.00  0.00     0.050 A 
HETATM   18  C   UNL     1      44.183 -21.633   2.093  1.00  0.00     0.008 A 
HETATM   19  C   UNL     1      43.911 -20.289   2.479  1.00  0.00     0.017 A 
ENDBRANCH  13  15
ENDBRANCH  10  13
ENDBRANCH   8   9
ENDBRANCH   1   8
BRANCH   5  20
HETATM   20  N   UNL     1      41.091 -11.896   7.394  1.00  0.00    -0.338 N 
HETATM   21  C   UNL     1      41.658 -10.796   7.973  1.00  0.00     0.316 C 
HETATM   22  N   UNL     1      41.748 -10.916   9.331  1.00  0.00    -0.339 N 
HETATM   23  O   UNL     1      42.025  -9.809   7.351  1.00  0.00    -0.247 OA
HETATM   24  H   UNL     1      41.768 -11.856   9.702  1.00  0.00     0.164 HD
HETATM   25  H   UNL     1      40.612 -12.509   8.042  1.00  0.00     0.164 HD
BRANCH  22  26
HETATM   26  C   UNL     1      42.404  -9.886  10.137  1.00  0.00     0.086 C 
HETATM   27  C   UNL     1      41.538  -9.498  11.341  1.00  0.00     0.025 C 
HETATM   28  C   UNL     1      41.512 -10.572  12.427  1.00  0.00     0.002 C 
HETATM   29  C   UNL     1      42.919 -10.983  12.850  1.00  0.00     0.000 C 
HETATM   30  C   UNL     1      43.765 -11.414  11.656  1.00  0.00     0.002 C 
HETATM   31  C   UNL     1      43.806 -10.333  10.576  1.00  0.00     0.025 C 
ENDBRANCH  22  26
ENDBRANCH   5  20
TORSDOF 6
ENDMDL
MODEL 4
REMARK VINA RESULT:      -7.9      4.122      8.663
REMARK  6 active torsions:
REMARK  status: ('A' for Active; 'I' for Inactive)
REMARK    1  A    between atoms: C_2  and  N_3 
REMARK    2  A    between atoms: C_2  and  C_24 
REMARK       I    between atoms: N_3  and  C_4 
REMARK    3  A    between atoms: C_4  and  C_5 
REMARK    4  A    between atoms: C_5  and  N_6 
REMARK    5  A    between atoms: C_10  and  N_11 
REMARK       I    between atoms: N_11  and  C_12 
REMARK       I    between atoms: C_12  and  N_13 
REMARK    6  A    between atoms: N_13  and  C_14 
ROOT
HETATM    1  N   UNL     1      42.738 -10.649  12.606  1.00  0.00    -0.063 N 
HETATM    2  H   UNL     1      43.327 -10.280  13.371  1.00  0.00     0.280 HD
HETATM    3  C   UNL     1      43.026 -12.128  12.512  1.00  0.00     0.237 C 
HETATM    4  C   UNL     1      44.338 -12.422  11.811  1.00  0.00     0.053 C 
HETATM    5  C   UNL     1      44.570 -11.644  10.517  1.00  0.00     0.089 C 
HETATM    6  C   UNL     1      44.304 -10.156  10.717  1.00  0.00     0.053 C 
HETATM    7  C   UNL     1      42.968  -9.846  11.359  1.00  0.00     0.237 C 
ENDROOT
BRANCH   1   8
HETATM    8  C   UNL     1      41.286 -10.426  13.093  1.00  0.00     0.337 C 
BRANCH   8   9
HETATM    9  C   UNL     1      40.338 -11.461  12.495  1.00  0.00     0.244 C 
HETATM   10  N   UNL     1      39.772 -11.308  11.273  1.00  0.00    -0.351 N 
HETATM   11  H   UNL     1      39.124 -12.064  11.069  1.00  0.00     0.163 HD
HETATM   12  O   UNL     1      40.102 -12.486  13.144  1.00  0.00    -0.272 OA
BRANCH  10  13
HETATM   13  C   UNL     1      39.718 -10.204  10.312  1.00  0.00     0.120 C 
HETATM   14  C   UNL     1      38.491  -9.300  10.385  1.00  0.00     0.038 C 
BRANCH  13  15
HETATM   15  C   UNL     1      40.002 -10.668   8.905  1.00  0.00     0.005 A 
HETATM   16  S   UNL     1      41.308 -10.066   7.970  1.00  0.00    -0.104 SA
HETATM   17  C   UNL     1      40.930 -11.077   6.647  1.00  0.00     0.050 A 
HETATM   18  C   UNL     1      39.842 -11.877   6.908  1.00  0.00     0.008 A 
HETATM   19  C   UNL     1      39.307 -11.641   8.207  1.00  0.00     0.017 A 
ENDBRANCH  13  15
ENDBRANCH  10  13
ENDBRANCH   8   9
ENDBRANCH   1   8
BRANCH   5  20
HETATM   20  N   UNL     1      43.940 -12.215   9.326  1.00  0.00    -0.338 N 
HETATM   21  C   UNL     1      44.545 -12.938   8.337  1.00  0.00     0.316 C 
HETATM   22  N   UNL     1      43.655 -13.374   7.398  1.00  0.00    -0.339 N 
HETATM   23  O   UNL     1      45.743 -13.184   8.306  1.00  0.00    -0.247 OA
HETATM   24  H   UNL     1      42.800 -12.843   7.304  1.00  0.00     0.164 HD
HETATM   25  H   UNL     1      42.933 -12.311   9.358  1.00  0.00     0.164 HD
BRANCH  22  26
HETATM   26  C   UNL     1      44.107 -14.093   6.207  1.00  0.00     0.086 C 
HETATM   27  C   UNL     1      44.142 -15.605   6.460  1.00  0.00     0.025 C 
HETATM   28  C   UNL     1      42.750 -16.232   6.518  1.00  0.00     0.002 C 
HETATM   29  C   UNL     1      41.921 -15.883   5.286  1.00  0.00     0.000 C 
HETATM   30  C   UNL     1      41.848 -14.376   5.063  1.00  0.00     0.002 C 
HETATM   31  C   UNL     1      43.240 -13.750   4.987  1.00  0.00     0.025 C 
ENDBRANCH  22  26
ENDBRANCH   5  20
TORSDOF 6
ENDMDL
MODEL 5
REMARK VINA RESULT:      -7.8      2.277      2.727
REMARK  6 active torsions:
REMARK  status: ('A' for Active; 'I' for Inactive)
REMARK    1  A    between atoms: C_2  and  N_3 
REMARK    2  A    between atoms: C_2  and  C_24 
REMARK       I    between atoms: N_3  and  C_4 
REMARK    3  A    between atoms: C_4  and  C_5 
REMARK    4  A    between atoms: C_5  and  N_6 
REMARK    5  A    between atoms: C_10  and  N_11 
REMARK       I    between atoms: N_11  and  C_12 
REMARK       I    between atoms: C_12  and  N_13 
REMARK    6  A    between atoms: N_13  and  C_14 
ROOT
HETATM    1  N   UNL     1      41.118 -13.708   4.741  1.00  0.00    -0.063 N 
HETATM    2  H   UNL     1      40.569 -13.629   3.869  1.00  0.00     0.280 HD
HETATM    3  C   UNL     1      40.130 -13.972   5.852  1.00  0.00     0.237 C 
HETATM    4  C   UNL     1      39.391 -12.720   6.283  1.00  0.00     0.053 C 
HETATM    5  C   UNL     1      40.270 -11.488   6.491  1.00  0.00     0.089 C 
HETATM    6  C   UNL     1      41.197 -11.270   5.301  1.00  0.00     0.053 C 
HETATM    7  C   UNL     1      41.989 -12.496   4.900  1.00  0.00     0.237 C 
ENDROOT
BRANCH   1   8
HETATM    8  C   UNL     1      42.011 -14.952   4.524  1.00  0.00     0.337 C 
BRANCH   8   9
HETATM    9  C   UNL     1      41.439 -15.861   3.441  1.00  0.00     0.244 C 
HETATM   10  N   UNL     1      42.186 -16.796   2.806  1.00  0.00    -0.351 N 
HETATM   11  H   UNL     1      41.655 -17.261   2.075  1.00  0.00     0.163 HD
HETATM   12  O   UNL     1      40.241 -15.753   3.155  1.00  0.00    -0.272 OA
BRANCH  10  13
HETATM   13  C   UNL     1      43.618 -17.109   2.789  1.00  0.00     0.120 C 
HETATM   14  C   UNL     1      44.259 -17.279   1.415  1.00  0.00     0.038 C 
BRANCH  13  15
HETATM   15  C   UNL     1      43.957 -18.244   3.722  1.00  0.00     0.005 A 
HETATM   16  S   UNL     1      43.922 -18.090   5.430  1.00  0.00    -0.104 SA
HETATM   17  C   UNL     1      44.365 -19.721   5.665  1.00  0.00     0.050 A 
HETATM   18  C   UNL     1      44.522 -20.387   4.473  1.00  0.00     0.008 A 
HETATM   19  C   UNL     1      44.288 -19.538   3.354  1.00  0.00     0.017 A 
ENDBRANCH  13  15
ENDBRANCH  10  13
ENDBRANCH   8   9
ENDBRANCH   1   8
BRANCH   5  20
HETATM   20  N   UNL     1      40.930 -11.407   7.794  1.00  0.00    -0.338 N 
HETATM   21  C   UNL     1      40.406 -10.917   8.957  1.00  0.00     0.316 C 
HETATM   22  N   UNL     1      41.271 -11.044  10.007  1.00  0.00    -0.339 N 
HETATM   23  O   UNL     1      39.284 -10.440   9.053  1.00  0.00    -0.247 OA
HETATM   24  H   UNL     1      42.253 -11.099   9.778  1.00  0.00     0.164 HD
HETATM   25  H   UNL     1      41.746 -11.993   7.917  1.00  0.00     0.164 HD
BRANCH  22  26
HETATM   26  C   UNL     1      40.939 -10.504  11.326  1.00  0.00     0.086 C 
HETATM   27  C   UNL     1      41.453 -11.424  12.439  1.00  0.00     0.025 C 
HETATM   28  C   UNL     1      42.971 -11.366  12.608  1.00  0.00     0.002 C 
HETATM   29  C   UNL     1      43.465  -9.933  12.783  1.00  0.00     0.000 C 
HETATM   30  C   UNL     1      42.993  -9.030  11.649  1.00  0.00     0.002 C 
HETATM   31  C   UNL     1      41.473  -9.074  11.490  1.00  0.00     0.025 C 
ENDBRANCH  22  26
ENDBRANCH   5  20
TORSDOF 6
ENDMDL
MODEL 6
REMARK VINA RESULT:      -7.7      2.141      2.946
REMARK  6 active torsions:
REMARK  status: ('A' for Active; 'I' for Inactive)
REMARK    1  A    between atoms: C_2  and  N_3 
REMARK    2  A    between atoms: C_2  and  C_24 
REMARK       I    between atoms: N_3  and  C_4 
REMARK    3  A    between atoms: C_4  and  C_5 
REMARK    4  A    between atoms: C_5  and  N_6 
REMARK    5  A    between atoms: C_10  and  N_11 
REMARK       I    between atoms: N_11  and  C_12 
REMARK       I    between atoms: C_12  and  N_13 
REMARK    6  A    between atoms: N_13  and  C_14 
ROOT
HETATM    1  N   UNL     1      41.408 -13.332   4.453  1.00  0.00    -0.063 N 
HETATM    2  H   UNL     1      40.779 -13.395   3.636  1.00  0.00     0.280 HD
HETATM    3  C   UNL     1      40.727 -14.068   5.582  1.00  0.00     0.237 C 
HETATM    4  C   UNL     1      39.615 -13.256   6.219  1.00  0.00     0.053 C 
HETATM    5  C   UNL     1      39.969 -11.803   6.527  1.00  0.00     0.089 C 
HETATM    6  C   UNL     1      40.604 -11.125   5.318  1.00  0.00     0.053 C 
HETATM    7  C   UNL     1      41.758 -11.895   4.711  1.00  0.00     0.237 C 
ENDROOT
BRANCH   1   8
HETATM    8  C   UNL     1      42.682 -14.096   4.020  1.00  0.00     0.337 C 
BRANCH   8   9
HETATM    9  C   UNL     1      43.296 -14.854   5.193  1.00  0.00     0.244 C 
HETATM   10  N   UNL     1      43.244 -16.204   5.294  1.00  0.00    -0.351 N 
HETATM   11  H   UNL     1      43.649 -16.525   6.169  1.00  0.00     0.163 HD
HETATM   12  O   UNL     1      43.884 -14.208   6.068  1.00  0.00    -0.272 OA
BRANCH  10  13
HETATM   13  C   UNL     1      42.543 -17.251   4.544  1.00  0.00     0.120 C 
HETATM   14  C   UNL     1      41.190 -17.688   5.096  1.00  0.00     0.038 C 
BRANCH  13  15
HETATM   15  C   UNL     1      43.443 -18.422   4.240  1.00  0.00     0.005 A 
HETATM   16  S   UNL     1      44.488 -19.123   5.406  1.00  0.00    -0.104 SA
HETATM   17  C   UNL     1      45.049 -20.304   4.309  1.00  0.00     0.050 A 
HETATM   18  C   UNL     1      44.445 -20.190   3.079  1.00  0.00     0.008 A 
HETATM   19  C   UNL     1      43.521 -19.106   3.039  1.00  0.00     0.017 A 
ENDBRANCH  13  15
ENDBRANCH  10  13
ENDBRANCH   8   9
ENDBRANCH   1   8
BRANCH   5  20
HETATM   20  N   UNL     1      40.686 -11.590   7.785  1.00  0.00    -0.338 N 
HETATM   21  C   UNL     1      40.200 -11.020   8.927  1.00  0.00     0.316 C 
HETATM   22  N   UNL     1      41.117 -11.029   9.940  1.00  0.00    -0.339 N 
HETATM   23  O   UNL     1      39.068 -10.571   9.038  1.00  0.00    -0.247 OA
HETATM   24  H   UNL     1      42.089 -11.073   9.668  1.00  0.00     0.164 HD
HETATM   25  H   UNL     1      41.528 -12.137   7.916  1.00  0.00     0.164 HD
BRANCH  22  26
HETATM   26  C   UNL     1      40.829 -10.389  11.224  1.00  0.00     0.086 C 
HETATM   27  C   UNL     1      41.184 -11.318  12.390  1.00  0.00     0.025 C 
HETATM   28  C   UNL     1      42.690 -11.458  12.604  1.00  0.00     0.002 C 
HETATM   29  C   UNL     1      43.371 -10.099  12.734  1.00  0.00     0.000 C 
HETATM   30  C   UNL     1      43.055  -9.193  11.549  1.00  0.00     0.002 C 
HETATM   31  C   UNL     1      41.548  -9.038  11.344  1.00  0.00     0.025 C 
ENDBRANCH  22  26
ENDBRANCH   5  20
TORSDOF 6
ENDMDL
MODEL 7
REMARK VINA RESULT:      -7.4      4.568      8.627
REMARK  6 active torsions:
REMARK  status: ('A' for Active; 'I' for Inactive)
REMARK    1  A    between atoms: C_2  and  N_3 
REMARK    2  A    between atoms: C_2  and  C_24 
REMARK       I    between atoms: N_3  and  C_4 
REMARK    3  A    between atoms: C_4  and  C_5 
REMARK    4  A    between atoms: C_5  and  N_6 
REMARK    5  A    between atoms: C_10  and  N_11 
REMARK       I    between atoms: N_11  and  C_12 
REMARK       I    between atoms: C_12  and  N_13 
REMARK    6  A    between atoms: N_13  and  C_14 
ROOT
HETATM    1  N   UNL     1      41.943 -14.284   5.911  1.00  0.00    -0.063 N 
HETATM    2  H   UNL     1      41.699 -13.692   6.722  1.00  0.00     0.280 HD
HETATM    3  C   UNL     1      40.817 -15.276   5.744  1.00  0.00     0.237 C 
HETATM    4  C   UNL     1      40.886 -16.409   6.751  1.00  0.00     0.053 C 
HETATM    5  C   UNL     1      42.268 -17.036   6.928  1.00  0.00     0.089 C 
HETATM    6  C   UNL     1      43.332 -15.965   7.140  1.00  0.00     0.053 C 
HETATM    7  C   UNL     1      43.315 -14.862   6.104  1.00  0.00     0.237 C 
ENDROOT
BRANCH   1   8
HETATM    8  C   UNL     1      41.966 -13.309   4.711  1.00  0.00     0.337 C 
BRANCH   8   9
HETATM    9  C   UNL     1      42.822 -13.853   3.572  1.00  0.00     0.244 C 
HETATM   10  N   UNL     1      42.323 -14.669   2.612  1.00  0.00    -0.351 N 
HETATM   11  H   UNL     1      43.051 -14.980   1.975  1.00  0.00     0.163 HD
HETATM   12  O   UNL     1      44.010 -13.515   3.515  1.00  0.00    -0.272 OA
BRANCH  10  13
HETATM   13  C   UNL     1      41.044 -15.362   2.435  1.00  0.00     0.120 C 
HETATM   14  C   UNL     1      41.098 -16.886   2.402  1.00  0.00     0.038 C 
BRANCH  13  15
HETATM   15  C   UNL     1      40.250 -14.793   1.286  1.00  0.00     0.005 A 
HETATM   16  S   UNL     1      40.902 -14.592  -0.288  1.00  0.00    -0.104 SA
HETATM   17  C   UNL     1      39.432 -13.979  -0.904  1.00  0.00     0.050 A 
HETATM   18  C   UNL     1      38.450 -13.940   0.057  1.00  0.00     0.008 A 
HETATM   19  C   UNL     1      38.920 -14.408   1.318  1.00  0.00     0.017 A 
ENDBRANCH  13  15
ENDBRANCH  10  13
ENDBRANCH   8   9
ENDBRANCH   1   8
BRANCH   5  20
HETATM   20  N   UNL     1      42.622 -18.052   5.937  1.00  0.00    -0.338 N 
HETATM   21  C   UNL     1      43.868 -18.537   5.659  1.00  0.00     0.316 C 
HETATM   22  N   UNL     1      43.840 -19.526   4.717  1.00  0.00    -0.339 N 
HETATM   23  O   UNL     1      44.891 -18.146   6.206  1.00  0.00    -0.247 OA
HETATM   24  H   UNL     1      43.051 -19.525   4.085  1.00  0.00     0.164 HD
HETATM   25  H   UNL     1      41.863 -18.635   5.606  1.00  0.00     0.164 HD
BRANCH  22  26
HETATM   26  C   UNL     1      45.077 -20.121   4.212  1.00  0.00     0.086 C 
HETATM   27  C   UNL     1      45.310 -21.505   4.829  1.00  0.00     0.025 C 
HETATM   28  C   UNL     1      44.369 -22.573   4.274  1.00  0.00     0.002 C 
HETATM   29  C   UNL     1      44.404 -22.618   2.749  1.00  0.00     0.000 C 
HETATM   30  C   UNL     1      44.124 -21.250   2.136  1.00  0.00     0.002 C 
HETATM   31  C   UNL     1      45.077 -20.185   2.678  1.00  0.00     0.025 C 
ENDBRANCH  22  26
ENDBRANCH   5  20
TORSDOF 6
ENDMDL
MODEL 8
REMARK VINA RESULT:      -7.3      5.083      8.691
REMARK  6 active torsions:
REMARK  status: ('A' for Active; 'I' for Inactive)
REMARK    1  A    between atoms: C_2  and  N_3 
REMARK    2  A    between atoms: C_2  and  C_24 
REMARK       I    between atoms: N_3  and  C_4 
REMARK    3  A    between atoms: C_4  and  C_5 
REMARK    4  A    between atoms: C_5  and  N_6 
REMARK    5  A    between atoms: C_10  and  N_11 
REMARK       I    between atoms: N_11  and  C_12 
REMARK       I    between atoms: C_12  and  N_13 
REMARK    6  A    between atoms: N_13  and  C_14 
ROOT
HETATM    1  N   UNL     1      42.156 -16.871   3.723  1.00  0.00    -0.063 N 
HETATM    2  H   UNL     1      42.058 -17.853   4.028  1.00  0.00     0.280 HD
HETATM    3  C   UNL     1      40.869 -16.504   3.023  1.00  0.00     0.237 C 
HETATM    4  C   UNL     1      40.791 -17.064   1.616  1.00  0.00     0.053 C 
HETATM    5  C   UNL     1      42.052 -16.874   0.773  1.00  0.00     0.089 C 
HETATM    6  C   UNL     1      43.294 -17.316   1.539  1.00  0.00     0.053 C 
HETATM    7  C   UNL     1      43.416 -16.714   2.922  1.00  0.00     0.237 C 
ENDROOT
BRANCH   1   8
HETATM    8  C   UNL     1      42.286 -16.068   5.039  1.00  0.00     0.337 C 
BRANCH   8   9
HETATM    9  C   UNL     1      41.632 -16.806   6.203  1.00  0.00     0.244 C 
HETATM   10  N   UNL     1      42.348 -17.508   7.114  1.00  0.00    -0.351 N 
HETATM   11  H   UNL     1      41.741 -17.981   7.777  1.00  0.00     0.163 HD
HETATM   12  O   UNL     1      40.404 -16.737   6.328  1.00  0.00    -0.272 OA
BRANCH  10  13
HETATM   13  C   UNL     1      43.756 -17.906   7.208  1.00  0.00     0.120 C 
HETATM   14  C   UNL     1      44.785 -16.864   6.783  1.00  0.00     0.038 C 
BRANCH  13  15
HETATM   15  C   UNL     1      44.004 -19.249   6.568  1.00  0.00     0.005 A 
HETATM   16  S   UNL     1      44.771 -19.428   5.044  1.00  0.00    -0.104 SA
HETATM   17  C   UNL     1      44.677 -21.131   5.108  1.00  0.00     0.050 A 
HETATM   18  C   UNL     1      44.091 -21.569   6.272  1.00  0.00     0.008 A 
HETATM   19  C   UNL     1      43.702 -20.486   7.112  1.00  0.00     0.017 A 
ENDBRANCH  13  15
ENDBRANCH  10  13
ENDBRANCH   8   9
ENDBRANCH   1   8
BRANCH   5  20
HETATM   20  N   UNL     1      42.175 -15.570   0.122  1.00  0.00    -0.338 N 
HETATM   21  C   UNL     1      41.599 -15.174  -1.052  1.00  0.00     0.316 C 
HETATM   22  N   UNL     1      41.871 -13.868  -1.345  1.00  0.00    -0.339 N 
HETATM   23  O   UNL     1      40.903 -15.898  -1.749  1.00  0.00    -0.247 OA
HETATM   24  H   UNL     1      42.709 -13.478  -0.937  1.00  0.00     0.164 HD
HETATM   25  H   UNL     1      42.499 -14.809   0.707  1.00  0.00     0.164 HD
BRANCH  22  26
HETATM   26  C   UNL     1      41.421 -13.269  -2.602  1.00  0.00     0.086 C 
HETATM   27  C   UNL     1      40.153 -12.434  -2.388  1.00  0.00     0.025 C 
HETATM   28  C   UNL     1      40.421 -11.119  -1.659  1.00  0.00     0.002 C 
HETATM   29  C   UNL     1      41.524 -10.311  -2.338  1.00  0.00     0.000 C 
HETATM   30  C   UNL     1      42.800 -11.128  -2.507  1.00  0.00     0.002 C 
HETATM   31  C   UNL     1      42.536 -12.437  -3.251  1.00  0.00     0.025 C 
ENDBRANCH  22  26
ENDBRANCH   5  20
TORSDOF 6
ENDMDL
MODEL 9
REMARK VINA RESULT:      -7.3      5.064      8.773
REMARK  6 active torsions:
REMARK  status: ('A' for Active; 'I' for Inactive)
REMARK    1  A    between atoms: C_2  and  N_3 
REMARK    2  A    between atoms: C_2  and  C_24 
REMARK       I    between atoms: N_3  and  C_4 
REMARK    3  A    between atoms: C_4  and  C_5 
REMARK    4  A    between atoms: C_5  and  N_6 
REMARK    5  A    between atoms: C_10  and  N_11 
REMARK       I    between atoms: N_11  and  C_12 
REMARK       I    between atoms: C_12  and  N_13 
REMARK    6  A    between atoms: N_13  and  C_14 
ROOT
HETATM    1  N   UNL     1      42.269 -14.596   4.508  1.00  0.00    -0.063 N 
HETATM    2  H   UNL     1      42.242 -14.004   5.354  1.00  0.00     0.280 HD
HETATM    3  C   UNL     1      42.899 -13.762   3.417  1.00  0.00     0.237 C 
HETATM    4  C   UNL     1      41.936 -12.748   2.830  1.00  0.00     0.053 C 
HETATM    5  C   UNL     1      40.548 -13.292   2.496  1.00  0.00     0.089 C 
HETATM    6  C   UNL     1      39.969 -14.075   3.669  1.00  0.00     0.053 C 
HETATM    7  C   UNL     1      40.898 -15.135   4.224  1.00  0.00     0.237 C 
ENDROOT
BRANCH   1   8
HETATM    8  C   UNL     1      43.208 -15.766   4.883  1.00  0.00     0.337 C 
BRANCH   8   9
HETATM    9  C   UNL     1      42.418 -17.040   5.165  1.00  0.00     0.244 C 
HETATM   10  N   UNL     1      42.411 -18.096   4.315  1.00  0.00    -0.351 N 
HETATM   11  H   UNL     1      41.782 -18.826   4.637  1.00  0.00     0.163 HD
HETATM   12  O   UNL     1      41.782 -17.116   6.222  1.00  0.00    -0.272 OA
BRANCH  10  13
HETATM   13  C   UNL     1      42.921 -18.307   2.957  1.00  0.00     0.120 C 
HETATM   14  C   UNL     1      41.983 -17.930   1.815  1.00  0.00     0.038 C 
BRANCH  13  15
HETATM   15  C   UNL     1      43.506 -19.686   2.785  1.00  0.00     0.005 A 
HETATM   16  S   UNL     1      44.614 -20.375   3.898  1.00  0.00    -0.104 SA
HETATM   17  C   UNL     1      44.713 -21.834   3.018  1.00  0.00     0.050 A 
HETATM   18  C   UNL     1      43.907 -21.817   1.904  1.00  0.00     0.008 A 
HETATM   19  C   UNL     1      43.213 -20.581   1.769  1.00  0.00     0.017 A 
ENDBRANCH  13  15
ENDBRANCH  10  13
ENDBRANCH   8   9
ENDBRANCH   1   8
BRANCH   5  20
HETATM   20  N   UNL     1      40.439 -13.970   1.204  1.00  0.00    -0.338 N 
HETATM   21  C   UNL     1      40.479 -13.398  -0.036  1.00  0.00     0.316 C 
HETATM   22  N   UNL     1      40.409 -14.326  -1.036  1.00  0.00    -0.339 N 
HETATM   23  O   UNL     1      40.586 -12.195  -0.230  1.00  0.00    -0.247 OA
HETATM   24  H   UNL     1      39.970 -15.207  -0.805  1.00  0.00     0.164 HD
HETATM   25  H   UNL     1      40.606 -14.968   1.210  1.00  0.00     0.164 HD
BRANCH  22  26
HETATM   26  C   UNL     1      40.349 -13.919  -2.440  1.00  0.00     0.086 C 
HETATM   27  C   UNL     1      40.914 -15.014  -3.352  1.00  0.00     0.025 C 
HETATM   28  C   UNL     1      39.984 -16.219  -3.485  1.00  0.00     0.002 C 
HETATM   29  C   UNL     1      38.577 -15.802  -3.903  1.00  0.00     0.000 C 
HETATM   30  C   UNL     1      37.998 -14.748  -2.966  1.00  0.00     0.002 C 
HETATM   31  C   UNL     1      38.919 -13.534  -2.846  1.00  0.00     0.025 C 
ENDBRANCH  22  26
ENDBRANCH   5  20
TORSDOF 6
ENDMDL
MODEL 10
REMARK VINA RESULT:      -7.3      5.204      9.526
REMARK  6 active torsions:
REMARK  status: ('A' for Active; 'I' for Inactive)
REMARK    1  A    between atoms: C_2  and  N_3 
REMARK    2  A    between atoms: C_2  and  C_24 
REMARK       I    between atoms: N_3  and  C_4 
REMARK    3  A    between atoms: C_4  and  C_5 
REMARK    4  A    between atoms: C_5  and  N_6 
REMARK    5  A    between atoms: C_10  and  N_11 
REMARK       I    between atoms: N_11  and  C_12 
REMARK       I    between atoms: C_12  and  N_13 
REMARK    6  A    between atoms: N_13  and  C_14 
ROOT
HETATM    1  N   UNL     1      42.185 -15.706   3.588  1.00  0.00    -0.063 N 
HETATM    2  H   UNL     1      42.683 -16.502   4.019  1.00  0.00     0.280 HD
HETATM    3  C   UNL     1      40.747 -16.135   3.418  1.00  0.00     0.237 C 
HETATM    4  C   UNL     1      40.552 -17.060   2.231  1.00  0.00     0.053 C 
HETATM    5  C   UNL     1      41.241 -16.614   0.943  1.00  0.00     0.089 C 
HETATM    6  C   UNL     1      42.700 -16.249   1.200  1.00  0.00     0.053 C 
HETATM    7  C   UNL     1      42.902 -15.276   2.341  1.00  0.00     0.237 C 
ENDROOT
BRANCH   1   8
HETATM    8  C   UNL     1      42.275 -14.577   4.642  1.00  0.00     0.337 C 
BRANCH   8   9
HETATM    9  C   UNL     1      43.598 -14.633   5.398  1.00  0.00     0.244 C 
HETATM   10  N   UNL     1      43.957 -15.694   6.160  1.00  0.00    -0.351 N 
HETATM   11  H   UNL     1      44.839 -15.528   6.636  1.00  0.00     0.163 HD
HETATM   12  O   UNL     1      44.380 -13.681   5.288  1.00  0.00    -0.272 OA
BRANCH  10  13
HETATM   13  C   UNL     1      43.256 -16.899   6.614  1.00  0.00     0.120 C 
HETATM   14  C   UNL     1      43.154 -17.095   8.124  1.00  0.00     0.038 C 
BRANCH  13  15
HETATM   15  C   UNL     1      43.751 -18.137   5.909  1.00  0.00     0.005 A 
HETATM   16  S   UNL     1      43.940 -19.648   6.700  1.00  0.00    -0.104 SA
HETATM   17  C   UNL     1      44.461 -20.420   5.269  1.00  0.00     0.050 A 
HETATM   18  C   UNL     1      44.476 -19.558   4.198  1.00  0.00     0.008 A 
HETATM   19  C   UNL     1      44.069 -18.244   4.566  1.00  0.00     0.017 A 
ENDBRANCH  13  15
ENDBRANCH  10  13
ENDBRANCH   8   9
ENDBRANCH   1   8
BRANCH   5  20
HETATM   20  N   UNL     1      40.503 -15.632   0.149  1.00  0.00    -0.338 N 
HETATM   21  C   UNL     1      40.559 -15.452  -1.204  1.00  0.00     0.316 C 
HETATM   22  N   UNL     1      39.694 -14.485  -1.633  1.00  0.00    -0.339 N 
HETATM   23  O   UNL     1      41.285 -16.095  -1.949  1.00  0.00    -0.247 OA
HETATM   24  H   UNL     1      39.425 -13.787  -0.954  1.00  0.00     0.164 HD
HETATM   25  H   UNL     1      39.691 -15.221   0.593  1.00  0.00     0.164 HD
BRANCH  22  26
HETATM   26  C   UNL     1      39.659 -14.074  -3.037  1.00  0.00     0.086 C 
HETATM   27  C   UNL     1      38.853 -15.071  -3.878  1.00  0.00     0.025 C 
HETATM   28  C   UNL     1      37.348 -14.977  -3.635  1.00  0.00     0.002 C 
HETATM   29  C   UNL     1      36.837 -13.549  -3.803  1.00  0.00     0.000 C 
HETATM   30  C   UNL     1      37.608 -12.566  -2.929  1.00  0.00     0.002 C 
HETATM   31  C   UNL     1      39.113 -12.647  -3.184  1.00  0.00     0.025 C 
ENDBRANCH  22  26
ENDBRANCH   5  20
TORSDOF 6
ENDMDL
