MODEL 1
REMARK VINA RESULT:      -8.6      0.000      0.000
REMARK  6 active torsions:
REMARK  status: ('A' for Active; 'I' for Inactive)
REMARK    1  A    between atoms: C_2  and  C_3 
REMARK    2  A    between atoms: C_4  and  O_5 
REMARK    3  A    between atoms: O_5  and  C_6 
REMARK    4  A    between atoms: C_6  and  C_7 
REMARK       I    between atoms: C_7  and  N_8 
REMARK    5  A    between atoms: N_8  and  C_9 
REMARK    6  A    between atoms: C_16  and  C_17 
REMARK       I    between atoms: C_17  and  N_18 
ROOT
HETATM    1  C   UNL     1      42.649 -17.412   1.385  1.00  0.00     0.246 C 
HETATM    2  N   UNL     1      42.858 -16.154   0.836  1.00  0.00    -0.325 N 
HETATM    3  O   UNL     1      41.569 -17.971   1.547  1.00  0.00    -0.271 OA
HETATM    4  H   UNL     1      43.825 -15.883   0.703  1.00  0.00     0.169 HD
ENDROOT
BRANCH   2   5
HETATM    5  C   UNL     1      41.887 -15.231   0.398  1.00  0.00     0.035 A 
HETATM    6  C   UNL     1      41.139 -15.386  -0.776  1.00  0.00     0.046 A 
HETATM    7  C   UNL     1      40.169 -14.413  -1.115  1.00  0.00     0.030 A 
HETATM    8  C   UNL     1      40.004 -13.312  -0.284  1.00  0.00     0.063 A 
HETATM    9  C   UNL     1      39.206 -14.234  -2.155  1.00  0.00     0.156 A 
HETATM   10  N   UNL     1      39.028 -12.557  -0.868  1.00  0.00    -0.277 N 
HETATM   11  C   UNL     1      40.738 -13.124   0.889  1.00  0.00     0.034 A 
HETATM   12  H   UNL     1      38.656 -11.672  -0.539  1.00  0.00     0.189 HD
HETATM   13  N   UNL     1      38.514 -13.083  -1.991  1.00  0.00    -0.168 NA
HETATM   14  C   UNL     1      41.671 -14.114   1.218  1.00  0.00     0.032 A 
BRANCH   9  15
HETATM   15  C   UNL     1      38.920 -15.134  -3.281  1.00  0.00     0.270 C 
HETATM   16  N   UNL     1      37.645 -15.632  -3.286  1.00  0.00    -0.365 N 
HETATM   17  H   UNL     1      37.023 -15.374  -2.530  1.00  0.00     0.159 HD
HETATM   18  H   UNL     1      37.370 -16.292  -3.995  1.00  0.00     0.159 HD
HETATM   19  O   UNL     1      39.727 -15.449  -4.149  1.00  0.00    -0.266 OA
ENDBRANCH   9  15
ENDBRANCH   2   5
BRANCH   1  20
HETATM   20  C   UNL     1      43.967 -18.111   1.734  1.00  0.00     0.278 C 
BRANCH  20  21
HETATM   21  O   UNL     1      44.028 -18.504   3.095  1.00  0.00    -0.342 OA
BRANCH  21  22
HETATM   22  C   UNL     1      44.191 -19.828   3.412  1.00  0.00     0.076 A 
HETATM   23  C   UNL     1      44.278 -20.149   4.793  1.00  0.00    -0.017 A 
HETATM   24  C   UNL     1      44.569 -21.493   5.126  1.00  0.00     0.011 A 
HETATM   25  C   UNL     1      44.720 -22.482   4.153  1.00  0.00     0.001 A 
HETATM   26  C   UNL     1      44.573 -22.159   2.815  1.00  0.00     0.003 A 
HETATM   27  C   UNL     1      44.308 -20.841   2.447  1.00  0.00     0.037 A 
BRANCH  23  28
HETATM   28  C   UNL     1      44.081 -19.097   5.915  1.00  0.00    -0.021 C 
HETATM   29  C   UNL     1      45.327 -18.196   6.089  1.00  0.00     0.019 C 
HETATM   30  C   UNL     1      43.769 -19.819   7.240  1.00  0.00     0.019 C 
HETATM   31  C   UNL     1      42.904 -18.121   5.641  1.00  0.00     0.019 C 
ENDBRANCH  23  28
ENDBRANCH  21  22
ENDBRANCH  20  21
ENDBRANCH   1  20
TORSDOF 6
ENDMDL
MODEL 2
REMARK VINA RESULT:      -8.5      1.834      3.257
REMARK  6 active torsions:
REMARK  status: ('A' for Active; 'I' for Inactive)
REMARK    1  A    between atoms: C_2  and  C_3 
REMARK    2  A    between atoms: C_4  and  O_5 
REMARK    3  A    between atoms: O_5  and  C_6 
REMARK    4  A    between atoms: C_6  and  C_7 
REMARK       I    between atoms: C_7  and  N_8 
REMARK    5  A    between atoms: N_8  and  C_9 
REMARK    6  A    between atoms: C_16  and  C_17 
REMARK       I    between atoms: C_17  and  N_18 
ROOT
HETATM    1  C   UNL     1      42.415 -14.073   2.695  1.00  0.00     0.246 C 
HETATM    2  N   UNL     1      41.212 -14.650   2.314  1.00  0.00    -0.325 N 
HETATM    3  O   UNL     1      42.936 -13.074   2.210  1.00  0.00    -0.271 OA
HETATM    4  H   UNL     1      40.893 -15.427   2.880  1.00  0.00     0.169 HD
ENDROOT
BRANCH   2   5
HETATM    5  C   UNL     1      40.359 -14.254   1.263  1.00  0.00     0.035 A 
HETATM    6  C   UNL     1      40.491 -14.703  -0.058  1.00  0.00     0.046 A 
HETATM    7  C   UNL     1      39.567 -14.266  -1.035  1.00  0.00     0.030 A 
HETATM    8  C   UNL     1      38.565 -13.378  -0.662  1.00  0.00     0.063 A 
HETATM    9  C   UNL     1      39.336 -14.517  -2.423  1.00  0.00     0.156 A 
HETATM   10  N   UNL     1      37.854 -13.132  -1.801  1.00  0.00    -0.277 N 
HETATM   11  C   UNL     1      38.411 -12.906   0.643  1.00  0.00     0.034 A 
HETATM   12  H   UNL     1      37.052 -12.518  -1.905  1.00  0.00     0.189 HD
HETATM   13  N   UNL     1      38.280 -13.806  -2.881  1.00  0.00    -0.168 NA
HETATM   14  C   UNL     1      39.319 -13.375   1.598  1.00  0.00     0.032 A 
BRANCH   9  15
HETATM   15  C   UNL     1      40.081 -15.422  -3.309  1.00  0.00     0.270 C 
HETATM   16  N   UNL     1      39.469 -16.630  -3.510  1.00  0.00    -0.365 N 
HETATM   17  H   UNL     1      38.595 -16.815  -3.033  1.00  0.00     0.159 HD
HETATM   18  H   UNL     1      39.926 -17.333  -4.069  1.00  0.00     0.159 HD
HETATM   19  O   UNL     1      41.160 -15.163  -3.829  1.00  0.00    -0.266 OA
ENDBRANCH   9  15
ENDBRANCH   2   5
BRANCH   1  20
HETATM   20  C   UNL     1      43.045 -14.796   3.890  1.00  0.00     0.278 C 
BRANCH  20  21
HETATM   21  O   UNL     1      42.601 -16.138   4.007  1.00  0.00    -0.342 OA
BRANCH  21  22
HETATM   22  C   UNL     1      43.407 -17.069   4.610  1.00  0.00     0.076 A 
HETATM   23  C   UNL     1      43.744 -18.215   3.844  1.00  0.00    -0.017 A 
HETATM   24  C   UNL     1      44.472 -19.237   4.497  1.00  0.00     0.011 A 
HETATM   25  C   UNL     1      44.889 -19.118   5.824  1.00  0.00     0.001 A 
HETATM   26  C   UNL     1      44.601 -17.966   6.535  1.00  0.00     0.003 A 
HETATM   27  C   UNL     1      43.867 -16.946   5.931  1.00  0.00     0.037 A 
BRANCH  23  28
HETATM   28  C   UNL     1      43.339 -18.382   2.357  1.00  0.00    -0.021 C 
HETATM   29  C   UNL     1      41.845 -18.050   2.124  1.00  0.00     0.019 C 
HETATM   30  C   UNL     1      43.629 -19.828   1.909  1.00  0.00     0.019 C 
HETATM   31  C   UNL     1      44.121 -17.443   1.399  1.00  0.00     0.019 C 
ENDBRANCH  23  28
ENDBRANCH  21  22
ENDBRANCH  20  21
ENDBRANCH   1  20
TORSDOF 6
ENDMDL
MODEL 3
REMARK VINA RESULT:      -8.2      2.707      3.524
REMARK  6 active torsions:
REMARK  status: ('A' for Active; 'I' for Inactive)
REMARK    1  A    between atoms: C_2  and  C_3 
REMARK    2  A    between atoms: C_4  and  O_5 
REMARK    3  A    between atoms: O_5  and  C_6 
REMARK    4  A    between atoms: C_6  and  C_7 
REMARK       I    between atoms: C_7  and  N_8 
REMARK    5  A    between atoms: N_8  and  C_9 
REMARK    6  A    between atoms: C_16  and  C_17 
REMARK       I    between atoms: C_17  and  N_18 
ROOT
HETATM    1  C   UNL     1      40.467 -16.020   1.751  1.00  0.00     0.246 C 
HETATM    2  N   UNL     1      41.481 -15.972   0.804  1.00  0.00    -0.325 N 
HETATM    3  O   UNL     1      39.386 -15.441   1.698  1.00  0.00    -0.271 OA
HETATM    4  H   UNL     1      42.274 -16.579   0.973  1.00  0.00     0.169 HD
ENDROOT
BRANCH   2   5
HETATM    5  C   UNL     1      41.517 -15.217  -0.385  1.00  0.00     0.035 A 
HETATM    6  C   UNL     1      41.979 -13.896  -0.455  1.00  0.00     0.046 A 
HETATM    7  C   UNL     1      41.998 -13.232  -1.704  1.00  0.00     0.030 A 
HETATM    8  C   UNL     1      41.530 -13.903  -2.828  1.00  0.00     0.063 A 
HETATM    9  C   UNL     1      42.420 -11.956  -2.189  1.00  0.00     0.156 A 
HETATM   10  N   UNL     1      41.657 -13.018  -3.860  1.00  0.00    -0.277 N 
HETATM   11  C   UNL     1      41.057 -15.216  -2.791  1.00  0.00     0.034 A 
HETATM   12  H   UNL     1      41.402 -13.165  -4.831  1.00  0.00     0.189 HD
HETATM   13  N   UNL     1      42.198 -11.838  -3.518  1.00  0.00    -0.168 NA
HETATM   14  C   UNL     1      41.074 -15.861  -1.549  1.00  0.00     0.032 A 
BRANCH   9  15
HETATM   15  C   UNL     1      43.039 -10.863  -1.425  1.00  0.00     0.270 C 
HETATM   16  N   UNL     1      43.335  -9.758  -2.177  1.00  0.00    -0.365 N 
HETATM   17  H   UNL     1      43.136  -9.781  -3.169  1.00  0.00     0.159 HD
HETATM   18  H   UNL     1      43.801  -8.975  -1.748  1.00  0.00     0.159 HD
HETATM   19  O   UNL     1      43.298 -10.904  -0.228  1.00  0.00    -0.266 OA
ENDBRANCH   9  15
ENDBRANCH   2   5
BRANCH   1  20
HETATM   20  C   UNL     1      40.806 -16.965   2.908  1.00  0.00     0.278 C 
BRANCH  20  21
HETATM   21  O   UNL     1      42.192 -16.977   3.210  1.00  0.00    -0.342 OA
BRANCH  21  22
HETATM   22  C   UNL     1      42.883 -18.160   3.173  1.00  0.00     0.076 A 
HETATM   23  C   UNL     1      43.687 -18.467   4.303  1.00  0.00    -0.017 A 
HETATM   24  C   UNL     1      44.497 -19.623   4.223  1.00  0.00     0.011 A 
HETATM   25  C   UNL     1      44.485 -20.462   3.108  1.00  0.00     0.001 A 
HETATM   26  C   UNL     1      43.650 -20.177   2.042  1.00  0.00     0.003 A 
HETATM   27  C   UNL     1      42.852 -19.034   2.075  1.00  0.00     0.037 A 
BRANCH  23  28
HETATM   28  C   UNL     1      43.709 -17.590   5.581  1.00  0.00    -0.021 C 
HETATM   29  C   UNL     1      43.723 -16.079   5.246  1.00  0.00     0.019 C 
HETATM   30  C   UNL     1      44.950 -17.949   6.422  1.00  0.00     0.019 C 
HETATM   31  C   UNL     1      42.467 -17.797   6.490  1.00  0.00     0.019 C 
ENDBRANCH  23  28
ENDBRANCH  21  22
ENDBRANCH  20  21
ENDBRANCH   1  20
TORSDOF 6
ENDMDL
MODEL 4
REMARK VINA RESULT:      -8.1      2.102      2.821
REMARK  6 active torsions:
REMARK  status: ('A' for Active; 'I' for Inactive)
REMARK    1  A    between atoms: C_2  and  C_3 
REMARK    2  A    between atoms: C_4  and  O_5 
REMARK    3  A    between atoms: O_5  and  C_6 
REMARK    4  A    between atoms: C_6  and  C_7 
REMARK       I    between atoms: C_7  and  N_8 
REMARK    5  A    between atoms: N_8  and  C_9 
REMARK    6  A    between atoms: C_16  and  C_17 
REMARK       I    between atoms: C_17  and  N_18 
ROOT
HETATM    1  C   UNL     1      41.001 -15.018   3.177  1.00  0.00     0.246 C 
HETATM    2  N   UNL     1      40.146 -15.538   2.215  1.00  0.00    -0.325 N 
HETATM    3  O   UNL     1      41.425 -13.868   3.238  1.00  0.00    -0.271 OA
HETATM    4  H   UNL     1      39.833 -16.489   2.367  1.00  0.00     0.169 HD
ENDROOT
BRANCH   2   5
HETATM    5  C   UNL     1      39.625 -14.885   1.079  1.00  0.00     0.035 A 
HETATM    6  C   UNL     1      40.321 -14.752  -0.130  1.00  0.00     0.046 A 
HETATM    7  C   UNL     1      39.700 -14.101  -1.221  1.00  0.00     0.030 A 
HETATM    8  C   UNL     1      38.421 -13.584  -1.053  1.00  0.00     0.063 A 
HETATM    9  C   UNL     1      40.036 -13.814  -2.580  1.00  0.00     0.156 A 
HETATM   10  N   UNL     1      38.100 -13.012  -2.251  1.00  0.00    -0.277 N 
HETATM   11  C   UNL     1      37.704 -13.692   0.140  1.00  0.00     0.034 A 
HETATM   12  H   UNL     1      37.241 -12.527  -2.490  1.00  0.00     0.189 HD
HETATM   13  N   UNL     1      39.042 -13.137  -3.199  1.00  0.00    -0.168 NA
HETATM   14  C   UNL     1      38.328 -14.366   1.195  1.00  0.00     0.032 A 
BRANCH   9  15
HETATM   15  C   UNL     1      41.264 -14.180  -3.299  1.00  0.00     0.270 C 
HETATM   16  N   UNL     1      42.064 -13.114  -3.612  1.00  0.00    -0.365 N 
HETATM   17  H   UNL     1      41.753 -12.185  -3.358  1.00  0.00     0.159 HD
HETATM   18  H   UNL     1      42.907 -13.263  -4.144  1.00  0.00     0.159 HD
HETATM   19  O   UNL     1      41.573 -15.322  -3.622  1.00  0.00    -0.266 OA
ENDBRANCH   9  15
ENDBRANCH   2   5
BRANCH   1  20
HETATM   20  C   UNL     1      41.340 -16.048   4.260  1.00  0.00     0.278 C 
BRANCH  20  21
HETATM   21  O   UNL     1      42.736 -16.254   4.394  1.00  0.00    -0.342 OA
BRANCH  21  22
HETATM   22  C   UNL     1      43.265 -17.495   4.150  1.00  0.00     0.076 A 
HETATM   23  C   UNL     1      43.868 -18.161   5.250  1.00  0.00    -0.017 A 
HETATM   24  C   UNL     1      44.523 -19.385   4.983  1.00  0.00     0.011 A 
HETATM   25  C   UNL     1      44.544 -19.952   3.708  1.00  0.00     0.001 A 
HETATM   26  C   UNL     1      43.900 -19.316   2.661  1.00  0.00     0.003 A 
HETATM   27  C   UNL     1      43.261 -18.096   2.882  1.00  0.00     0.037 A 
BRANCH  23  28
HETATM   28  C   UNL     1      43.841 -17.594   6.693  1.00  0.00    -0.021 C 
HETATM   29  C   UNL     1      42.397 -17.451   7.231  1.00  0.00     0.019 C 
HETATM   30  C   UNL     1      44.545 -16.223   6.714  1.00  0.00     0.019 C 
HETATM   31  C   UNL     1      44.574 -18.498   7.721  1.00  0.00     0.019 C 
ENDBRANCH  23  28
ENDBRANCH  21  22
ENDBRANCH  20  21
ENDBRANCH   1  20
TORSDOF 6
ENDMDL
MODEL 5
REMARK VINA RESULT:      -8.0      2.991      9.288
REMARK  6 active torsions:
REMARK  status: ('A' for Active; 'I' for Inactive)
REMARK    1  A    between atoms: C_2  and  C_3 
REMARK    2  A    between atoms: C_4  and  O_5 
REMARK    3  A    between atoms: O_5  and  C_6 
REMARK    4  A    between atoms: C_6  and  C_7 
REMARK       I    between atoms: C_7  and  N_8 
REMARK    5  A    between atoms: N_8  and  C_9 
REMARK    6  A    between atoms: C_16  and  C_17 
REMARK       I    between atoms: C_17  and  N_18 
ROOT
HETATM    1  C   UNL     1      41.905 -16.087   1.603  1.00  0.00     0.246 C 
HETATM    2  N   UNL     1      43.181 -16.481   1.982  1.00  0.00    -0.325 N 
HETATM    3  O   UNL     1      40.847 -16.606   1.942  1.00  0.00    -0.271 OA
HETATM    4  H   UNL     1      43.940 -15.886   1.671  1.00  0.00     0.169 HD
ENDROOT
BRANCH   2   5
HETATM    5  C   UNL     1      43.542 -17.582   2.785  1.00  0.00     0.035 A 
HETATM    6  C   UNL     1      43.451 -17.588   4.183  1.00  0.00     0.046 A 
HETATM    7  C   UNL     1      43.815 -18.754   4.897  1.00  0.00     0.030 A 
HETATM    8  C   UNL     1      44.282 -19.855   4.191  1.00  0.00     0.063 A 
HETATM    9  C   UNL     1      43.822 -19.167   6.265  1.00  0.00     0.156 A 
HETATM   10  N   UNL     1      44.563 -20.802   5.134  1.00  0.00    -0.277 N 
HETATM   11  C   UNL     1      44.392 -19.879   2.799  1.00  0.00     0.034 A 
HETATM   12  H   UNL     1      44.934 -21.733   4.979  1.00  0.00     0.189 HD
HETATM   13  N   UNL     1      44.290 -20.429   6.395  1.00  0.00    -0.168 NA
HETATM   14  C   UNL     1      43.999 -18.725   2.113  1.00  0.00     0.032 A 
BRANCH   9  15
HETATM   15  C   UNL     1      43.380 -18.400   7.439  1.00  0.00     0.270 C 
HETATM   16  N   UNL     1      44.016 -18.745   8.600  1.00  0.00    -0.365 N 
HETATM   17  H   UNL     1      44.700 -19.491   8.573  1.00  0.00     0.159 HD
HETATM   18  H   UNL     1      43.749 -18.304   9.465  1.00  0.00     0.159 HD
HETATM   19  O   UNL     1      42.513 -17.533   7.424  1.00  0.00    -0.266 OA
ENDBRANCH   9  15
ENDBRANCH   2   5
BRANCH   1  20
HETATM   20  C   UNL     1      41.930 -14.834   0.722  1.00  0.00     0.278 C 
BRANCH  20  21
HETATM   21  O   UNL     1      40.638 -14.463   0.271  1.00  0.00    -0.342 OA
BRANCH  21  22
HETATM   22  C   UNL     1      40.289 -14.677  -1.038  1.00  0.00     0.076 A 
HETATM   23  C   UNL     1      39.119 -14.021  -1.503  1.00  0.00    -0.017 A 
HETATM   24  C   UNL     1      38.683 -14.331  -2.813  1.00  0.00     0.011 A 
HETATM   25  C   UNL     1      39.388 -15.205  -3.641  1.00  0.00     0.001 A 
HETATM   26  C   UNL     1      40.559 -15.788  -3.189  1.00  0.00     0.003 A 
HETATM   27  C   UNL     1      41.008 -15.524  -1.896  1.00  0.00     0.037 A 
BRANCH  23  28
HETATM   28  C   UNL     1      38.320 -13.013  -0.638  1.00  0.00    -0.021 C 
HETATM   29  C   UNL     1      37.554 -13.715   0.510  1.00  0.00     0.019 C 
HETATM   30  C   UNL     1      37.327 -12.248  -1.535  1.00  0.00     0.019 C 
HETATM   31  C   UNL     1      39.218 -11.953   0.056  1.00  0.00     0.019 C 
ENDBRANCH  23  28
ENDBRANCH  21  22
ENDBRANCH  20  21
ENDBRANCH   1  20
TORSDOF 6
ENDMDL
MODEL 6
REMARK VINA RESULT:      -7.9      7.513      9.921
REMARK  6 active torsions:
REMARK  status: ('A' for Active; 'I' for Inactive)
REMARK    1  A    between atoms: C_2  and  C_3 
REMARK    2  A    between atoms: C_4  and  O_5 
REMARK    3  A    between atoms: O_5  and  C_6 
REMARK    4  A    between atoms: C_6  and  C_7 
REMARK       I    between atoms: C_7  and  N_8 
REMARK    5  A    between atoms: N_8  and  C_9 
REMARK    6  A    between atoms: C_16  and  C_17 
REMARK       I    between atoms: C_17  and  N_18 
ROOT
HETATM    1  C   UNL     1      44.152 -13.620   7.392  1.00  0.00     0.246 C 
HETATM    2  N   UNL     1      43.722 -12.340   7.714  1.00  0.00    -0.325 N 
HETATM    3  O   UNL     1      44.590 -14.463   8.168  1.00  0.00    -0.271 OA
HETATM    4  H   UNL     1      43.313 -11.805   6.956  1.00  0.00     0.169 HD
ENDROOT
BRANCH   2   5
HETATM    5  C   UNL     1      43.745 -11.713   8.976  1.00  0.00     0.035 A 
HETATM    6  C   UNL     1      42.602 -11.490   9.755  1.00  0.00     0.046 A 
HETATM    7  C   UNL     1      42.734 -10.875  11.022  1.00  0.00     0.030 A 
HETATM    8  C   UNL     1      43.996 -10.481  11.448  1.00  0.00     0.063 A 
HETATM    9  C   UNL     1      41.859 -10.528  12.097  1.00  0.00     0.156 A 
HETATM   10  N   UNL     1      43.807  -9.915  12.676  1.00  0.00    -0.277 N 
HETATM   11  C   UNL     1      45.154 -10.682  10.693  1.00  0.00     0.034 A 
HETATM   12  H   UNL     1      44.512  -9.507  13.280  1.00  0.00     0.189 HD
HETATM   13  N   UNL     1      42.535  -9.933  13.107  1.00  0.00    -0.168 NA
HETATM   14  C   UNL     1      45.001 -11.318   9.457  1.00  0.00     0.032 A 
BRANCH   9  15
HETATM   15  C   UNL     1      40.412 -10.763  12.192  1.00  0.00     0.270 C 
HETATM   16  N   UNL     1      40.077 -12.061  12.472  1.00  0.00    -0.365 N 
HETATM   17  H   UNL     1      40.820 -12.743  12.567  1.00  0.00     0.159 HD
HETATM   18  H   UNL     1      39.107 -12.327  12.513  1.00  0.00     0.159 HD
HETATM   19  O   UNL     1      39.550  -9.908  12.025  1.00  0.00    -0.266 OA
ENDBRANCH   9  15
ENDBRANCH   2   5
BRANCH   1  20
HETATM   20  C   UNL     1      43.960 -13.933   5.904  1.00  0.00     0.278 C 
BRANCH  20  21
HETATM   21  O   UNL     1      43.119 -15.054   5.690  1.00  0.00    -0.342 OA
BRANCH  21  22
HETATM   22  C   UNL     1      43.241 -15.782   4.534  1.00  0.00     0.076 A 
HETATM   23  C   UNL     1      43.566 -17.157   4.677  1.00  0.00    -0.017 A 
HETATM   24  C   UNL     1      43.814 -17.888   3.492  1.00  0.00     0.011 A 
HETATM   25  C   UNL     1      43.703 -17.309   2.227  1.00  0.00     0.001 A 
HETATM   26  C   UNL     1      43.328 -15.982   2.108  1.00  0.00     0.003 A 
HETATM   27  C   UNL     1      43.096 -15.224   3.255  1.00  0.00     0.037 A 
BRANCH  23  28
HETATM   28  C   UNL     1      43.665 -17.859   6.056  1.00  0.00    -0.021 C 
HETATM   29  C   UNL     1      45.024 -17.590   6.746  1.00  0.00     0.019 C 
HETATM   30  C   UNL     1      43.465 -19.376   5.870  1.00  0.00     0.019 C 
HETATM   31  C   UNL     1      42.589 -17.379   7.068  1.00  0.00     0.019 C 
ENDBRANCH  23  28
ENDBRANCH  21  22
ENDBRANCH  20  21
ENDBRANCH   1  20
TORSDOF 6
ENDMDL
MODEL 7
REMARK VINA RESULT:      -7.8      3.291      9.321
REMARK  6 active torsions:
REMARK  status: ('A' for Active; 'I' for Inactive)
REMARK    1  A    between atoms: C_2  and  C_3 
REMARK    2  A    between atoms: C_4  and  O_5 
REMARK    3  A    between atoms: O_5  and  C_6 
REMARK    4  A    between atoms: C_6  and  C_7 
REMARK       I    between atoms: C_7  and  N_8 
REMARK    5  A    between atoms: N_8  and  C_9 
REMARK    6  A    between atoms: C_16  and  C_17 
REMARK       I    between atoms: C_17  and  N_18 
ROOT
HETATM    1  C   UNL     1      42.847 -13.980   2.431  1.00  0.00     0.246 C 
HETATM    2  N   UNL     1      42.473 -15.290   2.165  1.00  0.00    -0.325 N 
HETATM    3  O   UNL     1      43.731 -13.611   3.197  1.00  0.00    -0.271 OA
HETATM    4  H   UNL     1      41.775 -15.415   1.441  1.00  0.00     0.169 HD
ENDROOT
BRANCH   2   5
HETATM    5  C   UNL     1      42.982 -16.469   2.748  1.00  0.00     0.035 A 
HETATM    6  C   UNL     1      42.963 -16.727   4.125  1.00  0.00     0.046 A 
HETATM    7  C   UNL     1      43.476 -17.954   4.608  1.00  0.00     0.030 A 
HETATM    8  C   UNL     1      44.012 -18.860   3.702  1.00  0.00     0.063 A 
HETATM    9  C   UNL     1      43.593 -18.594   5.880  1.00  0.00     0.156 A 
HETATM   10  N   UNL     1      44.433 -19.920   4.453  1.00  0.00    -0.277 N 
HETATM   11  C   UNL     1      44.053 -18.630   2.325  1.00  0.00     0.034 A 
HETATM   12  H   UNL     1      44.886 -20.766   4.122  1.00  0.00     0.189 HD
HETATM   13  N   UNL     1      44.189 -19.803   5.767  1.00  0.00    -0.168 NA
HETATM   14  C   UNL     1      43.514 -17.423   1.869  1.00  0.00     0.032 A 
BRANCH   9  15
HETATM   15  C   UNL     1      43.138 -18.094   7.185  1.00  0.00     0.270 C 
HETATM   16  N   UNL     1      43.824 -18.614   8.249  1.00  0.00    -0.365 N 
HETATM   17  H   UNL     1      44.550 -19.297   8.070  1.00  0.00     0.159 HD
HETATM   18  H   UNL     1      43.554 -18.362   9.187  1.00  0.00     0.159 HD
HETATM   19  O   UNL     1      42.223 -17.296   7.349  1.00  0.00    -0.266 OA
ENDBRANCH   9  15
ENDBRANCH   2   5
BRANCH   1  20
HETATM   20  C   UNL     1      42.056 -12.975   1.587  1.00  0.00     0.278 C 
BRANCH  20  21
HETATM   21  O   UNL     1      41.791 -13.455   0.280  1.00  0.00    -0.342 OA
BRANCH  21  22
HETATM   22  C   UNL     1      41.992 -12.633  -0.799  1.00  0.00     0.076 A 
HETATM   23  C   UNL     1      41.377 -13.017  -2.019  1.00  0.00    -0.017 A 
HETATM   24  C   UNL     1      41.677 -12.244  -3.165  1.00  0.00     0.011 A 
HETATM   25  C   UNL     1      42.503 -11.121  -3.105  1.00  0.00     0.001 A 
HETATM   26  C   UNL     1      43.046 -10.730  -1.894  1.00  0.00     0.003 A 
HETATM   27  C   UNL     1      42.790 -11.479  -0.747  1.00  0.00     0.037 A 
BRANCH  23  28
HETATM   28  C   UNL     1      40.421 -14.233  -2.133  1.00  0.00    -0.021 C 
HETATM   29  C   UNL     1      41.067 -15.530  -1.588  1.00  0.00     0.019 C 
HETATM   30  C   UNL     1      40.021 -14.429  -3.608  1.00  0.00     0.019 C 
HETATM   31  C   UNL     1      39.107 -14.058  -1.324  1.00  0.00     0.019 C 
ENDBRANCH  23  28
ENDBRANCH  21  22
ENDBRANCH  20  21
ENDBRANCH   1  20
TORSDOF 6
ENDMDL
MODEL 8
REMARK VINA RESULT:      -7.7      2.922      9.235
REMARK  6 active torsions:
REMARK  status: ('A' for Active; 'I' for Inactive)
REMARK    1  A    between atoms: C_2  and  C_3 
REMARK    2  A    between atoms: C_4  and  O_5 
REMARK    3  A    between atoms: O_5  and  C_6 
REMARK    4  A    between atoms: C_6  and  C_7 
REMARK       I    between atoms: C_7  and  N_8 
REMARK    5  A    between atoms: N_8  and  C_9 
REMARK    6  A    between atoms: C_16  and  C_17 
REMARK       I    between atoms: C_17  and  N_18 
ROOT
HETATM    1  C   UNL     1      42.864 -15.197   2.317  1.00  0.00     0.246 C 
HETATM    2  N   UNL     1      42.485 -16.500   2.025  1.00  0.00    -0.325 N 
HETATM    3  O   UNL     1      43.813 -14.847   3.010  1.00  0.00    -0.271 OA
HETATM    4  H   UNL     1      41.721 -16.603   1.367  1.00  0.00     0.169 HD
ENDROOT
BRANCH   2   5
HETATM    5  C   UNL     1      43.065 -17.694   2.498  1.00  0.00     0.035 A 
HETATM    6  C   UNL     1      43.380 -17.928   3.843  1.00  0.00     0.046 A 
HETATM    7  C   UNL     1      43.938 -19.172   4.220  1.00  0.00     0.030 A 
HETATM    8  C   UNL     1      44.184 -20.122   3.236  1.00  0.00     0.063 A 
HETATM    9  C   UNL     1      44.338 -19.797   5.441  1.00  0.00     0.156 A 
HETATM   10  N   UNL     1      44.727 -21.191   3.890  1.00  0.00    -0.277 N 
HETATM   11  C   UNL     1      43.890 -19.918   1.887  1.00  0.00     0.034 A 
HETATM   12  H   UNL     1      45.041 -22.066   3.483  1.00  0.00     0.189 HD
HETATM   13  N   UNL     1      44.828 -21.038   5.220  1.00  0.00    -0.168 NA
HETATM   14  C   UNL     1      43.312 -18.691   1.543  1.00  0.00     0.032 A 
BRANCH   9  15
HETATM   15  C   UNL     1      44.250 -19.249   6.802  1.00  0.00     0.270 C 
HETATM   16  N   UNL     1      44.855 -18.030   6.951  1.00  0.00    -0.365 N 
HETATM   17  H   UNL     1      45.322 -17.621   6.151  1.00  0.00     0.159 HD
HETATM   18  H   UNL     1      44.884 -17.596   7.860  1.00  0.00     0.159 HD
HETATM   19  O   UNL     1      43.709 -19.808   7.749  1.00  0.00    -0.266 OA
ENDBRANCH   9  15
ENDBRANCH   2   5
BRANCH   1  20
HETATM   20  C   UNL     1      41.980 -14.169   1.603  1.00  0.00     0.278 C 
BRANCH  20  21
HETATM   21  O   UNL     1      41.359 -14.699   0.444  1.00  0.00    -0.342 OA
BRANCH  21  22
HETATM   22  C   UNL     1      40.032 -14.444   0.208  1.00  0.00     0.076 A 
HETATM   23  C   UNL     1      39.676 -14.090  -1.120  1.00  0.00    -0.017 A 
HETATM   24  C   UNL     1      38.334 -13.706  -1.348  1.00  0.00     0.011 A 
HETATM   25  C   UNL     1      37.378 -13.716  -0.331  1.00  0.00     0.001 A 
HETATM   26  C   UNL     1      37.733 -14.121   0.943  1.00  0.00     0.003 A 
HETATM   27  C   UNL     1      39.051 -14.485   1.211  1.00  0.00     0.037 A 
BRANCH  23  28
HETATM   28  C   UNL     1      40.690 -14.099  -2.293  1.00  0.00    -0.021 C 
HETATM   29  C   UNL     1      40.114 -13.424  -3.562  1.00  0.00     0.019 C 
HETATM   30  C   UNL     1      41.087 -15.554  -2.611  1.00  0.00     0.019 C 
HETATM   31  C   UNL     1      42.001 -13.328  -1.978  1.00  0.00     0.019 C 
ENDBRANCH  23  28
ENDBRANCH  21  22
ENDBRANCH  20  21
ENDBRANCH   1  20
TORSDOF 6
ENDMDL
MODEL 9
REMARK VINA RESULT:      -7.7      1.977      3.169
REMARK  6 active torsions:
REMARK  status: ('A' for Active; 'I' for Inactive)
REMARK    1  A    between atoms: C_2  and  C_3 
REMARK    2  A    between atoms: C_4  and  O_5 
REMARK    3  A    between atoms: O_5  and  C_6 
REMARK    4  A    between atoms: C_6  and  C_7 
REMARK       I    between atoms: C_7  and  N_8 
REMARK    5  A    between atoms: N_8  and  C_9 
REMARK    6  A    between atoms: C_16  and  C_17 
REMARK       I    between atoms: C_17  and  N_18 
ROOT
HETATM    1  C   UNL     1      41.669 -16.148   0.620  1.00  0.00     0.246 C 
HETATM    2  N   UNL     1      41.710 -16.022  -0.762  1.00  0.00    -0.325 N 
HETATM    3  O   UNL     1      40.863 -15.623   1.380  1.00  0.00    -0.271 OA
HETATM    4  H   UNL     1      42.397 -16.593  -1.240  1.00  0.00     0.169 HD
ENDROOT
BRANCH   2   5
HETATM    5  C   UNL     1      40.879 -15.232  -1.582  1.00  0.00     0.035 A 
HETATM    6  C   UNL     1      40.423 -13.956  -1.228  1.00  0.00     0.046 A 
HETATM    7  C   UNL     1      39.613 -13.232  -2.134  1.00  0.00     0.030 A 
HETATM    8  C   UNL     1      39.267 -13.822  -3.344  1.00  0.00     0.063 A 
HETATM    9  C   UNL     1      39.008 -11.938  -2.171  1.00  0.00     0.156 A 
HETATM   10  N   UNL     1      38.483 -12.906  -3.985  1.00  0.00    -0.277 N 
HETATM   11  C   UNL     1      39.699 -15.094  -3.723  1.00  0.00     0.034 A 
HETATM   12  H   UNL     1      38.041 -13.004  -4.893  1.00  0.00     0.189 HD
HETATM   13  N   UNL     1      38.311 -11.755  -3.316  1.00  0.00    -0.168 NA
HETATM   14  C   UNL     1      40.523 -15.779  -2.823  1.00  0.00     0.032 A 
BRANCH   9  15
HETATM   15  C   UNL     1      39.092 -10.876  -1.159  1.00  0.00     0.270 C 
HETATM   16  N   UNL     1      40.312 -10.257  -1.103  1.00  0.00    -0.365 N 
HETATM   17  H   UNL     1      41.046 -10.578  -1.722  1.00  0.00     0.159 HD
HETATM   18  H   UNL     1      40.478  -9.545  -0.410  1.00  0.00     0.159 HD
HETATM   19  O   UNL     1      38.182 -10.554  -0.403  1.00  0.00    -0.266 OA
ENDBRANCH   9  15
ENDBRANCH   2   5
BRANCH   1  20
HETATM   20  C   UNL     1      42.744 -17.108   1.140  1.00  0.00     0.278 C 
BRANCH  20  21
HETATM   21  O   UNL     1      42.275 -17.924   2.201  1.00  0.00    -0.342 OA
BRANCH  21  22
HETATM   22  C   UNL     1      43.111 -18.856   2.760  1.00  0.00     0.076 A 
HETATM   23  C   UNL     1      43.400 -18.708   4.143  1.00  0.00    -0.017 A 
HETATM   24  C   UNL     1      44.354 -19.589   4.701  1.00  0.00     0.011 A 
HETATM   25  C   UNL     1      44.960 -20.598   3.949  1.00  0.00     0.001 A 
HETATM   26  C   UNL     1      44.620 -20.762   2.618  1.00  0.00     0.003 A 
HETATM   27  C   UNL     1      43.699 -19.899   2.028  1.00  0.00     0.037 A 
BRANCH  23  28
HETATM   28  C   UNL     1      42.727 -17.629   5.031  1.00  0.00    -0.021 C 
HETATM   29  C   UNL     1      41.188 -17.619   4.864  1.00  0.00     0.019 C 
HETATM   30  C   UNL     1      43.301 -16.245   4.672  1.00  0.00     0.019 C 
HETATM   31  C   UNL     1      42.973 -17.844   6.549  1.00  0.00     0.019 C 
ENDBRANCH  23  28
ENDBRANCH  21  22
ENDBRANCH  20  21
ENDBRANCH   1  20
TORSDOF 6
ENDMDL
MODEL 10
REMARK VINA RESULT:      -7.7      2.848      4.323
REMARK  6 active torsions:
REMARK  status: ('A' for Active; 'I' for Inactive)
REMARK    1  A    between atoms: C_2  and  C_3 
REMARK    2  A    between atoms: C_4  and  O_5 
REMARK    3  A    between atoms: O_5  and  C_6 
REMARK    4  A    between atoms: C_6  and  C_7 
REMARK       I    between atoms: C_7  and  N_8 
REMARK    5  A    between atoms: N_8  and  C_9 
REMARK    6  A    between atoms: C_16  and  C_17 
REMARK       I    between atoms: C_17  and  N_18 
ROOT
HETATM    1  C   UNL     1      40.932 -14.645   2.477  1.00  0.00     0.246 C 
HETATM    2  N   UNL     1      41.836 -14.856   1.444  1.00  0.00    -0.325 N 
HETATM    3  O   UNL     1      39.856 -14.063   2.401  1.00  0.00    -0.271 OA
HETATM    4  H   UNL     1      42.640 -15.430   1.669  1.00  0.00     0.169 HD
ENDROOT
BRANCH   2   5
HETATM    5  C   UNL     1      41.745 -14.407   0.111  1.00  0.00     0.035 A 
HETATM    6  C   UNL     1      42.183 -13.147  -0.318  1.00  0.00     0.046 A 
HETATM    7  C   UNL     1      42.070 -12.801  -1.685  1.00  0.00     0.030 A 
HETATM    8  C   UNL     1      41.499 -13.714  -2.563  1.00  0.00     0.063 A 
HETATM    9  C   UNL     1      42.427 -11.683  -2.500  1.00  0.00     0.156 A 
HETATM   10  N   UNL     1      41.512 -13.103  -3.784  1.00  0.00    -0.277 N 
HETATM   11  C   UNL     1      41.045 -14.974  -2.166  1.00  0.00     0.034 A 
HETATM   12  H   UNL     1      41.162 -13.474  -4.661  1.00  0.00     0.189 HD
HETATM   13  N   UNL     1      42.072 -11.883  -3.790  1.00  0.00    -0.168 NA
HETATM   14  C   UNL     1      41.194 -15.304  -0.815  1.00  0.00     0.032 A 
BRANCH   9  15
HETATM   15  C   UNL     1      43.108 -10.449  -2.085  1.00  0.00     0.270 C 
HETATM   16  N   UNL     1      42.783  -9.354  -2.840  1.00  0.00    -0.365 N 
HETATM   17  H   UNL     1      42.141  -9.474  -3.614  1.00  0.00     0.159 HD
HETATM   18  H   UNL     1      43.233  -8.472  -2.657  1.00  0.00     0.159 HD
HETATM   19  O   UNL     1      43.912 -10.367  -1.163  1.00  0.00    -0.266 OA
ENDBRANCH   9  15
ENDBRANCH   2   5
BRANCH   1  20
HETATM   20  C   UNL     1      41.393 -15.298   3.784  1.00  0.00     0.278 C 
BRANCH  20  21
HETATM   21  O   UNL     1      42.680 -15.882   3.675  1.00  0.00    -0.342 OA
BRANCH  21  22
HETATM   22  C   UNL     1      43.063 -16.851   4.566  1.00  0.00     0.076 A 
HETATM   23  C   UNL     1      43.363 -18.131   4.028  1.00  0.00    -0.017 A 
HETATM   24  C   UNL     1      43.640 -19.169   4.947  1.00  0.00     0.011 A 
HETATM   25  C   UNL     1      43.668 -18.950   6.326  1.00  0.00     0.001 A 
HETATM   26  C   UNL     1      43.431 -17.682   6.826  1.00  0.00     0.003 A 
HETATM   27  C   UNL     1      43.133 -16.638   5.951  1.00  0.00     0.037 A 
BRANCH  23  28
HETATM   28  C   UNL     1      43.382 -18.419   2.504  1.00  0.00    -0.021 C 
HETATM   29  C   UNL     1      41.969 -18.326   1.879  1.00  0.00     0.019 C 
HETATM   30  C   UNL     1      43.970 -19.823   2.259  1.00  0.00     0.019 C 
HETATM   31  C   UNL     1      44.253 -17.414   1.701  1.00  0.00     0.019 C 
ENDBRANCH  23  28
ENDBRANCH  21  22
ENDBRANCH  20  21
ENDBRANCH   1  20
TORSDOF 6
ENDMDL
