MODEL 1
REMARK VINA RESULT:      -9.1      0.000      0.000
REMARK  6 active torsions:
REMARK  status: ('A' for Active; 'I' for Inactive)
REMARK    1  A    between atoms: O_2  and  C_3 
REMARK    2  A    between atoms: C_6  and  C_7 
REMARK    3  A    between atoms: C_13  and  C_14 
REMARK       I    between atoms: C_14  and  N_15 
REMARK    4  A    between atoms: N_15  and  C_16 
REMARK    5  A    between atoms: C_16  and  C_17 
REMARK    6  A    between atoms: C_24  and  C_25 
ROOT
HETATM    1  C   UNL     1      42.401 -16.916   3.306  1.00  0.00     0.118 C 
HETATM    2  N   UNL     1      43.109 -16.102   4.300  1.00  0.00    -0.365 N 
HETATM    3  C   UNL     1      42.755 -14.795   4.459  1.00  0.00     0.138 A 
HETATM    4  N   UNL     1      41.927 -14.180   3.542  1.00  0.00    -0.240 N 
HETATM    5  N   UNL     1      41.604 -12.922   3.859  1.00  0.00    -0.181 NA
HETATM    6  C   UNL     1      42.333 -12.686   4.952  1.00  0.00     0.160 A 
HETATM    7  C   UNL     1      43.072 -13.817   5.386  1.00  0.00     0.096 A 
HETATM    8  C   UNL     1      41.397 -14.820   2.350  1.00  0.00     0.221 C 
HETATM    9  C   UNL     1      42.209 -16.088   2.029  1.00  0.00     0.066 C 
HETATM   10  H   UNL     1      44.076 -16.385   4.467  1.00  0.00     0.161 HD
ENDROOT
BRANCH   7  11
HETATM   11  C   UNL     1      43.905 -13.849   6.572  1.00  0.00     0.257 C 
HETATM   12  N   UNL     1      43.689 -12.842   7.485  1.00  0.00    -0.352 N 
HETATM   13  H   UNL     1      43.128 -12.054   7.183  1.00  0.00     0.163 HD
HETATM   14  O   UNL     1      44.769 -14.706   6.722  1.00  0.00    -0.267 OA
BRANCH  12  15
HETATM   15  C   UNL     1      44.584 -12.670   8.605  1.00  0.00     0.161 C 
BRANCH  15  16
HETATM   16  C   UNL     1      44.083 -11.684   9.629  1.00  0.00    -0.041 A 
HETATM   17  C   UNL     1      44.756 -11.473  10.841  1.00  0.00     0.009 A 
HETATM   18  C   UNL     1      44.323 -10.490  11.733  1.00  0.00     0.001 A 
HETATM   19  C   UNL     1      43.226  -9.693  11.417  1.00  0.00     0.000 A 
HETATM   20  C   UNL     1      42.558  -9.878  10.209  1.00  0.00     0.001 A 
HETATM   21  C   UNL     1      42.985 -10.865   9.320  1.00  0.00     0.009 A 
ENDBRANCH  15  16
ENDBRANCH  12  15
ENDBRANCH   7  11
BRANCH   1  22
HETATM   22  C   UNL     1      43.097 -18.252   3.129  1.00  0.00    -0.035 A 
HETATM   23  C   UNL     1      43.927 -18.724   4.162  1.00  0.00     0.012 A 
HETATM   24  C   UNL     1      44.538 -19.981   4.088  1.00  0.00     0.037 A 
HETATM   25  C   UNL     1      44.334 -20.792   2.974  1.00  0.00     0.068 A 
HETATM   26  C   UNL     1      43.548 -20.318   1.925  1.00  0.00     0.037 A 
HETATM   27  C   UNL     1      42.936 -19.061   1.997  1.00  0.00     0.012 A 
BRANCH  25  28
HETATM   28  O   UNL     1      44.846 -22.046   2.788  1.00  0.00    -0.356 OA
HETATM   29  C   UNL     1      44.724 -22.951   3.879  1.00  0.00     0.210 C 
ENDBRANCH  25  28
ENDBRANCH   1  22
BRANCH   8  30
HETATM   30  C   UNL     1      41.410 -13.901   1.145  1.00  0.00     0.409 C 
HETATM   31  F   UNL     1      42.464 -13.055   1.151  1.00  0.00    -0.169 F 
HETATM   32  F   UNL     1      41.524 -14.648   0.012  1.00  0.00    -0.169 F 
HETATM   33  F   UNL     1      40.279 -13.180   1.000  1.00  0.00    -0.169 F 
ENDBRANCH   8  30
TORSDOF 6
ENDMDL
MODEL 2
REMARK VINA RESULT:      -8.7      4.176      8.124
REMARK  6 active torsions:
REMARK  status: ('A' for Active; 'I' for Inactive)
REMARK    1  A    between atoms: O_2  and  C_3 
REMARK    2  A    between atoms: C_6  and  C_7 
REMARK    3  A    between atoms: C_13  and  C_14 
REMARK       I    between atoms: C_14  and  N_15 
REMARK    4  A    between atoms: N_15  and  C_16 
REMARK    5  A    between atoms: C_16  and  C_17 
REMARK    6  A    between atoms: C_24  and  C_25 
ROOT
HETATM    1  C   UNL     1      43.099 -16.801   3.124  1.00  0.00     0.118 C 
HETATM    2  N   UNL     1      42.501 -16.451   1.831  1.00  0.00    -0.365 N 
HETATM    3  C   UNL     1      41.915 -15.230   1.683  1.00  0.00     0.138 A 
HETATM    4  N   UNL     1      41.664 -14.438   2.785  1.00  0.00    -0.240 N 
HETATM    5  N   UNL     1      41.153 -13.238   2.488  1.00  0.00    -0.181 NA
HETATM    6  C   UNL     1      40.967 -13.305   1.168  1.00  0.00     0.160 A 
HETATM    7  C   UNL     1      41.428 -14.521   0.598  1.00  0.00     0.096 A 
HETATM    8  C   UNL     1      41.955 -14.817   4.157  1.00  0.00     0.221 C 
HETATM    9  C   UNL     1      42.164 -16.340   4.248  1.00  0.00     0.066 C 
HETATM   10  H   UNL     1      42.146 -17.248   1.300  1.00  0.00     0.161 HD
ENDROOT
BRANCH   7  11
HETATM   11  C   UNL     1      41.391 -14.831  -0.817  1.00  0.00     0.257 C 
HETATM   12  N   UNL     1      41.479 -13.755  -1.671  1.00  0.00    -0.352 N 
HETATM   13  H   UNL     1      41.357 -12.833  -1.269  1.00  0.00     0.163 HD
HETATM   14  O   UNL     1      41.255 -15.984  -1.215  1.00  0.00    -0.267 OA
BRANCH  12  15
HETATM   15  C   UNL     1      41.266 -13.931  -3.088  1.00  0.00     0.161 C 
BRANCH  15  16
HETATM   16  C   UNL     1      39.816 -14.114  -3.459  1.00  0.00    -0.041 A 
HETATM   17  C   UNL     1      39.315 -15.351  -3.890  1.00  0.00     0.009 A 
HETATM   18  C   UNL     1      37.952 -15.518  -4.141  1.00  0.00     0.001 A 
HETATM   19  C   UNL     1      37.070 -14.458  -3.945  1.00  0.00     0.000 A 
HETATM   20  C   UNL     1      37.549 -13.229  -3.500  1.00  0.00     0.001 A 
HETATM   21  C   UNL     1      38.913 -13.058  -3.256  1.00  0.00     0.009 A 
ENDBRANCH  15  16
ENDBRANCH  12  15
ENDBRANCH   7  11
BRANCH   1  22
HETATM   22  C   UNL     1      43.482 -18.270   3.145  1.00  0.00    -0.035 A 
HETATM   23  C   UNL     1      43.170 -19.065   2.028  1.00  0.00     0.012 A 
HETATM   24  C   UNL     1      43.562 -20.408   1.959  1.00  0.00     0.037 A 
HETATM   25  C   UNL     1      44.272 -20.983   3.010  1.00  0.00     0.068 A 
HETATM   26  C   UNL     1      44.550 -20.217   4.140  1.00  0.00     0.037 A 
HETATM   27  C   UNL     1      44.160 -18.875   4.212  1.00  0.00     0.012 A 
BRANCH  25  28
HETATM   28  O   UNL     1      44.737 -22.268   3.057  1.00  0.00    -0.356 OA
HETATM   29  C   UNL     1      44.717 -22.905   4.329  1.00  0.00     0.210 C 
ENDBRANCH  25  28
ENDBRANCH   1  22
BRANCH   8  30
HETATM   30  C   UNL     1      40.858 -14.405   5.117  1.00  0.00     0.409 C 
HETATM   31  F   UNL     1      39.622 -14.587   4.600  1.00  0.00    -0.169 F 
HETATM   32  F   UNL     1      40.924 -15.180   6.234  1.00  0.00    -0.169 F 
HETATM   33  F   UNL     1      40.962 -13.130   5.545  1.00  0.00    -0.169 F 
ENDBRANCH   8  30
TORSDOF 6
ENDMDL
MODEL 3
REMARK VINA RESULT:      -8.6      4.124      7.502
REMARK  6 active torsions:
REMARK  status: ('A' for Active; 'I' for Inactive)
REMARK    1  A    between atoms: O_2  and  C_3 
REMARK    2  A    between atoms: C_6  and  C_7 
REMARK    3  A    between atoms: C_13  and  C_14 
REMARK       I    between atoms: C_14  and  N_15 
REMARK    4  A    between atoms: N_15  and  C_16 
REMARK    5  A    between atoms: C_16  and  C_17 
REMARK    6  A    between atoms: C_24  and  C_25 
ROOT
HETATM    1  C   UNL     1      43.146 -16.525   3.203  1.00  0.00     0.118 C 
HETATM    2  N   UNL     1      42.617 -16.024   1.930  1.00  0.00    -0.365 N 
HETATM    3  C   UNL     1      42.013 -14.803   1.899  1.00  0.00     0.138 A 
HETATM    4  N   UNL     1      41.680 -14.159   3.074  1.00  0.00    -0.240 N 
HETATM    5  N   UNL     1      41.160 -12.940   2.898  1.00  0.00    -0.181 NA
HETATM    6  C   UNL     1      41.053 -12.843   1.571  1.00  0.00     0.160 A 
HETATM    7  C   UNL     1      41.573 -13.971   0.884  1.00  0.00     0.096 A 
HETATM    8  C   UNL     1      41.899 -14.703   4.403  1.00  0.00     0.221 C 
HETATM    9  C   UNL     1      42.136 -16.222   4.317  1.00  0.00     0.066 C 
HETATM   10  H   UNL     1      42.311 -16.753   1.283  1.00  0.00     0.161 HD
ENDROOT
BRANCH   7  11
HETATM   11  C   UNL     1      41.627 -14.102  -0.559  1.00  0.00     0.257 C 
HETATM   12  N   UNL     1      42.472 -13.232  -1.210  1.00  0.00    -0.352 N 
HETATM   13  H   UNL     1      42.829 -12.447  -0.679  1.00  0.00     0.163 HD
HETATM   14  O   UNL     1      40.930 -14.918  -1.152  1.00  0.00    -0.267 OA
BRANCH  12  15
HETATM   15  C   UNL     1      42.461 -13.150  -2.652  1.00  0.00     0.161 C 
BRANCH  15  16
HETATM   16  C   UNL     1      42.526 -11.737  -3.174  1.00  0.00    -0.041 A 
HETATM   17  C   UNL     1      42.308 -11.440  -4.527  1.00  0.00     0.009 A 
HETATM   18  C   UNL     1      42.284 -10.116  -4.969  1.00  0.00     0.001 A 
HETATM   19  C   UNL     1      42.456  -9.073  -4.063  1.00  0.00     0.000 A 
HETATM   20  C   UNL     1      42.655  -9.351  -2.713  1.00  0.00     0.001 A 
HETATM   21  C   UNL     1      42.687 -10.674  -2.271  1.00  0.00     0.009 A 
ENDBRANCH  15  16
ENDBRANCH  12  15
ENDBRANCH   7  11
BRANCH   1  22
HETATM   22  C   UNL     1      43.560 -17.978   3.065  1.00  0.00    -0.035 A 
HETATM   23  C   UNL     1      44.173 -18.613   4.160  1.00  0.00     0.012 A 
HETATM   24  C   UNL     1      44.512 -19.972   4.117  1.00  0.00     0.037 A 
HETATM   25  C   UNL     1      44.248 -20.721   2.974  1.00  0.00     0.068 A 
HETATM   26  C   UNL     1      43.680 -20.092   1.866  1.00  0.00     0.037 A 
HETATM   27  C   UNL     1      43.341 -18.735   1.906  1.00  0.00     0.012 A 
BRANCH  25  28
HETATM   28  O   UNL     1      44.500 -22.054   2.811  1.00  0.00    -0.356 OA
HETATM   29  C   UNL     1      44.703 -22.813   3.997  1.00  0.00     0.210 C 
ENDBRANCH  25  28
ENDBRANCH   1  22
BRANCH   8  30
HETATM   30  C   UNL     1      40.738 -14.431   5.338  1.00  0.00     0.409 C 
HETATM   31  F   UNL     1      39.539 -14.574   4.731  1.00  0.00    -0.169 F 
HETATM   32  F   UNL     1      40.761 -15.335   6.357  1.00  0.00    -0.169 F 
HETATM   33  F   UNL     1      40.784 -13.216   5.921  1.00  0.00    -0.169 F 
ENDBRANCH   8  30
TORSDOF 6
ENDMDL
MODEL 4
REMARK VINA RESULT:      -8.4      3.103      8.616
REMARK  6 active torsions:
REMARK  status: ('A' for Active; 'I' for Inactive)
REMARK    1  A    between atoms: O_2  and  C_3 
REMARK    2  A    between atoms: C_6  and  C_7 
REMARK    3  A    between atoms: C_13  and  C_14 
REMARK       I    between atoms: C_14  and  N_15 
REMARK    4  A    between atoms: N_15  and  C_16 
REMARK    5  A    between atoms: C_16  and  C_17 
REMARK    6  A    between atoms: C_24  and  C_25 
ROOT
HETATM    1  C   UNL     1      40.709 -13.129   4.272  1.00  0.00     0.118 C 
HETATM    2  N   UNL     1      41.126 -14.504   4.571  1.00  0.00    -0.365 N 
HETATM    3  C   UNL     1      41.169 -15.417   3.560  1.00  0.00     0.138 A 
HETATM    4  N   UNL     1      40.597 -15.130   2.337  1.00  0.00    -0.240 N 
HETATM    5  N   UNL     1      40.775 -16.085   1.417  1.00  0.00    -0.181 NA
HETATM    6  C   UNL     1      41.381 -17.058   2.101  1.00  0.00     0.160 A 
HETATM    7  C   UNL     1      41.663 -16.705   3.446  1.00  0.00     0.096 A 
HETATM    8  C   UNL     1      39.896 -13.898   2.022  1.00  0.00     0.221 C 
HETATM    9  C   UNL     1      39.507 -13.168   3.321  1.00  0.00     0.066 C 
HETATM   10  H   UNL     1      40.911 -14.814   5.521  1.00  0.00     0.161 HD
ENDROOT
BRANCH   7  11
HETATM   11  C   UNL     1      42.357 -17.557   4.391  1.00  0.00     0.257 C 
HETATM   12  N   UNL     1      43.706 -17.723   4.173  1.00  0.00    -0.352 N 
HETATM   13  H   UNL     1      44.071 -17.419   3.279  1.00  0.00     0.163 HD
HETATM   14  O   UNL     1      41.759 -18.117   5.304  1.00  0.00    -0.267 OA
BRANCH  12  15
HETATM   15  C   UNL     1      44.453 -18.693   4.938  1.00  0.00     0.161 C 
BRANCH  15  16
HETATM   16  C   UNL     1      44.555 -20.038   4.265  1.00  0.00    -0.041 A 
HETATM   17  C   UNL     1      44.723 -21.220   5.001  1.00  0.00     0.009 A 
HETATM   18  C   UNL     1      44.725 -22.462   4.361  1.00  0.00     0.001 A 
HETATM   19  C   UNL     1      44.538 -22.539   2.984  1.00  0.00     0.000 A 
HETATM   20  C   UNL     1      44.352 -21.376   2.242  1.00  0.00     0.001 A 
HETATM   21  C   UNL     1      44.357 -20.133   2.878  1.00  0.00     0.009 A 
ENDBRANCH  15  16
ENDBRANCH  12  15
ENDBRANCH   7  11
BRANCH   1  22
HETATM   22  C   UNL     1      40.509 -12.350   5.559  1.00  0.00    -0.035 A 
HETATM   23  C   UNL     1      41.292 -11.203   5.783  1.00  0.00     0.012 A 
HETATM   24  C   UNL     1      41.103 -10.403   6.916  1.00  0.00     0.037 A 
HETATM   25  C   UNL     1      40.128 -10.736   7.852  1.00  0.00     0.068 A 
HETATM   26  C   UNL     1      39.374 -11.894   7.662  1.00  0.00     0.037 A 
HETATM   27  C   UNL     1      39.561 -12.696   6.531  1.00  0.00     0.012 A 
BRANCH  25  28
HETATM   28  O   UNL     1      39.822 -10.030   8.981  1.00  0.00    -0.356 OA
HETATM   29  C   UNL     1      38.995  -8.885   8.811  1.00  0.00     0.210 C 
ENDBRANCH  25  28
ENDBRANCH   1  22
BRANCH   8  30
HETATM   30  C   UNL     1      38.652 -14.135   1.191  1.00  0.00     0.409 C 
HETATM   31  F   UNL     1      38.929 -14.295  -0.122  1.00  0.00    -0.169 F 
HETATM   32  F   UNL     1      38.053 -15.289   1.599  1.00  0.00    -0.169 F 
HETATM   33  F   UNL     1      37.720 -13.169   1.320  1.00  0.00    -0.169 F 
ENDBRANCH   8  30
TORSDOF 6
ENDMDL
MODEL 5
REMARK VINA RESULT:      -8.3      3.920      7.960
REMARK  6 active torsions:
REMARK  status: ('A' for Active; 'I' for Inactive)
REMARK    1  A    between atoms: O_2  and  C_3 
REMARK    2  A    between atoms: C_6  and  C_7 
REMARK    3  A    between atoms: C_13  and  C_14 
REMARK       I    between atoms: C_14  and  N_15 
REMARK    4  A    between atoms: N_15  and  C_16 
REMARK    5  A    between atoms: C_16  and  C_17 
REMARK    6  A    between atoms: C_24  and  C_25 
ROOT
HETATM    1  C   UNL     1      43.147 -15.710   3.628  1.00  0.00     0.118 C 
HETATM    2  N   UNL     1      42.705 -15.070   2.384  1.00  0.00    -0.365 N 
HETATM    3  C   UNL     1      42.090 -13.855   2.447  1.00  0.00     0.138 A 
HETATM    4  N   UNL     1      41.666 -13.350   3.659  1.00  0.00    -0.240 N 
HETATM    5  N   UNL     1      41.145 -12.120   3.584  1.00  0.00    -0.181 NA
HETATM    6  C   UNL     1      41.134 -11.874   2.272  1.00  0.00     0.160 A 
HETATM    7  C   UNL     1      41.716 -12.915   1.502  1.00  0.00     0.096 A 
HETATM    8  C   UNL     1      41.794 -14.041   4.931  1.00  0.00     0.221 C 
HETATM    9  C   UNL     1      42.056 -15.539   4.691  1.00  0.00     0.066 C 
HETATM   10  H   UNL     1      42.456 -15.722   1.638  1.00  0.00     0.161 HD
ENDROOT
BRANCH   7  11
HETATM   11  C   UNL     1      41.875 -12.881   0.062  1.00  0.00     0.257 C 
HETATM   12  N   UNL     1      41.047 -13.716  -0.654  1.00  0.00    -0.352 N 
HETATM   13  H   UNL     1      40.545 -14.426  -0.135  1.00  0.00     0.163 HD
HETATM   14  O   UNL     1      42.723 -12.173  -0.470  1.00  0.00    -0.267 OA
BRANCH  12  15
HETATM   15  C   UNL     1      41.248 -13.899  -2.072  1.00  0.00     0.161 C 
BRANCH  15  16
HETATM   16  C   UNL     1      40.038 -14.451  -2.783  1.00  0.00    -0.041 A 
HETATM   17  C   UNL     1      38.853 -13.712  -2.904  1.00  0.00     0.009 A 
HETATM   18  C   UNL     1      37.778 -14.208  -3.644  1.00  0.00     0.001 A 
HETATM   19  C   UNL     1      37.881 -15.438  -4.290  1.00  0.00     0.000 A 
HETATM   20  C   UNL     1      39.059 -16.175  -4.194  1.00  0.00     0.001 A 
HETATM   21  C   UNL     1      40.131 -15.684  -3.448  1.00  0.00     0.009 A 
ENDBRANCH  15  16
ENDBRANCH  12  15
ENDBRANCH   7  11
BRANCH   1  22
HETATM   22  C   UNL     1      43.587 -17.136   3.357  1.00  0.00    -0.035 A 
HETATM   23  C   UNL     1      43.921 -17.959   4.447  1.00  0.00     0.012 A 
HETATM   24  C   UNL     1      44.265 -19.305   4.265  1.00  0.00     0.037 A 
HETATM   25  C   UNL     1      44.286 -19.853   2.986  1.00  0.00     0.068 A 
HETATM   26  C   UNL     1      43.998 -19.036   1.893  1.00  0.00     0.037 A 
HETATM   27  C   UNL     1      43.655 -17.692   2.072  1.00  0.00     0.012 A 
BRANCH  25  28
HETATM   28  O   UNL     1      44.575 -21.152   2.672  1.00  0.00    -0.356 OA
HETATM   29  C   UNL     1      43.770 -21.759   1.669  1.00  0.00     0.210 C 
ENDBRANCH  25  28
ENDBRANCH   1  22
BRANCH   8  30
HETATM   30  C   UNL     1      40.566 -13.881   5.803  1.00  0.00     0.409 C 
HETATM   31  F   UNL     1      40.590 -12.739   6.527  1.00  0.00    -0.169 F 
HETATM   32  F   UNL     1      39.459 -13.810   5.012  1.00  0.00    -0.169 F 
HETATM   33  F   UNL     1      40.356 -14.917   6.640  1.00  0.00    -0.169 F 
ENDBRANCH   8  30
TORSDOF 6
ENDMDL
MODEL 6
REMARK VINA RESULT:      -8.1      4.176      7.264
REMARK  6 active torsions:
REMARK  status: ('A' for Active; 'I' for Inactive)
REMARK    1  A    between atoms: O_2  and  C_3 
REMARK    2  A    between atoms: C_6  and  C_7 
REMARK    3  A    between atoms: C_13  and  C_14 
REMARK       I    between atoms: C_14  and  N_15 
REMARK    4  A    between atoms: N_15  and  C_16 
REMARK    5  A    between atoms: C_16  and  C_17 
REMARK    6  A    between atoms: C_24  and  C_25 
ROOT
HETATM    1  C   UNL     1      39.022 -13.371   1.687  1.00  0.00     0.118 C 
HETATM    2  N   UNL     1      39.843 -14.013   2.720  1.00  0.00    -0.365 N 
HETATM    3  C   UNL     1      39.761 -13.564   4.004  1.00  0.00     0.138 A 
HETATM    4  N   UNL     1      39.116 -12.377   4.288  1.00  0.00    -0.240 N 
HETATM    5  N   UNL     1      39.047 -12.094   5.593  1.00  0.00    -0.181 NA
HETATM    6  C   UNL     1      39.765 -13.070   6.154  1.00  0.00     0.160 A 
HETATM    7  C   UNL     1      40.236 -14.027   5.219  1.00  0.00     0.096 A 
HETATM    8  C   UNL     1      38.513 -11.507   3.293  1.00  0.00     0.221 C 
HETATM    9  C   UNL     1      39.056 -11.853   1.894  1.00  0.00     0.066 C 
HETATM   10  H   UNL     1      40.724 -14.403   2.378  1.00  0.00     0.161 HD
ENDROOT
BRANCH   7  11
HETATM   11  C   UNL     1      40.997 -15.211   5.566  1.00  0.00     0.257 C 
HETATM   12  N   UNL     1      42.293 -15.249   5.105  1.00  0.00    -0.352 N 
HETATM   13  H   UNL     1      42.555 -14.569   4.401  1.00  0.00     0.163 HD
HETATM   14  O   UNL     1      40.493 -16.129   6.204  1.00  0.00    -0.267 OA
BRANCH  12  15
HETATM   15  C   UNL     1      43.076 -16.456   5.232  1.00  0.00     0.161 C 
BRANCH  15  16
HETATM   16  C   UNL     1      43.383 -17.115   3.912  1.00  0.00    -0.041 A 
HETATM   17  C   UNL     1      43.584 -18.499   3.807  1.00  0.00     0.009 A 
HETATM   18  C   UNL     1      43.777 -19.098   2.561  1.00  0.00     0.001 A 
HETATM   19  C   UNL     1      43.752 -18.325   1.402  1.00  0.00     0.000 A 
HETATM   20  C   UNL     1      43.536 -16.952   1.488  1.00  0.00     0.001 A 
HETATM   21  C   UNL     1      43.349 -16.351   2.734  1.00  0.00     0.009 A 
ENDBRANCH  15  16
ENDBRANCH  12  15
ENDBRANCH   7  11
BRANCH   1  22
HETATM   22  C   UNL     1      39.434 -13.860   0.310  1.00  0.00    -0.035 A 
HETATM   23  C   UNL     1      40.603 -14.631   0.189  1.00  0.00     0.012 A 
HETATM   24  C   UNL     1      40.995 -15.171  -1.043  1.00  0.00     0.037 A 
HETATM   25  C   UNL     1      40.224 -14.945  -2.181  1.00  0.00     0.068 A 
HETATM   26  C   UNL     1      39.086 -14.146  -2.081  1.00  0.00     0.037 A 
HETATM   27  C   UNL     1      38.692 -13.606  -0.851  1.00  0.00     0.012 A 
BRANCH  25  28
HETATM   28  O   UNL     1      40.476 -15.433  -3.432  1.00  0.00    -0.356 OA
HETATM   29  C   UNL     1      39.360 -15.941  -4.153  1.00  0.00     0.210 C 
ENDBRANCH  25  28
ENDBRANCH   1  22
BRANCH   8  30
HETATM   30  C   UNL     1      38.763 -10.041   3.578  1.00  0.00     0.409 C 
HETATM   31  F   UNL     1      40.014  -9.808   4.036  1.00  0.00    -0.169 F 
HETATM   32  F   UNL     1      38.641  -9.331   2.422  1.00  0.00    -0.169 F 
HETATM   33  F   UNL     1      37.881  -9.497   4.441  1.00  0.00    -0.169 F 
ENDBRANCH   8  30
TORSDOF 6
ENDMDL
MODEL 7
REMARK VINA RESULT:      -8.0      3.704      8.107
REMARK  6 active torsions:
REMARK  status: ('A' for Active; 'I' for Inactive)
REMARK    1  A    between atoms: O_2  and  C_3 
REMARK    2  A    between atoms: C_6  and  C_7 
REMARK    3  A    between atoms: C_13  and  C_14 
REMARK       I    between atoms: C_14  and  N_15 
REMARK    4  A    between atoms: N_15  and  C_16 
REMARK    5  A    between atoms: C_16  and  C_17 
REMARK    6  A    between atoms: C_24  and  C_25 
ROOT
HETATM    1  C   UNL     1      42.749 -15.043   3.106  1.00  0.00     0.118 C 
HETATM    2  N   UNL     1      41.455 -14.844   2.445  1.00  0.00    -0.365 N 
HETATM    3  C   UNL     1      40.792 -13.667   2.628  1.00  0.00     0.138 A 
HETATM    4  N   UNL     1      41.200 -12.782   3.606  1.00  0.00    -0.240 N 
HETATM    5  N   UNL     1      40.507 -11.638   3.627  1.00  0.00    -0.181 NA
HETATM    6  C   UNL     1      39.557 -11.840   2.711  1.00  0.00     0.160 A 
HETATM    7  C   UNL     1      39.680 -13.086   2.043  1.00  0.00     0.096 A 
HETATM    8  C   UNL     1      42.304 -13.015   4.521  1.00  0.00     0.221 C 
HETATM    9  C   UNL     1      42.663 -14.512   4.542  1.00  0.00     0.066 C 
HETATM   10  H   UNL     1      40.923 -15.702   2.290  1.00  0.00     0.161 HD
ENDROOT
BRANCH   7  11
HETATM   11  C   UNL     1      38.812 -13.534   0.973  1.00  0.00     0.257 C 
HETATM   12  N   UNL     1      38.966 -12.892  -0.235  1.00  0.00    -0.352 N 
HETATM   13  H   UNL     1      39.510 -12.038  -0.240  1.00  0.00     0.163 HD
HETATM   14  O   UNL     1      37.971 -14.409   1.156  1.00  0.00    -0.267 OA
BRANCH  12  15
HETATM   15  C   UNL     1      38.031 -13.128  -1.310  1.00  0.00     0.161 C 
BRANCH  15  16
HETATM   16  C   UNL     1      38.528 -14.119  -2.331  1.00  0.00    -0.041 A 
HETATM   17  C   UNL     1      39.850 -14.586  -2.324  1.00  0.00     0.009 A 
HETATM   18  C   UNL     1      40.261 -15.571  -3.224  1.00  0.00     0.001 A 
HETATM   19  C   UNL     1      39.353 -16.116  -4.128  1.00  0.00     0.000 A 
HETATM   20  C   UNL     1      38.032 -15.676  -4.135  1.00  0.00     0.001 A 
HETATM   21  C   UNL     1      37.621 -14.686  -3.241  1.00  0.00     0.009 A 
ENDBRANCH  15  16
ENDBRANCH  12  15
ENDBRANCH   7  11
BRANCH   1  22
HETATM   22  C   UNL     1      43.196 -16.486   2.961  1.00  0.00    -0.035 A 
HETATM   23  C   UNL     1      43.475 -16.981   1.675  1.00  0.00     0.012 A 
HETATM   24  C   UNL     1      43.961 -18.281   1.485  1.00  0.00     0.037 A 
HETATM   25  C   UNL     1      44.173 -19.114   2.580  1.00  0.00     0.068 A 
HETATM   26  C   UNL     1      43.860 -18.649   3.856  1.00  0.00     0.037 A 
HETATM   27  C   UNL     1      43.375 -17.351   4.050  1.00  0.00     0.012 A 
BRANCH  25  28
HETATM   28  O   UNL     1      44.667 -20.388   2.537  1.00  0.00    -0.356 OA
HETATM   29  C   UNL     1      43.857 -21.362   1.891  1.00  0.00     0.210 C 
ENDBRANCH  25  28
ENDBRANCH   1  22
BRANCH   8  30
HETATM   30  C   UNL     1      41.994 -12.555   5.931  1.00  0.00     0.409 C 
HETATM   31  F   UNL     1      40.846 -13.084   6.408  1.00  0.00    -0.169 F 
HETATM   32  F   UNL     1      42.985 -12.973   6.767  1.00  0.00    -0.169 F 
HETATM   33  F   UNL     1      41.939 -11.214   6.065  1.00  0.00    -0.169 F 
ENDBRANCH   8  30
TORSDOF 6
ENDMDL
MODEL 8
REMARK VINA RESULT:      -8.0      3.298      5.358
REMARK  6 active torsions:
REMARK  status: ('A' for Active; 'I' for Inactive)
REMARK    1  A    between atoms: O_2  and  C_3 
REMARK    2  A    between atoms: C_6  and  C_7 
REMARK    3  A    between atoms: C_13  and  C_14 
REMARK       I    between atoms: C_14  and  N_15 
REMARK    4  A    between atoms: N_15  and  C_16 
REMARK    5  A    between atoms: C_16  and  C_17 
REMARK    6  A    between atoms: C_24  and  C_25 
ROOT
HETATM    1  C   UNL     1      42.055 -15.328   1.835  1.00  0.00     0.118 C 
HETATM    2  N   UNL     1      41.797 -14.520   3.032  1.00  0.00    -0.365 N 
HETATM    3  C   UNL     1      42.438 -14.834   4.193  1.00  0.00     0.138 A 
HETATM    4  N   UNL     1      43.119 -16.028   4.313  1.00  0.00    -0.240 N 
HETATM    5  N   UNL     1      43.760 -16.175   5.477  1.00  0.00    -0.181 NA
HETATM    6  C   UNL     1      43.389 -15.094   6.167  1.00  0.00     0.160 A 
HETATM    7  C   UNL     1      42.567 -14.209   5.422  1.00  0.00     0.096 A 
HETATM    8  C   UNL     1      43.194 -17.043   3.275  1.00  0.00     0.221 C 
HETATM    9  C   UNL     1      42.088 -16.809   2.231  1.00  0.00     0.066 C 
HETATM   10  H   UNL     1      40.864 -14.104   3.069  1.00  0.00     0.161 HD
ENDROOT
BRANCH   7  11
HETATM   11  C   UNL     1      42.066 -12.941   5.914  1.00  0.00     0.257 C 
HETATM   12  N   UNL     1      42.730 -12.413   6.998  1.00  0.00    -0.352 N 
HETATM   13  H   UNL     1      43.369 -13.024   7.493  1.00  0.00     0.163 HD
HETATM   14  O   UNL     1      41.089 -12.401   5.408  1.00  0.00    -0.267 OA
BRANCH  12  15
HETATM   15  C   UNL     1      42.202 -11.256   7.682  1.00  0.00     0.161 C 
BRANCH  15  16
HETATM   16  C   UNL     1      42.925 -10.935   8.966  1.00  0.00    -0.041 A 
HETATM   17  C   UNL     1      42.327 -10.170   9.977  1.00  0.00     0.009 A 
HETATM   18  C   UNL     1      42.981  -9.963  11.193  1.00  0.00     0.001 A 
HETATM   19  C   UNL     1      44.230 -10.534  11.421  1.00  0.00     0.000 A 
HETATM   20  C   UNL     1      44.829 -11.311  10.433  1.00  0.00     0.001 A 
HETATM   21  C   UNL     1      44.180 -11.513   9.215  1.00  0.00     0.009 A 
ENDBRANCH  15  16
ENDBRANCH  12  15
ENDBRANCH   7  11
BRANCH   1  22
HETATM   22  C   UNL     1      41.079 -14.960   0.733  1.00  0.00    -0.035 A 
HETATM   23  C   UNL     1      39.825 -14.431   1.089  1.00  0.00     0.012 A 
HETATM   24  C   UNL     1      38.912 -14.005   0.116  1.00  0.00     0.037 A 
HETATM   25  C   UNL     1      39.233 -14.105  -1.235  1.00  0.00     0.068 A 
HETATM   26  C   UNL     1      40.455 -14.668  -1.601  1.00  0.00     0.037 A 
HETATM   27  C   UNL     1      41.370 -15.094  -0.631  1.00  0.00     0.012 A 
BRANCH  25  28
HETATM   28  O   UNL     1      38.449 -13.704  -2.279  1.00  0.00    -0.356 OA
HETATM   29  C   UNL     1      38.137 -14.690  -3.256  1.00  0.00     0.210 C 
ENDBRANCH  25  28
ENDBRANCH   1  22
BRANCH   8  30
HETATM   30  C   UNL     1      43.070 -18.447   3.829  1.00  0.00     0.409 C 
HETATM   31  F   UNL     1      44.176 -18.839   4.499  1.00  0.00    -0.169 F 
HETATM   32  F   UNL     1      42.044 -18.488   4.725  1.00  0.00    -0.169 F 
HETATM   33  F   UNL     1      42.781 -19.376   2.894  1.00  0.00    -0.169 F 
ENDBRANCH   8  30
TORSDOF 6
ENDMDL
MODEL 9
REMARK VINA RESULT:      -7.9      3.489      8.644
REMARK  6 active torsions:
REMARK  status: ('A' for Active; 'I' for Inactive)
REMARK    1  A    between atoms: O_2  and  C_3 
REMARK    2  A    between atoms: C_6  and  C_7 
REMARK    3  A    between atoms: C_13  and  C_14 
REMARK       I    between atoms: C_14  and  N_15 
REMARK    4  A    between atoms: N_15  and  C_16 
REMARK    5  A    between atoms: C_16  and  C_17 
REMARK    6  A    between atoms: C_24  and  C_25 
ROOT
HETATM    1  C   UNL     1      42.586 -16.193   4.740  1.00  0.00     0.118 C 
HETATM    2  N   UNL     1      42.019 -15.524   3.564  1.00  0.00    -0.365 N 
HETATM    3  C   UNL     1      41.626 -16.278   2.499  1.00  0.00     0.138 A 
HETATM    4  N   UNL     1      41.979 -17.610   2.420  1.00  0.00    -0.240 N 
HETATM    5  N   UNL     1      41.467 -18.246   1.360  1.00  0.00    -0.181 NA
HETATM    6  C   UNL     1      40.860 -17.269   0.683  1.00  0.00     0.160 A 
HETATM    7  C   UNL     1      40.915 -16.013   1.341  1.00  0.00     0.096 A 
HETATM    8  C   UNL     1      42.795 -18.307   3.399  1.00  0.00     0.221 C 
HETATM    9  C   UNL     1      43.551 -17.290   4.273  1.00  0.00     0.066 C 
HETATM   10  H   UNL     1      42.367 -14.576   3.409  1.00  0.00     0.161 HD
ENDROOT
BRANCH   7  11
HETATM   11  C   UNL     1      40.296 -14.799   0.849  1.00  0.00     0.257 C 
HETATM   12  N   UNL     1      39.876 -14.827  -0.462  1.00  0.00    -0.352 N 
HETATM   13  H   UNL     1      40.204 -15.593  -1.037  1.00  0.00     0.163 HD
HETATM   14  O   UNL     1      40.190 -13.803   1.557  1.00  0.00    -0.267 OA
BRANCH  12  15
HETATM   15  C   UNL     1      39.418 -13.618  -1.106  1.00  0.00     0.161 C 
BRANCH  15  16
HETATM   16  C   UNL     1      40.471 -12.957  -1.959  1.00  0.00    -0.041 A 
HETATM   17  C   UNL     1      41.809 -13.378  -1.938  1.00  0.00     0.009 A 
HETATM   18  C   UNL     1      42.746 -12.810  -2.803  1.00  0.00     0.001 A 
HETATM   19  C   UNL     1      42.356 -11.829  -3.711  1.00  0.00     0.000 A 
HETATM   20  C   UNL     1      41.028 -11.413  -3.756  1.00  0.00     0.001 A 
HETATM   21  C   UNL     1      40.091 -11.975  -2.887  1.00  0.00     0.009 A 
ENDBRANCH  15  16
ENDBRANCH  12  15
ENDBRANCH   7  11
BRANCH   1  22
HETATM   22  C   UNL     1      43.165 -15.169   5.699  1.00  0.00    -0.035 A 
HETATM   23  C   UNL     1      42.663 -13.855   5.669  1.00  0.00     0.012 A 
HETATM   24  C   UNL     1      43.106 -12.886   6.577  1.00  0.00     0.037 A 
HETATM   25  C   UNL     1      44.065 -13.211   7.533  1.00  0.00     0.068 A 
HETATM   26  C   UNL     1      44.601 -14.498   7.545  1.00  0.00     0.037 A 
HETATM   27  C   UNL     1      44.160 -15.469   6.639  1.00  0.00     0.012 A 
BRANCH  25  28
HETATM   28  O   UNL     1      44.561 -12.372   8.491  1.00  0.00    -0.356 OA
HETATM   29  C   UNL     1      45.976 -12.231   8.542  1.00  0.00     0.210 C 
ENDBRANCH  25  28
ENDBRANCH   1  22
BRANCH   8  30
HETATM   30  C   UNL     1      43.791 -19.251   2.756  1.00  0.00     0.409 C 
HETATM   31  F   UNL     1      44.495 -18.663   1.763  1.00  0.00    -0.169 F 
HETATM   32  F   UNL     1      44.701 -19.646   3.689  1.00  0.00    -0.169 F 
HETATM   33  F   UNL     1      43.236 -20.383   2.278  1.00  0.00    -0.169 F 
ENDBRANCH   8  30
TORSDOF 6
ENDMDL
MODEL 10
REMARK VINA RESULT:      -7.9      3.966      8.611
REMARK  6 active torsions:
REMARK  status: ('A' for Active; 'I' for Inactive)
REMARK    1  A    between atoms: O_2  and  C_3 
REMARK    2  A    between atoms: C_6  and  C_7 
REMARK    3  A    between atoms: C_13  and  C_14 
REMARK       I    between atoms: C_14  and  N_15 
REMARK    4  A    between atoms: N_15  and  C_16 
REMARK    5  A    between atoms: C_16  and  C_17 
REMARK    6  A    between atoms: C_24  and  C_25 
ROOT
HETATM    1  C   UNL     1      39.319 -14.210   2.132  1.00  0.00     0.118 C 
HETATM    2  N   UNL     1      40.574 -14.966   2.064  1.00  0.00    -0.365 N 
HETATM    3  C   UNL     1      41.199 -15.317   3.223  1.00  0.00     0.138 A 
HETATM    4  N   UNL     1      40.802 -14.765   4.424  1.00  0.00    -0.240 N 
HETATM    5  N   UNL     1      41.452 -15.251   5.487  1.00  0.00    -0.181 NA
HETATM    6  C   UNL     1      42.367 -16.056   4.943  1.00  0.00     0.160 A 
HETATM    7  C   UNL     1      42.262 -16.149   3.531  1.00  0.00     0.096 A 
HETATM    8  C   UNL     1      39.749 -13.775   4.569  1.00  0.00     0.221 C 
HETATM    9  C   UNL     1      39.448 -13.124   3.207  1.00  0.00     0.066 C 
HETATM   10  H   UNL     1      41.131 -14.787   1.226  1.00  0.00     0.161 HD
ENDROOT
BRANCH   7  11
HETATM   11  C   UNL     1      43.099 -16.989   2.698  1.00  0.00     0.257 C 
HETATM   12  N   UNL     1      42.790 -18.331   2.697  1.00  0.00    -0.352 N 
HETATM   13  H   UNL     1      42.155 -18.661   3.414  1.00  0.00     0.163 HD
HETATM   14  O   UNL     1      44.042 -16.525   2.066  1.00  0.00    -0.267 OA
BRANCH  12  15
HETATM   15  C   UNL     1      43.669 -19.279   2.054  1.00  0.00     0.161 C 
BRANCH  15  16
HETATM   16  C   UNL     1      44.169 -20.359   2.980  1.00  0.00    -0.041 A 
HETATM   17  C   UNL     1      44.411 -20.111   4.339  1.00  0.00     0.009 A 
HETATM   18  C   UNL     1      44.787 -21.148   5.195  1.00  0.00     0.001 A 
HETATM   19  C   UNL     1      44.906 -22.447   4.709  1.00  0.00     0.000 A 
HETATM   20  C   UNL     1      44.652 -22.713   3.366  1.00  0.00     0.001 A 
HETATM   21  C   UNL     1      44.283 -21.676   2.507  1.00  0.00     0.009 A 
ENDBRANCH  15  16
ENDBRANCH  12  15
ENDBRANCH   7  11
BRANCH   1  22
HETATM   22  C   UNL     1      38.920 -13.728   0.750  1.00  0.00    -0.035 A 
HETATM   23  C   UNL     1      39.687 -14.138  -0.356  1.00  0.00     0.012 A 
HETATM   24  C   UNL     1      39.326 -13.785  -1.662  1.00  0.00     0.037 A 
HETATM   25  C   UNL     1      38.192 -13.010  -1.889  1.00  0.00     0.068 A 
HETATM   26  C   UNL     1      37.448 -12.562  -0.798  1.00  0.00     0.037 A 
HETATM   27  C   UNL     1      37.806 -12.913   0.509  1.00  0.00     0.012 A 
BRANCH  25  28
HETATM   28  O   UNL     1      37.715 -12.621  -3.109  1.00  0.00    -0.356 OA
HETATM   29  C   UNL     1      36.582 -11.760  -3.104  1.00  0.00     0.210 C 
ENDBRANCH  25  28
ENDBRANCH   1  22
BRANCH   8  30
HETATM   30  C   UNL     1      40.103 -12.695   5.571  1.00  0.00     0.409 C 
HETATM   31  F   UNL     1      39.859 -13.072   6.846  1.00  0.00    -0.169 F 
HETATM   32  F   UNL     1      41.438 -12.434   5.497  1.00  0.00    -0.169 F 
HETATM   33  F   UNL     1      39.482 -11.519   5.344  1.00  0.00    -0.169 F 
ENDBRANCH   8  30
TORSDOF 6
ENDMDL
