MODEL 1
REMARK VINA RESULT:      -8.1      0.000      0.000
REMARK  4 active torsions:
REMARK  status: ('A' for Active; 'I' for Inactive)
REMARK    1  A    between atoms: C_4  and  N_5 
REMARK    2  A    between atoms: N_5  and  C_6 
REMARK    3  A    between atoms: C_6  and  N_7 
REMARK       I    between atoms: N_7  and  C_8 
REMARK    4  A    between atoms: C_8  and  C_9 
ROOT
HETATM    1  N   UNL     1      41.335 -16.820   3.085  1.00  0.00    -0.299 N 
HETATM    2  C   UNL     1      42.147 -17.373   2.100  1.00  0.00     0.257 C 
HETATM    3  O   UNL     1      42.170 -17.076   0.914  1.00  0.00    -0.267 OA
HETATM    4  H   UNL     1      41.262 -17.358   3.945  1.00  0.00     0.171 HD
ENDROOT
BRANCH   1   5
HETATM    5  C   UNL     1      40.629 -15.637   3.146  1.00  0.00     0.180 C 
HETATM    6  S   UNL     1      39.488 -15.090   2.057  1.00  0.00    -0.040 SA
BRANCH   5   7
HETATM    7  N   UNL     1      40.923 -14.818   4.212  1.00  0.00    -0.318 N 
HETATM    8  H   UNL     1      40.236 -14.093   4.376  1.00  0.00     0.170 HD
BRANCH   7   9
HETATM    9  C   UNL     1      42.017 -14.883   5.089  1.00  0.00     0.129 A 
HETATM   10  C   UNL     1      42.045 -15.907   6.028  1.00  0.00     0.057 A 
HETATM   11  C   UNL     1      43.134 -16.001   6.901  1.00  0.00    -0.057 A 
HETATM   12  C   UNL     1      43.207 -17.079   7.941  1.00  0.00     0.048 C 
HETATM   13  C   UNL     1      44.157 -15.060   6.798  1.00  0.00     0.026 A 
HETATM   14  C   UNL     1      44.046 -14.070   5.838  1.00  0.00     0.119 A 
HETATM   15  N   UNL     1      42.998 -13.956   4.993  1.00  0.00    -0.243 NA
ENDBRANCH   7   9
ENDBRANCH   5   7
ENDBRANCH   1   5
BRANCH   2  16
HETATM   16  C   UNL     1      42.964 -18.515   2.588  1.00  0.00     0.033 A 
HETATM   17  C   UNL     1      43.566 -18.432   3.847  1.00  0.00     0.023 A 
HETATM   18  C   UNL     1      44.379 -19.476   4.303  1.00  0.00    -0.061 A 
HETATM   19  C   UNL     1      45.055 -19.396   5.640  1.00  0.00     0.048 C 
HETATM   20  C   UNL     1      44.552 -20.615   3.500  1.00  0.00     0.013 A 
HETATM   21  C   UNL     1      43.928 -20.718   2.249  1.00  0.00    -0.061 A 
HETATM   22  C   UNL     1      44.096 -21.943   1.399  1.00  0.00     0.048 C 
HETATM   23  C   UNL     1      43.135 -19.658   1.796  1.00  0.00     0.023 A 
ENDBRANCH   2  16
TORSDOF 4
ENDMDL
MODEL 2
REMARK VINA RESULT:      -7.8      2.807      4.831
REMARK  4 active torsions:
REMARK  status: ('A' for Active; 'I' for Inactive)
REMARK    1  A    between atoms: C_4  and  N_5 
REMARK    2  A    between atoms: N_5  and  C_6 
REMARK    3  A    between atoms: C_6  and  N_7 
REMARK       I    between atoms: N_7  and  C_8 
REMARK    4  A    between atoms: C_8  and  C_9 
ROOT
HETATM    1  N   UNL     1      41.028 -16.882   2.951  1.00  0.00    -0.299 N 
HETATM    2  C   UNL     1      41.864 -17.445   1.992  1.00  0.00     0.257 C 
HETATM    3  O   UNL     1      41.841 -17.241   0.787  1.00  0.00    -0.267 OA
HETATM    4  H   UNL     1      41.014 -17.354   3.852  1.00  0.00     0.171 HD
ENDROOT
BRANCH   1   5
HETATM    5  C   UNL     1      40.231 -15.757   2.938  1.00  0.00     0.180 C 
HETATM    6  S   UNL     1      40.280 -14.479   4.013  1.00  0.00    -0.040 SA
BRANCH   5   7
HETATM    7  N   UNL     1      39.283 -15.704   1.943  1.00  0.00    -0.318 N 
HETATM    8  H   UNL     1      38.685 -16.520   1.901  1.00  0.00     0.170 HD
BRANCH   7   9
HETATM    9  C   UNL     1      39.037 -14.675   1.023  1.00  0.00     0.129 A 
HETATM   10  C   UNL     1      37.884 -13.914   1.183  1.00  0.00     0.057 A 
HETATM   11  C   UNL     1      37.627 -12.870   0.288  1.00  0.00    -0.057 A 
HETATM   12  C   UNL     1      36.392 -12.028   0.408  1.00  0.00     0.048 C 
HETATM   13  C   UNL     1      38.540 -12.629  -0.739  1.00  0.00     0.026 A 
HETATM   14  C   UNL     1      39.658 -13.438  -0.828  1.00  0.00     0.119 A 
HETATM   15  N   UNL     1      39.919 -14.457   0.020  1.00  0.00    -0.243 NA
ENDBRANCH   7   9
ENDBRANCH   5   7
ENDBRANCH   1   5
BRANCH   2  16
HETATM   16  C   UNL     1      42.778 -18.478   2.547  1.00  0.00     0.033 A 
HETATM   17  C   UNL     1      43.394 -18.249   3.781  1.00  0.00     0.023 A 
HETATM   18  C   UNL     1      44.296 -19.187   4.297  1.00  0.00    -0.061 A 
HETATM   19  C   UNL     1      44.985 -18.950   5.608  1.00  0.00     0.048 C 
HETATM   20  C   UNL     1      44.545 -20.368   3.580  1.00  0.00     0.013 A 
HETATM   21  C   UNL     1      43.911 -20.617   2.355  1.00  0.00    -0.061 A 
HETATM   22  C   UNL     1      44.162 -21.888   1.598  1.00  0.00     0.048 C 
HETATM   23  C   UNL     1      43.027 -19.662   1.841  1.00  0.00     0.023 A 
ENDBRANCH   2  16
TORSDOF 4
ENDMDL
MODEL 3
REMARK VINA RESULT:      -7.7      2.742      5.116
REMARK  4 active torsions:
REMARK  status: ('A' for Active; 'I' for Inactive)
REMARK    1  A    between atoms: C_4  and  N_5 
REMARK    2  A    between atoms: N_5  and  C_6 
REMARK    3  A    between atoms: C_6  and  N_7 
REMARK       I    between atoms: N_7  and  C_8 
REMARK    4  A    between atoms: C_8  and  C_9 
ROOT
HETATM    1  N   UNL     1      41.155 -16.776   3.179  1.00  0.00    -0.299 N 
HETATM    2  C   UNL     1      41.749 -17.529   2.173  1.00  0.00     0.257 C 
HETATM    3  O   UNL     1      41.463 -17.524   0.984  1.00  0.00    -0.267 OA
HETATM    4  H   UNL     1      41.335 -17.094   4.129  1.00  0.00     0.171 HD
ENDROOT
BRANCH   1   5
HETATM    5  C   UNL     1      40.390 -15.629   3.149  1.00  0.00     0.180 C 
HETATM    6  S   UNL     1      40.540 -14.295   4.141  1.00  0.00    -0.040 SA
BRANCH   5   7
HETATM    7  N   UNL     1      39.384 -15.604   2.211  1.00  0.00    -0.318 N 
HETATM    8  H   UNL     1      38.737 -16.380   2.280  1.00  0.00     0.170 HD
BRANCH   7   9
HETATM    9  C   UNL     1      39.140 -14.647   1.215  1.00  0.00     0.129 A 
HETATM   10  C   UNL     1      37.988 -13.875   1.315  1.00  0.00     0.057 A 
HETATM   11  C   UNL     1      37.734 -12.901   0.343  1.00  0.00    -0.057 A 
HETATM   12  C   UNL     1      36.500 -12.051   0.398  1.00  0.00     0.048 C 
HETATM   13  C   UNL     1      38.648 -12.740  -0.697  1.00  0.00     0.026 A 
HETATM   14  C   UNL     1      39.766 -13.554  -0.724  1.00  0.00     0.119 A 
HETATM   15  N   UNL     1      40.024 -14.506   0.200  1.00  0.00    -0.243 NA
ENDBRANCH   7   9
ENDBRANCH   5   7
ENDBRANCH   1   5
BRANCH   2  16
HETATM   16  C   UNL     1      42.751 -18.503   2.683  1.00  0.00     0.033 A 
HETATM   17  C   UNL     1      43.024 -19.652   1.937  1.00  0.00     0.023 A 
HETATM   18  C   UNL     1      43.926 -20.604   2.425  1.00  0.00    -0.061 A 
HETATM   19  C   UNL     1      44.216 -21.857   1.651  1.00  0.00     0.048 C 
HETATM   20  C   UNL     1      44.575 -20.374   3.648  1.00  0.00     0.013 A 
HETATM   21  C   UNL     1      44.328 -19.210   4.389  1.00  0.00    -0.061 A 
HETATM   22  C   UNL     1      45.035 -18.954   5.687  1.00  0.00     0.048 C 
HETATM   23  C   UNL     1      43.407 -18.277   3.900  1.00  0.00     0.023 A 
ENDBRANCH   2  16
TORSDOF 4
ENDMDL
MODEL 4
REMARK VINA RESULT:      -7.7      2.646      5.107
REMARK  4 active torsions:
REMARK  status: ('A' for Active; 'I' for Inactive)
REMARK    1  A    between atoms: C_4  and  N_5 
REMARK    2  A    between atoms: N_5  and  C_6 
REMARK    3  A    between atoms: C_6  and  N_7 
REMARK       I    between atoms: N_7  and  C_8 
REMARK    4  A    between atoms: C_8  and  C_9 
ROOT
HETATM    1  N   UNL     1      41.264 -16.670   3.287  1.00  0.00    -0.299 N 
HETATM    2  C   UNL     1      41.716 -17.531   2.293  1.00  0.00     0.257 C 
HETATM    3  O   UNL     1      41.292 -17.621   1.150  1.00  0.00    -0.267 OA
HETATM    4  H   UNL     1      41.546 -16.908   4.235  1.00  0.00     0.171 HD
ENDROOT
BRANCH   1   5
HETATM    5  C   UNL     1      40.531 -15.503   3.238  1.00  0.00     0.180 C 
HETATM    6  S   UNL     1      40.858 -14.076   4.042  1.00  0.00    -0.040 SA
BRANCH   5   7
HETATM    7  N   UNL     1      39.399 -15.538   2.458  1.00  0.00    -0.318 N 
HETATM    8  H   UNL     1      38.692 -16.184   2.788  1.00  0.00     0.170 HD
BRANCH   7   9
HETATM    9  C   UNL     1      39.104 -14.790   1.309  1.00  0.00     0.129 A 
HETATM   10  C   UNL     1      40.134 -14.531   0.412  1.00  0.00     0.057 A 
HETATM   11  C   UNL     1      39.859 -13.802  -0.750  1.00  0.00    -0.057 A 
HETATM   12  C   UNL     1      40.937 -13.484  -1.743  1.00  0.00     0.048 C 
HETATM   13  C   UNL     1      38.556 -13.358  -0.968  1.00  0.00     0.026 A 
HETATM   14  C   UNL     1      37.592 -13.655  -0.021  1.00  0.00     0.119 A 
HETATM   15  N   UNL     1      37.840 -14.349   1.111  1.00  0.00    -0.243 NA
ENDBRANCH   7   9
ENDBRANCH   5   7
ENDBRANCH   1   5
BRANCH   2  16
HETATM   16  C   UNL     1      42.745 -18.491   2.774  1.00  0.00     0.033 A 
HETATM   17  C   UNL     1      43.025 -19.627   2.009  1.00  0.00     0.023 A 
HETATM   18  C   UNL     1      43.954 -20.567   2.469  1.00  0.00    -0.061 A 
HETATM   19  C   UNL     1      44.252 -21.805   1.675  1.00  0.00     0.048 C 
HETATM   20  C   UNL     1      44.622 -20.338   3.682  1.00  0.00     0.013 A 
HETATM   21  C   UNL     1      44.367 -19.188   4.441  1.00  0.00    -0.061 A 
HETATM   22  C   UNL     1      45.094 -18.932   5.728  1.00  0.00     0.048 C 
HETATM   23  C   UNL     1      43.420 -18.266   3.981  1.00  0.00     0.023 A 
ENDBRANCH   2  16
TORSDOF 4
ENDMDL
MODEL 5
REMARK VINA RESULT:      -7.6      3.160      5.337
REMARK  4 active torsions:
REMARK  status: ('A' for Active; 'I' for Inactive)
REMARK    1  A    between atoms: C_4  and  N_5 
REMARK    2  A    between atoms: N_5  and  C_6 
REMARK    3  A    between atoms: C_6  and  N_7 
REMARK       I    between atoms: N_7  and  C_8 
REMARK    4  A    between atoms: C_8  and  C_9 
ROOT
HETATM    1  N   UNL     1      41.729 -16.310   2.475  1.00  0.00    -0.299 N 
HETATM    2  C   UNL     1      41.760 -17.574   1.896  1.00  0.00     0.257 C 
HETATM    3  O   UNL     1      41.011 -18.005   1.032  1.00  0.00    -0.267 OA
HETATM    4  H   UNL     1      42.245 -16.213   3.346  1.00  0.00     0.171 HD
ENDROOT
BRANCH   1   5
HETATM    5  C   UNL     1      41.161 -15.120   2.070  1.00  0.00     0.180 C 
HETATM    6  S   UNL     1      39.662 -14.523   2.504  1.00  0.00    -0.040 SA
BRANCH   5   7
HETATM    7  N   UNL     1      41.909 -14.365   1.197  1.00  0.00    -0.318 N 
HETATM    8  H   UNL     1      42.728 -13.943   1.616  1.00  0.00     0.170 HD
BRANCH   7   9
HETATM    9  C   UNL     1      41.691 -14.136  -0.170  1.00  0.00     0.129 A 
HETATM   10  C   UNL     1      41.137 -15.162  -0.926  1.00  0.00     0.057 A 
HETATM   11  C   UNL     1      40.894 -14.950  -2.288  1.00  0.00    -0.057 A 
HETATM   12  C   UNL     1      40.310 -16.028  -3.151  1.00  0.00     0.048 C 
HETATM   13  C   UNL     1      41.220 -13.712  -2.840  1.00  0.00     0.026 A 
HETATM   14  C   UNL     1      41.774 -12.749  -2.017  1.00  0.00     0.119 A 
HETATM   15  N   UNL     1      42.025 -12.938  -0.703  1.00  0.00    -0.243 NA
ENDBRANCH   7   9
ENDBRANCH   5   7
ENDBRANCH   1   5
BRANCH   2  16
HETATM   16  C   UNL     1      42.760 -18.479   2.522  1.00  0.00     0.033 A 
HETATM   17  C   UNL     1      43.087 -19.678   1.882  1.00  0.00     0.023 A 
HETATM   18  C   UNL     1      43.989 -20.566   2.479  1.00  0.00    -0.061 A 
HETATM   19  C   UNL     1      44.335 -21.869   1.821  1.00  0.00     0.048 C 
HETATM   20  C   UNL     1      44.584 -20.222   3.704  1.00  0.00     0.013 A 
HETATM   21  C   UNL     1      44.283 -19.009   4.338  1.00  0.00    -0.061 A 
HETATM   22  C   UNL     1      44.934 -18.632   5.636  1.00  0.00     0.048 C 
HETATM   23  C   UNL     1      43.364 -18.140   3.740  1.00  0.00     0.023 A 
ENDBRANCH   2  16
TORSDOF 4
ENDMDL
MODEL 6
REMARK VINA RESULT:      -7.5      3.460      5.419
REMARK  4 active torsions:
REMARK  status: ('A' for Active; 'I' for Inactive)
REMARK    1  A    between atoms: C_4  and  N_5 
REMARK    2  A    between atoms: N_5  and  C_6 
REMARK    3  A    between atoms: C_6  and  N_7 
REMARK       I    between atoms: N_7  and  C_8 
REMARK    4  A    between atoms: C_8  and  C_9 
ROOT
HETATM    1  N   UNL     1      41.790 -16.706   1.850  1.00  0.00    -0.299 N 
HETATM    2  C   UNL     1      43.145 -16.825   2.141  1.00  0.00     0.257 C 
HETATM    3  O   UNL     1      44.023 -16.010   1.896  1.00  0.00    -0.267 OA
HETATM    4  H   UNL     1      41.257 -17.572   1.884  1.00  0.00     0.171 HD
ENDROOT
BRANCH   1   5
HETATM    5  C   UNL     1      40.997 -15.616   1.562  1.00  0.00     0.180 C 
HETATM    6  S   UNL     1      39.436 -15.341   2.088  1.00  0.00    -0.040 SA
BRANCH   5   7
HETATM    7  N   UNL     1      41.554 -14.671   0.731  1.00  0.00    -0.318 N 
HETATM    8  H   UNL     1      42.085 -13.958   1.217  1.00  0.00     0.170 HD
BRANCH   7   9
HETATM    9  C   UNL     1      41.499 -14.594  -0.668  1.00  0.00     0.129 A 
HETATM   10  C   UNL     1      41.943 -13.428  -1.279  1.00  0.00     0.057 A 
HETATM   11  C   UNL     1      41.914 -13.335  -2.675  1.00  0.00    -0.057 A 
HETATM   12  C   UNL     1      42.369 -12.095  -3.383  1.00  0.00     0.048 C 
HETATM   13  C   UNL     1      41.437 -14.422  -3.407  1.00  0.00     0.026 A 
HETATM   14  C   UNL     1      41.009 -15.543  -2.718  1.00  0.00     0.119 A 
HETATM   15  N   UNL     1      41.020 -15.647  -1.372  1.00  0.00    -0.243 NA
ENDBRANCH   7   9
ENDBRANCH   5   7
ENDBRANCH   1   5
BRANCH   2  16
HETATM   16  C   UNL     1      43.508 -18.152   2.705  1.00  0.00     0.033 A 
HETATM   17  C   UNL     1      43.768 -18.261   4.074  1.00  0.00     0.023 A 
HETATM   18  C   UNL     1      44.160 -19.491   4.615  1.00  0.00    -0.061 A 
HETATM   19  C   UNL     1      44.466 -19.624   6.078  1.00  0.00     0.048 C 
HETATM   20  C   UNL     1      44.253 -20.613   3.777  1.00  0.00     0.013 A 
HETATM   21  C   UNL     1      43.967 -20.518   2.408  1.00  0.00    -0.061 A 
HETATM   22  C   UNL     1      44.048 -21.721   1.515  1.00  0.00     0.048 C 
HETATM   23  C   UNL     1      43.597 -19.278   1.876  1.00  0.00     0.023 A 
ENDBRANCH   2  16
TORSDOF 4
ENDMDL
MODEL 7
REMARK VINA RESULT:      -7.5      3.353      5.272
REMARK  4 active torsions:
REMARK  status: ('A' for Active; 'I' for Inactive)
REMARK    1  A    between atoms: C_4  and  N_5 
REMARK    2  A    between atoms: N_5  and  C_6 
REMARK    3  A    between atoms: C_6  and  N_7 
REMARK       I    between atoms: N_7  and  C_8 
REMARK    4  A    between atoms: C_8  and  C_9 
ROOT
HETATM    1  N   UNL     1      42.259 -16.008   2.364  1.00  0.00    -0.299 N 
HETATM    2  C   UNL     1      41.906 -17.293   1.966  1.00  0.00     0.257 C 
HETATM    3  O   UNL     1      40.933 -17.614   1.300  1.00  0.00    -0.267 OA
HETATM    4  H   UNL     1      42.938 -15.954   3.120  1.00  0.00     0.171 HD
ENDROOT
BRANCH   1   5
HETATM    5  C   UNL     1      41.898 -14.762   1.896  1.00  0.00     0.180 C 
HETATM    6  S   UNL     1      42.462 -13.285   2.434  1.00  0.00    -0.040 SA
BRANCH   5   7
HETATM    7  N   UNL     1      40.955 -14.747   0.895  1.00  0.00    -0.318 N 
HETATM    8  H   UNL     1      40.006 -14.881   1.222  1.00  0.00     0.170 HD
BRANCH   7   9
HETATM    9  C   UNL     1      41.142 -14.548  -0.481  1.00  0.00     0.129 A 
HETATM   10  C   UNL     1      40.417 -15.342  -1.362  1.00  0.00     0.057 A 
HETATM   11  C   UNL     1      40.574 -15.149  -2.739  1.00  0.00    -0.057 A 
HETATM   12  C   UNL     1      39.826 -15.987  -3.733  1.00  0.00     0.048 C 
HETATM   13  C   UNL     1      41.457 -14.164  -3.180  1.00  0.00     0.026 A 
HETATM   14  C   UNL     1      42.144 -13.424  -2.235  1.00  0.00     0.119 A 
HETATM   15  N   UNL     1      42.013 -13.602  -0.902  1.00  0.00    -0.243 NA
ENDBRANCH   7   9
ENDBRANCH   5   7
ENDBRANCH   1   5
BRANCH   2  16
HETATM   16  C   UNL     1      42.784 -18.345   2.542  1.00  0.00     0.033 A 
HETATM   17  C   UNL     1      43.399 -18.119   3.776  1.00  0.00     0.023 A 
HETATM   18  C   UNL     1      44.267 -19.077   4.311  1.00  0.00    -0.061 A 
HETATM   19  C   UNL     1      44.956 -18.842   5.624  1.00  0.00     0.048 C 
HETATM   20  C   UNL     1      44.483 -20.275   3.613  1.00  0.00     0.013 A 
HETATM   21  C   UNL     1      43.849 -20.522   2.388  1.00  0.00    -0.061 A 
HETATM   22  C   UNL     1      44.064 -21.811   1.651  1.00  0.00     0.048 C 
HETATM   23  C   UNL     1      42.999 -19.547   1.854  1.00  0.00     0.023 A 
ENDBRANCH   2  16
TORSDOF 4
ENDMDL
MODEL 8
REMARK VINA RESULT:      -7.3      1.927      3.394
REMARK  4 active torsions:
REMARK  status: ('A' for Active; 'I' for Inactive)
REMARK    1  A    between atoms: C_4  and  N_5 
REMARK    2  A    between atoms: N_5  and  C_6 
REMARK    3  A    between atoms: C_6  and  N_7 
REMARK       I    between atoms: N_7  and  C_8 
REMARK    4  A    between atoms: C_8  and  C_9 
ROOT
HETATM    1  N   UNL     1      41.956 -17.064   1.576  1.00  0.00    -0.299 N 
HETATM    2  C   UNL     1      43.247 -17.046   2.094  1.00  0.00     0.257 C 
HETATM    3  O   UNL     1      44.064 -16.142   1.998  1.00  0.00    -0.267 OA
HETATM    4  H   UNL     1      41.518 -17.981   1.524  1.00  0.00     0.171 HD
ENDROOT
BRANCH   1   5
HETATM    5  C   UNL     1      41.115 -16.059   1.150  1.00  0.00     0.180 C 
HETATM    6  S   UNL     1      41.208 -15.210  -0.285  1.00  0.00    -0.040 SA
BRANCH   5   7
HETATM    7  N   UNL     1      40.108 -15.710   2.021  1.00  0.00    -0.318 N 
HETATM    8  H   UNL     1      39.181 -15.958   1.698  1.00  0.00     0.170 HD
BRANCH   7   9
HETATM    9  C   UNL     1      40.212 -15.094   3.277  1.00  0.00     0.129 A 
HETATM   10  C   UNL     1      39.695 -13.812   3.423  1.00  0.00     0.057 A 
HETATM   11  C   UNL     1      39.771 -13.185   4.672  1.00  0.00    -0.057 A 
HETATM   12  C   UNL     1      39.240 -11.798   4.880  1.00  0.00     0.048 C 
HETATM   13  C   UNL     1      40.366 -13.872   5.729  1.00  0.00     0.026 A 
HETATM   14  C   UNL     1      40.860 -15.142   5.495  1.00  0.00     0.119 A 
HETATM   15  N   UNL     1      40.805 -15.760   4.295  1.00  0.00    -0.243 NA
ENDBRANCH   7   9
ENDBRANCH   5   7
ENDBRANCH   1   5
BRANCH   2  16
HETATM   16  C   UNL     1      43.645 -18.334   2.720  1.00  0.00     0.033 A 
HETATM   17  C   UNL     1      43.802 -19.463   1.911  1.00  0.00     0.023 A 
HETATM   18  C   UNL     1      44.128 -20.696   2.488  1.00  0.00    -0.061 A 
HETATM   19  C   UNL     1      44.278 -21.925   1.640  1.00  0.00     0.048 C 
HETATM   20  C   UNL     1      44.329 -20.775   3.875  1.00  0.00     0.013 A 
HETATM   21  C   UNL     1      44.201 -19.642   4.689  1.00  0.00    -0.061 A 
HETATM   22  C   UNL     1      44.435 -19.721   6.169  1.00  0.00     0.048 C 
HETATM   23  C   UNL     1      43.854 -18.420   4.103  1.00  0.00     0.023 A 
ENDBRANCH   2  16
TORSDOF 4
ENDMDL
MODEL 9
REMARK VINA RESULT:      -7.0      2.275      3.295
REMARK  4 active torsions:
REMARK  status: ('A' for Active; 'I' for Inactive)
REMARK    1  A    between atoms: C_4  and  N_5 
REMARK    2  A    between atoms: N_5  and  C_6 
REMARK    3  A    between atoms: C_6  and  N_7 
REMARK       I    between atoms: N_7  and  C_8 
REMARK    4  A    between atoms: C_8  and  C_9 
ROOT
HETATM    1  N   UNL     1      41.646 -16.455   2.665  1.00  0.00    -0.299 N 
HETATM    2  C   UNL     1      41.775 -17.653   1.970  1.00  0.00     0.257 C 
HETATM    3  O   UNL     1      41.113 -18.021   1.011  1.00  0.00    -0.267 OA
HETATM    4  H   UNL     1      42.090 -16.429   3.579  1.00  0.00     0.171 HD
ENDROOT
BRANCH   1   5
HETATM    5  C   UNL     1      41.061 -15.251   2.334  1.00  0.00     0.180 C 
HETATM    6  S   UNL     1      41.606 -14.146   1.206  1.00  0.00    -0.040 SA
BRANCH   5   7
HETATM    7  N   UNL     1      39.921 -14.926   3.031  1.00  0.00    -0.318 N 
HETATM    8  H   UNL     1      39.123 -15.509   2.809  1.00  0.00     0.170 HD
BRANCH   7   9
HETATM    9  C   UNL     1      39.743 -13.931   4.003  1.00  0.00     0.129 A 
HETATM   10  C   UNL     1      39.216 -12.709   3.601  1.00  0.00     0.057 A 
HETATM   11  C   UNL     1      39.013 -11.707   4.557  1.00  0.00    -0.057 A 
HETATM   12  C   UNL     1      38.461 -10.367   4.174  1.00  0.00     0.048 C 
HETATM   13  C   UNL     1      39.349 -11.971   5.884  1.00  0.00     0.026 A 
HETATM   14  C   UNL     1      39.873 -13.213   6.196  1.00  0.00     0.119 A 
HETATM   15  N   UNL     1      40.085 -14.189   5.287  1.00  0.00    -0.243 NA
ENDBRANCH   7   9
ENDBRANCH   5   7
ENDBRANCH   1   5
BRANCH   2  16
HETATM   16  C   UNL     1      42.761 -18.581   2.583  1.00  0.00     0.033 A 
HETATM   17  C   UNL     1      43.345 -18.243   3.807  1.00  0.00     0.023 A 
HETATM   18  C   UNL     1      44.313 -19.080   4.375  1.00  0.00    -0.061 A 
HETATM   19  C   UNL     1      44.969 -18.723   5.676  1.00  0.00     0.048 C 
HETATM   20  C   UNL     1      44.660 -20.273   3.721  1.00  0.00     0.013 A 
HETATM   21  C   UNL     1      44.059 -20.633   2.508  1.00  0.00    -0.061 A 
HETATM   22  C   UNL     1      44.415 -21.917   1.818  1.00  0.00     0.048 C 
HETATM   23  C   UNL     1      43.109 -19.777   1.940  1.00  0.00     0.023 A 
ENDBRANCH   2  16
TORSDOF 4
ENDMDL
MODEL 10
REMARK VINA RESULT:      -7.0      3.154      6.172
REMARK  4 active torsions:
REMARK  status: ('A' for Active; 'I' for Inactive)
REMARK    1  A    between atoms: C_4  and  N_5 
REMARK    2  A    between atoms: N_5  and  C_6 
REMARK    3  A    between atoms: C_6  and  N_7 
REMARK       I    between atoms: N_7  and  C_8 
REMARK    4  A    between atoms: C_8  and  C_9 
ROOT
HETATM    1  N   UNL     1      42.476 -16.484   2.547  1.00  0.00    -0.299 N 
HETATM    2  C   UNL     1      41.639 -16.747   1.467  1.00  0.00     0.257 C 
HETATM    3  O   UNL     1      41.075 -17.802   1.215  1.00  0.00    -0.267 OA
HETATM    4  H   UNL     1      43.057 -15.654   2.459  1.00  0.00     0.171 HD
ENDROOT
BRANCH   1   5
HETATM    5  C   UNL     1      42.646 -17.115   3.761  1.00  0.00     0.180 C 
HETATM    6  S   UNL     1      41.560 -17.164   5.029  1.00  0.00    -0.040 SA
BRANCH   5   7
HETATM    7  N   UNL     1      43.854 -17.748   3.944  1.00  0.00    -0.318 N 
HETATM    8  H   UNL     1      44.625 -17.118   4.126  1.00  0.00     0.170 HD
BRANCH   7   9
HETATM    9  C   UNL     1      44.131 -19.123   3.935  1.00  0.00     0.129 A 
HETATM   10  C   UNL     1      43.994 -19.811   2.735  1.00  0.00     0.057 A 
HETATM   11  C   UNL     1      44.283 -21.180   2.698  1.00  0.00    -0.057 A 
HETATM   12  C   UNL     1      44.139 -21.972   1.433  1.00  0.00     0.048 C 
HETATM   13  C   UNL     1      44.700 -21.807   3.871  1.00  0.00     0.026 A 
HETATM   14  C   UNL     1      44.804 -21.048   5.023  1.00  0.00     0.119 A 
HETATM   15  N   UNL     1      44.520 -19.729   5.081  1.00  0.00    -0.243 NA
ENDBRANCH   7   9
ENDBRANCH   5   7
ENDBRANCH   1   5
BRANCH   2  16
HETATM   16  C   UNL     1      41.559 -15.620   0.501  1.00  0.00     0.033 A 
HETATM   17  C   UNL     1      41.837 -14.323   0.943  1.00  0.00     0.023 A 
HETATM   18  C   UNL     1      41.719 -13.243   0.061  1.00  0.00    -0.061 A 
HETATM   19  C   UNL     1      41.989 -11.841   0.522  1.00  0.00     0.048 C 
HETATM   20  C   UNL     1      41.355 -13.482  -1.273  1.00  0.00     0.013 A 
HETATM   21  C   UNL     1      41.102 -14.782  -1.732  1.00  0.00    -0.061 A 
HETATM   22  C   UNL     1      40.732 -15.040  -3.163  1.00  0.00     0.048 C 
HETATM   23  C   UNL     1      41.203 -15.851  -0.834  1.00  0.00     0.023 A 
ENDBRANCH   2  16
TORSDOF 4
ENDMDL
