MODEL 1
REMARK VINA RESULT:      -8.8      0.000      0.000
REMARK  6 active torsions:
REMARK  status: ('A' for Active; 'I' for Inactive)
REMARK    1  A    between atoms: C_9  and  N_10 
REMARK       I    between atoms: N_10  and  C_11 
REMARK    2  A    between atoms: C_11  and  C_12 
REMARK    3  A    between atoms: C_12  and  N_13 
REMARK    4  A    between atoms: C_12  and  C_21 
REMARK       I    between atoms: N_13  and  C_14 
REMARK    5  A    between atoms: C_14  and  C_15 
REMARK    6  A    between atoms: C_21  and  C_22 
ROOT
HETATM    1  C   UNL     1      43.773 -16.011   6.851  1.00  0.00     0.181 C 
ENDROOT
BRANCH   1   2
HETATM    2  C   UNL     1      42.422 -15.936   6.099  1.00  0.00     0.245 C 
HETATM    3  N   UNL     1      42.536 -15.640   4.754  1.00  0.00    -0.325 N 
HETATM    4  H   UNL     1      43.487 -15.618   4.382  1.00  0.00     0.169 HD
HETATM    5  O   UNL     1      41.375 -16.160   6.704  1.00  0.00    -0.271 OA
BRANCH   3   6
HETATM    6  C   UNL     1      41.503 -15.439   3.816  1.00  0.00     0.037 A 
HETATM    7  C   UNL     1      40.837 -14.220   3.641  1.00  0.00     0.063 A 
HETATM    8  C   UNL     1      39.824 -14.131   2.670  1.00  0.00     0.087 A 
HETATM    9  N   UNL     1      39.029 -13.064   2.323  1.00  0.00    -0.234 NA
HETATM   10  C   UNL     1      39.514 -15.245   1.900  1.00  0.00     0.062 A 
HETATM   11  C   UNL     1      38.242 -13.501   1.362  1.00  0.00     0.101 A 
HETATM   12  C   UNL     1      37.195 -12.731   0.653  1.00  0.00     0.091 C 
HETATM   13  N   UNL     1      38.510 -14.816   1.071  1.00  0.00    -0.343 N 
HETATM   14  H   UNL     1      38.043 -15.371   0.371  1.00  0.00     0.167 HD
HETATM   15  C   UNL     1      40.158 -16.472   2.039  1.00  0.00     0.034 A 
HETATM   16  C   UNL     1      41.159 -16.543   3.019  1.00  0.00     0.032 A 
ENDBRANCH   3   6
ENDBRANCH   1   2
BRANCH   1  17
HETATM   17  N   UNL     1      43.936 -14.813   7.686  1.00  0.00    -0.343 N 
HETATM   18  C   UNL     1      44.716 -13.727   7.355  1.00  0.00     0.259 C 
HETATM   19  O   UNL     1      45.358 -13.711   6.305  1.00  0.00    -0.267 OA
HETATM   20  H   UNL     1      43.525 -14.826   8.612  1.00  0.00     0.163 HD
BRANCH  18  21
HETATM   21  C   UNL     1      44.745 -12.637   8.320  1.00  0.00     0.072 A 
HETATM   22  S   UNL     1      43.360 -11.693   8.683  1.00  0.00    -0.097 SA
HETATM   23  C   UNL     1      44.221 -10.730   9.803  1.00  0.00     0.050 A 
HETATM   24  C   UNL     1      45.538 -11.112   9.905  1.00  0.00     0.009 A 
HETATM   25  C   UNL     1      45.840 -12.211   9.051  1.00  0.00     0.025 A 
ENDBRANCH  18  21
ENDBRANCH   1  17
BRANCH   1  26
HETATM   26  C   UNL     1      43.988 -17.329   7.624  1.00  0.00     0.073 C 
BRANCH  26  27
HETATM   27  C   UNL     1      44.219 -18.595   6.821  1.00  0.00    -0.056 A 
HETATM   28  C   UNL     1      44.840 -18.625   5.566  1.00  0.00     0.007 A 
HETATM   29  C   UNL     1      44.980 -19.829   4.869  1.00  0.00     0.001 A 
HETATM   30  C   UNL     1      44.494 -21.017   5.408  1.00  0.00     0.000 A 
HETATM   31  C   UNL     1      43.862 -21.004   6.647  1.00  0.00     0.001 A 
HETATM   32  C   UNL     1      43.723 -19.803   7.345  1.00  0.00     0.007 A 
ENDBRANCH  26  27
ENDBRANCH   1  26
TORSDOF 6
ENDMDL
MODEL 2
REMARK VINA RESULT:      -8.7      2.980      7.192
REMARK  6 active torsions:
REMARK  status: ('A' for Active; 'I' for Inactive)
REMARK    1  A    between atoms: C_9  and  N_10 
REMARK       I    between atoms: N_10  and  C_11 
REMARK    2  A    between atoms: C_11  and  C_12 
REMARK    3  A    between atoms: C_12  and  N_13 
REMARK    4  A    between atoms: C_12  and  C_21 
REMARK       I    between atoms: N_13  and  C_14 
REMARK    5  A    between atoms: C_14  and  C_15 
REMARK    6  A    between atoms: C_21  and  C_22 
ROOT
HETATM    1  C   UNL     1      42.607 -17.370   2.918  1.00  0.00     0.181 C 
ENDROOT
BRANCH   1   2
HETATM    2  C   UNL     1      42.541 -16.635   4.279  1.00  0.00     0.245 C 
HETATM    3  N   UNL     1      42.995 -15.331   4.244  1.00  0.00    -0.325 N 
HETATM    4  H   UNL     1      43.211 -14.959   3.317  1.00  0.00     0.169 HD
HETATM    5  O   UNL     1      42.086 -17.217   5.263  1.00  0.00    -0.271 OA
BRANCH   3   6
HETATM    6  C   UNL     1      43.125 -14.424   5.316  1.00  0.00     0.037 A 
HETATM    7  C   UNL     1      44.161 -14.474   6.256  1.00  0.00     0.063 A 
HETATM    8  C   UNL     1      44.196 -13.514   7.283  1.00  0.00     0.087 A 
HETATM    9  N   UNL     1      45.091 -13.362   8.316  1.00  0.00    -0.234 NA
HETATM   10  C   UNL     1      43.213 -12.534   7.336  1.00  0.00     0.062 A 
HETATM   11  C   UNL     1      44.676 -12.315   8.997  1.00  0.00     0.101 A 
HETATM   12  C   UNL     1      45.299 -11.744  10.214  1.00  0.00     0.091 C 
HETATM   13  N   UNL     1      43.546 -11.779   8.432  1.00  0.00    -0.343 N 
HETATM   14  H   UNL     1      43.044 -10.972   8.769  1.00  0.00     0.167 HD
HETATM   15  C   UNL     1      42.171 -12.446   6.416  1.00  0.00     0.034 A 
HETATM   16  C   UNL     1      42.150 -13.418   5.406  1.00  0.00     0.032 A 
ENDBRANCH   3   6
ENDBRANCH   1   2
BRANCH   1  17
HETATM   17  N   UNL     1      42.147 -16.468   1.853  1.00  0.00    -0.343 N 
HETATM   18  C   UNL     1      40.831 -16.294   1.486  1.00  0.00     0.259 C 
HETATM   19  O   UNL     1      39.934 -16.925   2.046  1.00  0.00    -0.267 OA
HETATM   20  H   UNL     1      42.853 -16.017   1.283  1.00  0.00     0.163 HD
BRANCH  18  21
HETATM   21  C   UNL     1      40.582 -15.353   0.403  1.00  0.00     0.072 A 
HETATM   22  S   UNL     1      39.400 -14.115   0.514  1.00  0.00    -0.097 SA
HETATM   23  C   UNL     1      39.746 -13.544  -1.059  1.00  0.00     0.050 A 
HETATM   24  C   UNL     1      40.742 -14.275  -1.665  1.00  0.00     0.009 A 
HETATM   25  C   UNL     1      41.223 -15.317  -0.822  1.00  0.00     0.025 A 
ENDBRANCH  18  21
ENDBRANCH   1  17
BRANCH   1  26
HETATM   26  C   UNL     1      43.973 -18.021   2.622  1.00  0.00     0.073 C 
BRANCH  26  27
HETATM   27  C   UNL     1      44.115 -19.514   2.850  1.00  0.00    -0.056 A 
HETATM   28  C   UNL     1      44.683 -20.081   3.997  1.00  0.00     0.007 A 
HETATM   29  C   UNL     1      44.815 -21.468   4.117  1.00  0.00     0.001 A 
HETATM   30  C   UNL     1      44.391 -22.307   3.090  1.00  0.00     0.000 A 
HETATM   31  C   UNL     1      43.836 -21.761   1.938  1.00  0.00     0.001 A 
HETATM   32  C   UNL     1      43.703 -20.377   1.818  1.00  0.00     0.007 A 
ENDBRANCH  26  27
ENDBRANCH   1  26
TORSDOF 6
ENDMDL
MODEL 3
REMARK VINA RESULT:      -8.5      1.654      2.327
REMARK  6 active torsions:
REMARK  status: ('A' for Active; 'I' for Inactive)
REMARK    1  A    between atoms: C_9  and  N_10 
REMARK       I    between atoms: N_10  and  C_11 
REMARK    2  A    between atoms: C_11  and  C_12 
REMARK    3  A    between atoms: C_12  and  N_13 
REMARK    4  A    between atoms: C_12  and  C_21 
REMARK       I    between atoms: N_13  and  C_14 
REMARK    5  A    between atoms: C_14  and  C_15 
REMARK    6  A    between atoms: C_21  and  C_22 
ROOT
HETATM    1  C   UNL     1      44.232 -14.578   7.013  1.00  0.00     0.181 C 
ENDROOT
BRANCH   1   2
HETATM    2  C   UNL     1      43.523 -14.098   5.724  1.00  0.00     0.245 C 
HETATM    3  N   UNL     1      42.159 -13.922   5.858  1.00  0.00    -0.325 N 
HETATM    4  H   UNL     1      41.789 -14.013   6.806  1.00  0.00     0.169 HD
HETATM    5  O   UNL     1      44.183 -13.884   4.709  1.00  0.00    -0.271 OA
BRANCH   3   6
HETATM    6  C   UNL     1      41.225 -13.560   4.865  1.00  0.00     0.037 A 
HETATM    7  C   UNL     1      40.677 -14.461   3.945  1.00  0.00     0.063 A 
HETATM    8  C   UNL     1      39.749 -13.990   3.000  1.00  0.00     0.087 A 
HETATM    9  N   UNL     1      39.090 -14.668   2.001  1.00  0.00    -0.234 NA
HETATM   10  C   UNL     1      39.388 -12.649   3.006  1.00  0.00     0.062 A 
HETATM   11  C   UNL     1      38.338 -13.772   1.398  1.00  0.00     0.101 A 
HETATM   12  C   UNL     1      37.437 -14.000   0.244  1.00  0.00     0.091 C 
HETATM   13  N   UNL     1      38.483 -12.538   1.981  1.00  0.00    -0.343 N 
HETATM   14  H   UNL     1      38.010 -11.693   1.700  1.00  0.00     0.167 HD
HETATM   15  C   UNL     1      39.905 -11.723   3.908  1.00  0.00     0.034 A 
HETATM   16  C   UNL     1      40.835 -12.211   4.837  1.00  0.00     0.032 A 
ENDBRANCH   3   6
ENDBRANCH   1   2
BRANCH   1  17
HETATM   17  N   UNL     1      44.043 -13.581   8.077  1.00  0.00    -0.343 N 
HETATM   18  C   UNL     1      44.987 -12.654   8.460  1.00  0.00     0.259 C 
HETATM   19  O   UNL     1      46.092 -12.622   7.919  1.00  0.00    -0.267 OA
HETATM   20  H   UNL     1      43.199 -13.643   8.633  1.00  0.00     0.163 HD
BRANCH  18  21
HETATM   21  C   UNL     1      44.605 -11.753   9.537  1.00  0.00     0.072 A 
HETATM   22  S   UNL     1      43.164 -10.823   9.491  1.00  0.00    -0.097 SA
HETATM   23  C   UNL     1      43.487 -10.113  11.011  1.00  0.00     0.050 A 
HETATM   24  C   UNL     1      44.667 -10.569  11.553  1.00  0.00     0.009 A 
HETATM   25  C   UNL     1      45.310 -11.515  10.703  1.00  0.00     0.025 A 
ENDBRANCH  18  21
ENDBRANCH   1  17
BRANCH   1  26
HETATM   26  C   UNL     1      43.853 -16.011   7.442  1.00  0.00     0.073 C 
BRANCH  26  27
HETATM   27  C   UNL     1      43.855 -17.094   6.381  1.00  0.00    -0.056 A 
HETATM   28  C   UNL     1      42.770 -17.370   5.539  1.00  0.00     0.007 A 
HETATM   29  C   UNL     1      42.834 -18.414   4.611  1.00  0.00     0.001 A 
HETATM   30  C   UNL     1      43.977 -19.204   4.517  1.00  0.00     0.000 A 
HETATM   31  C   UNL     1      45.059 -18.953   5.354  1.00  0.00     0.001 A 
HETATM   32  C   UNL     1      44.997 -17.911   6.280  1.00  0.00     0.007 A 
ENDBRANCH  26  27
ENDBRANCH   1  26
TORSDOF 6
ENDMDL
MODEL 4
REMARK VINA RESULT:      -8.3      3.346      4.376
REMARK  6 active torsions:
REMARK  status: ('A' for Active; 'I' for Inactive)
REMARK    1  A    between atoms: C_9  and  N_10 
REMARK       I    between atoms: N_10  and  C_11 
REMARK    2  A    between atoms: C_11  and  C_12 
REMARK    3  A    between atoms: C_12  and  N_13 
REMARK    4  A    between atoms: C_12  and  C_21 
REMARK       I    between atoms: N_13  and  C_14 
REMARK    5  A    between atoms: C_14  and  C_15 
REMARK    6  A    between atoms: C_21  and  C_22 
ROOT
HETATM    1  C   UNL     1      42.006 -16.169   3.059  1.00  0.00     0.181 C 
ENDROOT
BRANCH   1   2
HETATM    2  C   UNL     1      41.057 -16.180   1.836  1.00  0.00     0.245 C 
HETATM    3  N   UNL     1      41.399 -15.284   0.842  1.00  0.00    -0.325 N 
HETATM    4  H   UNL     1      42.291 -14.802   0.965  1.00  0.00     0.169 HD
HETATM    5  O   UNL     1      40.111 -16.967   1.807  1.00  0.00    -0.271 OA
BRANCH   3   6
HETATM    6  C   UNL     1      40.710 -15.006  -0.357  1.00  0.00     0.037 A 
HETATM    7  C   UNL     1      39.628 -14.123  -0.446  1.00  0.00     0.063 A 
HETATM    8  C   UNL     1      39.018 -13.917  -1.696  1.00  0.00     0.087 A 
HETATM    9  N   UNL     1      37.950 -13.119  -2.033  1.00  0.00    -0.234 NA
HETATM   10  C   UNL     1      39.506 -14.583  -2.813  1.00  0.00     0.062 A 
HETATM   11  C   UNL     1      37.774 -13.285  -3.327  1.00  0.00     0.101 A 
HETATM   12  C   UNL     1      36.739 -12.646  -4.171  1.00  0.00     0.091 C 
HETATM   13  N   UNL     1      38.702 -14.158  -3.839  1.00  0.00    -0.343 N 
HETATM   14  H   UNL     1      38.774 -14.442  -4.804  1.00  0.00     0.167 HD
HETATM   15  C   UNL     1      40.583 -15.464  -2.766  1.00  0.00     0.034 A 
HETATM   16  C   UNL     1      41.172 -15.662  -1.509  1.00  0.00     0.032 A 
ENDBRANCH   3   6
ENDBRANCH   1   2
BRANCH   1  17
HETATM   17  N   UNL     1      41.738 -14.977   3.876  1.00  0.00    -0.343 N 
HETATM   18  C   UNL     1      42.377 -13.766   3.730  1.00  0.00     0.259 C 
HETATM   19  O   UNL     1      43.256 -13.618   2.880  1.00  0.00    -0.267 OA
HETATM   20  H   UNL     1      41.111 -15.080   4.665  1.00  0.00     0.163 HD
BRANCH  18  21
HETATM   21  C   UNL     1      41.968 -12.707   4.641  1.00  0.00     0.072 A 
HETATM   22  S   UNL     1      41.164 -11.290   4.102  1.00  0.00    -0.097 SA
HETATM   23  C   UNL     1      41.078 -10.651   5.685  1.00  0.00     0.050 A 
HETATM   24  C   UNL     1      41.646 -11.492   6.613  1.00  0.00     0.009 A 
HETATM   25  C   UNL     1      42.159 -12.677   6.011  1.00  0.00     0.025 A 
ENDBRANCH  18  21
ENDBRANCH   1  17
BRANCH   1  26
HETATM   26  C   UNL     1      42.000 -17.481   3.870  1.00  0.00     0.073 C 
BRANCH  26  27
HETATM   27  C   UNL     1      42.930 -18.595   3.428  1.00  0.00    -0.056 A 
HETATM   28  C   UNL     1      42.865 -19.220   2.177  1.00  0.00     0.007 A 
HETATM   29  C   UNL     1      43.734 -20.269   1.859  1.00  0.00     0.001 A 
HETATM   30  C   UNL     1      44.672 -20.714   2.786  1.00  0.00     0.000 A 
HETATM   31  C   UNL     1      44.742 -20.113   4.038  1.00  0.00     0.001 A 
HETATM   32  C   UNL     1      43.876 -19.066   4.357  1.00  0.00     0.007 A 
ENDBRANCH  26  27
ENDBRANCH   1  26
TORSDOF 6
ENDMDL
MODEL 5
REMARK VINA RESULT:      -8.2      3.596      6.699
REMARK  6 active torsions:
REMARK  status: ('A' for Active; 'I' for Inactive)
REMARK    1  A    between atoms: C_9  and  N_10 
REMARK       I    between atoms: N_10  and  C_11 
REMARK    2  A    between atoms: C_11  and  C_12 
REMARK    3  A    between atoms: C_12  and  N_13 
REMARK    4  A    between atoms: C_12  and  C_21 
REMARK       I    between atoms: N_13  and  C_14 
REMARK    5  A    between atoms: C_14  and  C_15 
REMARK    6  A    between atoms: C_21  and  C_22 
ROOT
HETATM    1  C   UNL     1      42.258 -16.937   3.266  1.00  0.00     0.181 C 
ENDROOT
BRANCH   1   2
HETATM    2  C   UNL     1      41.747 -16.124   4.480  1.00  0.00     0.245 C 
HETATM    3  N   UNL     1      41.460 -14.802   4.200  1.00  0.00    -0.325 N 
HETATM    4  H   UNL     1      41.503 -14.536   3.215  1.00  0.00     0.169 HD
HETATM    5  O   UNL     1      41.605 -16.680   5.569  1.00  0.00    -0.271 OA
BRANCH   3   6
HETATM    6  C   UNL     1      41.042 -13.793   5.092  1.00  0.00     0.037 A 
HETATM    7  C   UNL     1      41.913 -12.875   5.691  1.00  0.00     0.063 A 
HETATM    8  C   UNL     1      41.386 -11.905   6.562  1.00  0.00     0.087 A 
HETATM    9  N   UNL     1      42.028 -10.916   7.270  1.00  0.00    -0.234 NA
HETATM   10  C   UNL     1      40.018 -11.871   6.800  1.00  0.00     0.062 A 
HETATM   11  C   UNL     1      41.085 -10.282   7.935  1.00  0.00     0.101 A 
HETATM   12  C   UNL     1      41.264  -9.135   8.854  1.00  0.00     0.091 C 
HETATM   13  N   UNL     1      39.851 -10.825   7.671  1.00  0.00    -0.343 N 
HETATM   14  H   UNL     1      38.974 -10.510   8.057  1.00  0.00     0.167 HD
HETATM   15  C   UNL     1      39.119 -12.762   6.219  1.00  0.00     0.034 A 
HETATM   16  C   UNL     1      39.666 -13.726   5.360  1.00  0.00     0.032 A 
ENDBRANCH   3   6
ENDBRANCH   1   2
BRANCH   1  17
HETATM   17  N   UNL     1      42.093 -16.142   2.041  1.00  0.00    -0.343 N 
HETATM   18  C   UNL     1      41.370 -16.539   0.939  1.00  0.00     0.259 C 
HETATM   19  O   UNL     1      40.813 -17.637   0.916  1.00  0.00    -0.267 OA
HETATM   20  H   UNL     1      42.629 -15.285   1.962  1.00  0.00     0.163 HD
BRANCH  18  21
HETATM   21  C   UNL     1      41.329 -15.606  -0.177  1.00  0.00     0.072 A 
HETATM   22  S   UNL     1      41.612 -13.925   0.019  1.00  0.00    -0.097 SA
HETATM   23  C   UNL     1      41.381 -13.618  -1.646  1.00  0.00     0.050 A 
HETATM   24  C   UNL     1      41.095 -14.767  -2.347  1.00  0.00     0.009 A 
HETATM   25  C   UNL     1      41.065 -15.912  -1.501  1.00  0.00     0.025 A 
ENDBRANCH  18  21
ENDBRANCH   1  17
BRANCH   1  26
HETATM   26  C   UNL     1      43.683 -17.501   3.444  1.00  0.00     0.073 C 
BRANCH  26  27
HETATM   27  C   UNL     1      43.909 -18.970   3.144  1.00  0.00    -0.056 A 
HETATM   28  C   UNL     1      43.459 -19.611   1.983  1.00  0.00     0.007 A 
HETATM   29  C   UNL     1      43.672 -20.981   1.798  1.00  0.00     0.001 A 
HETATM   30  C   UNL     1      44.327 -21.731   2.771  1.00  0.00     0.000 A 
HETATM   31  C   UNL     1      44.768 -21.113   3.936  1.00  0.00     0.001 A 
HETATM   32  C   UNL     1      44.558 -19.746   4.122  1.00  0.00     0.007 A 
ENDBRANCH  26  27
ENDBRANCH   1  26
TORSDOF 6
ENDMDL
MODEL 6
REMARK VINA RESULT:      -8.1      3.732      4.668
REMARK  6 active torsions:
REMARK  status: ('A' for Active; 'I' for Inactive)
REMARK    1  A    between atoms: C_9  and  N_10 
REMARK       I    between atoms: N_10  and  C_11 
REMARK    2  A    between atoms: C_11  and  C_12 
REMARK    3  A    between atoms: C_12  and  N_13 
REMARK    4  A    between atoms: C_12  and  C_21 
REMARK       I    between atoms: N_13  and  C_14 
REMARK    5  A    between atoms: C_14  and  C_15 
REMARK    6  A    between atoms: C_21  and  C_22 
ROOT
HETATM    1  C   UNL     1      42.608 -16.342   3.630  1.00  0.00     0.181 C 
ENDROOT
BRANCH   1   2
HETATM    2  C   UNL     1      42.885 -15.925   2.166  1.00  0.00     0.245 C 
HETATM    3  N   UNL     1      41.838 -15.261   1.555  1.00  0.00    -0.325 N 
HETATM    4  H   UNL     1      41.052 -15.018   2.160  1.00  0.00     0.169 HD
HETATM    5  O   UNL     1      43.979 -16.170   1.659  1.00  0.00    -0.271 OA
BRANCH   3   6
HETATM    6  C   UNL     1      41.750 -14.812   0.222  1.00  0.00     0.037 A 
HETATM    7  C   UNL     1      42.200 -13.557  -0.208  1.00  0.00     0.063 A 
HETATM    8  C   UNL     1      42.067 -13.214  -1.565  1.00  0.00     0.087 A 
HETATM    9  N   UNL     1      42.417 -12.056  -2.218  1.00  0.00    -0.234 NA
HETATM   10  C   UNL     1      41.504 -14.126  -2.449  1.00  0.00     0.062 A 
HETATM   11  C   UNL     1      42.080 -12.240  -3.477  1.00  0.00     0.101 A 
HETATM   12  C   UNL     1      42.246 -11.276  -4.590  1.00  0.00     0.091 C 
HETATM   13  N   UNL     1      41.531 -13.484  -3.660  1.00  0.00    -0.343 N 
HETATM   14  H   UNL     1      41.199 -13.859  -4.536  1.00  0.00     0.167 HD
HETATM   15  C   UNL     1      41.051 -15.385  -2.061  1.00  0.00     0.034 A 
HETATM   16  C   UNL     1      41.185 -15.704  -0.703  1.00  0.00     0.032 A 
ENDBRANCH   3   6
ENDBRANCH   1   2
BRANCH   1  17
HETATM   17  N   UNL     1      41.739 -15.343   4.268  1.00  0.00    -0.343 N 
HETATM   18  C   UNL     1      42.187 -14.250   4.976  1.00  0.00     0.259 C 
HETATM   19  O   UNL     1      43.393 -14.054   5.131  1.00  0.00    -0.267 OA
HETATM   20  H   UNL     1      40.742 -15.523   4.272  1.00  0.00     0.163 HD
BRANCH  18  21
HETATM   21  C   UNL     1      41.163 -13.378   5.532  1.00  0.00     0.072 A 
HETATM   22  S   UNL     1      41.532 -11.850   6.219  1.00  0.00    -0.097 SA
HETATM   23  C   UNL     1      39.893 -11.543   6.595  1.00  0.00     0.050 A 
HETATM   24  C   UNL     1      39.073 -12.578   6.208  1.00  0.00     0.009 A 
HETATM   25  C   UNL     1      39.805 -13.635   5.595  1.00  0.00     0.025 A 
ENDBRANCH  18  21
ENDBRANCH   1  17
BRANCH   1  26
HETATM   26  C   UNL     1      42.094 -17.789   3.783  1.00  0.00     0.073 C 
BRANCH  26  27
HETATM   27  C   UNL     1      43.011 -18.918   3.356  1.00  0.00    -0.056 A 
HETATM   28  C   UNL     1      42.907 -19.593   2.133  1.00  0.00     0.007 A 
HETATM   29  C   UNL     1      43.766 -20.653   1.828  1.00  0.00     0.001 A 
HETATM   30  C   UNL     1      44.734 -21.062   2.741  1.00  0.00     0.000 A 
HETATM   31  C   UNL     1      44.843 -20.412   3.966  1.00  0.00     0.001 A 
HETATM   32  C   UNL     1      43.987 -19.353   4.272  1.00  0.00     0.007 A 
ENDBRANCH  26  27
ENDBRANCH   1  26
TORSDOF 6
ENDMDL
MODEL 7
REMARK VINA RESULT:      -8.1      4.129      6.601
REMARK  6 active torsions:
REMARK  status: ('A' for Active; 'I' for Inactive)
REMARK    1  A    between atoms: C_9  and  N_10 
REMARK       I    between atoms: N_10  and  C_11 
REMARK    2  A    between atoms: C_11  and  C_12 
REMARK    3  A    between atoms: C_12  and  N_13 
REMARK    4  A    between atoms: C_12  and  C_21 
REMARK       I    between atoms: N_13  and  C_14 
REMARK    5  A    between atoms: C_14  and  C_15 
REMARK    6  A    between atoms: C_21  and  C_22 
ROOT
HETATM    1  C   UNL     1      41.334 -15.920   3.171  1.00  0.00     0.181 C 
ENDROOT
BRANCH   1   2
HETATM    2  C   UNL     1      41.795 -15.023   1.996  1.00  0.00     0.245 C 
HETATM    3  N   UNL     1      41.066 -15.188   0.835  1.00  0.00    -0.325 N 
HETATM    4  H   UNL     1      40.242 -15.786   0.908  1.00  0.00     0.169 HD
HETATM    5  O   UNL     1      42.724 -14.233   2.162  1.00  0.00    -0.271 OA
BRANCH   3   6
HETATM    6  C   UNL     1      41.272 -14.575  -0.418  1.00  0.00     0.037 A 
HETATM    7  C   UNL     1      41.675 -13.243  -0.577  1.00  0.00     0.063 A 
HETATM    8  C   UNL     1      41.855 -12.736  -1.876  1.00  0.00     0.087 A 
HETATM    9  N   UNL     1      42.230 -11.478  -2.285  1.00  0.00    -0.234 NA
HETATM   10  C   UNL     1      41.643 -13.566  -2.969  1.00  0.00     0.062 A 
HETATM   11  C   UNL     1      42.249 -11.521  -3.601  1.00  0.00     0.101 A 
HETATM   12  C   UNL     1      42.585 -10.410  -4.520  1.00  0.00     0.091 C 
HETATM   13  N   UNL     1      41.907 -12.770  -4.055  1.00  0.00    -0.343 N 
HETATM   14  H   UNL     1      41.854 -13.052  -5.022  1.00  0.00     0.167 HD
HETATM   15  C   UNL     1      41.248 -14.896  -2.853  1.00  0.00     0.034 A 
HETATM   16  C   UNL     1      41.065 -15.380  -1.550  1.00  0.00     0.032 A 
ENDBRANCH   3   6
ENDBRANCH   1   2
BRANCH   1  17
HETATM   17  N   UNL     1      42.207 -17.098   3.260  1.00  0.00    -0.343 N 
HETATM   18  C   UNL     1      42.213 -18.141   2.359  1.00  0.00     0.259 C 
HETATM   19  O   UNL     1      41.440 -18.146   1.401  1.00  0.00    -0.267 OA
HETATM   20  H   UNL     1      42.775 -17.200   4.092  1.00  0.00     0.163 HD
BRANCH  18  21
HETATM   21  C   UNL     1      43.154 -19.218   2.626  1.00  0.00     0.072 A 
HETATM   22  S   UNL     1      44.123 -19.264   4.041  1.00  0.00    -0.097 SA
HETATM   23  C   UNL     1      44.866 -20.729   3.572  1.00  0.00     0.050 A 
HETATM   24  C   UNL     1      44.392 -21.184   2.363  1.00  0.00     0.009 A 
HETATM   25  C   UNL     1      43.406 -20.313   1.818  1.00  0.00     0.025 A 
ENDBRANCH  18  21
ENDBRANCH   1  17
BRANCH   1  26
HETATM   26  C   UNL     1      41.180 -15.169   4.510  1.00  0.00     0.073 C 
BRANCH  26  27
HETATM   27  C   UNL     1      42.063 -15.592   5.668  1.00  0.00    -0.056 A 
HETATM   28  C   UNL     1      43.265 -14.960   6.009  1.00  0.00     0.007 A 
HETATM   29  C   UNL     1      44.045 -15.435   7.069  1.00  0.00     0.001 A 
HETATM   30  C   UNL     1      43.642 -16.552   7.795  1.00  0.00     0.000 A 
HETATM   31  C   UNL     1      42.457 -17.200   7.462  1.00  0.00     0.001 A 
HETATM   32  C   UNL     1      41.677 -16.727   6.406  1.00  0.00     0.007 A 
ENDBRANCH  26  27
ENDBRANCH   1  26
TORSDOF 6
ENDMDL
MODEL 8
REMARK VINA RESULT:      -8.0      4.220      9.124
REMARK  6 active torsions:
REMARK  status: ('A' for Active; 'I' for Inactive)
REMARK    1  A    between atoms: C_9  and  N_10 
REMARK       I    between atoms: N_10  and  C_11 
REMARK    2  A    between atoms: C_11  and  C_12 
REMARK    3  A    between atoms: C_12  and  N_13 
REMARK    4  A    between atoms: C_12  and  C_21 
REMARK       I    between atoms: N_13  and  C_14 
REMARK    5  A    between atoms: C_14  and  C_15 
REMARK    6  A    between atoms: C_21  and  C_22 
ROOT
HETATM    1  C   UNL     1      41.569 -14.641   0.768  1.00  0.00     0.181 C 
ENDROOT
BRANCH   1   2
HETATM    2  C   UNL     1      41.646 -15.860   1.718  1.00  0.00     0.245 C 
HETATM    3  N   UNL     1      42.867 -16.018   2.344  1.00  0.00    -0.325 N 
HETATM    4  H   UNL     1      43.538 -15.260   2.207  1.00  0.00     0.169 HD
HETATM    5  O   UNL     1      40.655 -16.572   1.876  1.00  0.00    -0.271 OA
BRANCH   3   6
HETATM    6  C   UNL     1      43.276 -17.053   3.210  1.00  0.00     0.037 A 
HETATM    7  C   UNL     1      43.679 -18.320   2.772  1.00  0.00     0.063 A 
HETATM    8  C   UNL     1      44.072 -19.277   3.724  1.00  0.00     0.087 A 
HETATM    9  N   UNL     1      44.492 -20.574   3.546  1.00  0.00    -0.234 NA
HETATM   10  C   UNL     1      44.065 -18.943   5.072  1.00  0.00     0.062 A 
HETATM   11  C   UNL     1      44.738 -21.039   4.753  1.00  0.00     0.101 A 
HETATM   12  C   UNL     1      45.210 -22.399   5.101  1.00  0.00     0.091 C 
HETATM   13  N   UNL     1      44.499 -20.079   5.705  1.00  0.00    -0.343 N 
HETATM   14  H   UNL     1      44.618 -20.194   6.700  1.00  0.00     0.167 HD
HETATM   15  C   UNL     1      43.677 -17.692   5.547  1.00  0.00     0.034 A 
HETATM   16  C   UNL     1      43.280 -16.756   4.582  1.00  0.00     0.032 A 
ENDBRANCH   3   6
ENDBRANCH   1   2
BRANCH   1  17
HETATM   17  N   UNL     1      40.628 -14.929  -0.324  1.00  0.00    -0.343 N 
HETATM   18  C   UNL     1      40.801 -14.538  -1.633  1.00  0.00     0.259 C 
HETATM   19  O   UNL     1      41.789 -13.883  -1.967  1.00  0.00    -0.267 OA
HETATM   20  H   UNL     1      39.744 -15.360  -0.080  1.00  0.00     0.163 HD
BRANCH  18  21
HETATM   21  C   UNL     1      39.751 -14.922  -2.565  1.00  0.00     0.072 A 
HETATM   22  S   UNL     1      38.186 -14.222  -2.526  1.00  0.00    -0.097 SA
HETATM   23  C   UNL     1      37.648 -15.176  -3.839  1.00  0.00     0.050 A 
HETATM   24  C   UNL     1      38.634 -16.014  -4.305  1.00  0.00     0.009 A 
HETATM   25  C   UNL     1      39.846 -15.867  -3.571  1.00  0.00     0.025 A 
ENDBRANCH  18  21
ENDBRANCH   1  17
BRANCH   1  26
HETATM   26  C   UNL     1      41.285 -13.304   1.484  1.00  0.00     0.073 C 
BRANCH  26  27
HETATM   27  C   UNL     1      41.226 -13.308   3.000  1.00  0.00    -0.056 A 
HETATM   28  C   UNL     1      42.312 -12.998   3.827  1.00  0.00     0.007 A 
HETATM   29  C   UNL     1      42.190 -13.063   5.219  1.00  0.00     0.001 A 
HETATM   30  C   UNL     1      40.986 -13.448   5.803  1.00  0.00     0.000 A 
HETATM   31  C   UNL     1      39.901 -13.772   4.997  1.00  0.00     0.001 A 
HETATM   32  C   UNL     1      40.021 -13.706   3.608  1.00  0.00     0.007 A 
ENDBRANCH  26  27
ENDBRANCH   1  26
TORSDOF 6
ENDMDL
MODEL 9
REMARK VINA RESULT:      -8.0      3.584      6.519
REMARK  6 active torsions:
REMARK  status: ('A' for Active; 'I' for Inactive)
REMARK    1  A    between atoms: C_9  and  N_10 
REMARK       I    between atoms: N_10  and  C_11 
REMARK    2  A    between atoms: C_11  and  C_12 
REMARK    3  A    between atoms: C_12  and  N_13 
REMARK    4  A    between atoms: C_12  and  C_21 
REMARK       I    between atoms: N_13  and  C_14 
REMARK    5  A    between atoms: C_14  and  C_15 
REMARK    6  A    between atoms: C_21  and  C_22 
ROOT
HETATM    1  C   UNL     1      41.758 -16.548   3.294  1.00  0.00     0.181 C 
ENDROOT
BRANCH   1   2
HETATM    2  C   UNL     1      40.869 -16.417   2.033  1.00  0.00     0.245 C 
HETATM    3  N   UNL     1      41.339 -15.516   1.096  1.00  0.00    -0.325 N 
HETATM    4  H   UNL     1      42.266 -15.127   1.279  1.00  0.00     0.169 HD
HETATM    5  O   UNL     1      39.857 -17.109   1.926  1.00  0.00    -0.271 OA
BRANCH   3   6
HETATM    6  C   UNL     1      40.736 -15.124  -0.116  1.00  0.00     0.037 A 
HETATM    7  C   UNL     1      39.709 -14.177  -0.204  1.00  0.00     0.063 A 
HETATM    8  C   UNL     1      39.183 -13.858  -1.468  1.00  0.00     0.087 A 
HETATM    9  N   UNL     1      38.179 -12.981  -1.808  1.00  0.00    -0.234 NA
HETATM   10  C   UNL     1      39.698 -14.477  -2.599  1.00  0.00     0.062 A 
HETATM   11  C   UNL     1      38.070 -13.053  -3.118  1.00  0.00     0.101 A 
HETATM   12  C   UNL     1      37.119 -12.304  -3.971  1.00  0.00     0.091 C 
HETATM   13  N   UNL     1      38.977 -13.943  -3.636  1.00  0.00    -0.343 N 
HETATM   14  H   UNL     1      39.090 -14.168  -4.613  1.00  0.00     0.167 HD
HETATM   15  C   UNL     1      40.723 -15.420  -2.554  1.00  0.00     0.034 A 
HETATM   16  C   UNL     1      41.227 -15.730  -1.284  1.00  0.00     0.032 A 
ENDBRANCH   3   6
ENDBRANCH   1   2
BRANCH   1  17
HETATM   17  N   UNL     1      42.355 -17.890   3.335  1.00  0.00    -0.343 N 
HETATM   18  C   UNL     1      43.237 -18.385   2.401  1.00  0.00     0.259 C 
HETATM   19  O   UNL     1      43.573 -17.705   1.431  1.00  0.00    -0.267 OA
HETATM   20  H   UNL     1      42.021 -18.530   4.045  1.00  0.00     0.163 HD
BRANCH  18  21
HETATM   21  C   UNL     1      43.716 -19.742   2.621  1.00  0.00     0.072 A 
HETATM   22  S   UNL     1      44.546 -20.203   4.050  1.00  0.00    -0.097 SA
HETATM   23  C   UNL     1      44.729 -21.814   3.510  1.00  0.00     0.050 A 
HETATM   24  C   UNL     1      44.170 -22.008   2.268  1.00  0.00     0.009 A 
HETATM   25  C   UNL     1      43.587 -20.814   1.756  1.00  0.00     0.025 A 
ENDBRANCH  18  21
ENDBRANCH   1  17
BRANCH   1  26
HETATM   26  C   UNL     1      42.790 -15.412   3.454  1.00  0.00     0.073 C 
BRANCH  26  27
HETATM   27  C   UNL     1      43.335 -15.137   4.842  1.00  0.00    -0.056 A 
HETATM   28  C   UNL     1      44.035 -13.977   5.193  1.00  0.00     0.007 A 
HETATM   29  C   UNL     1      44.543 -13.814   6.487  1.00  0.00     0.001 A 
HETATM   30  C   UNL     1      44.369 -14.811   7.442  1.00  0.00     0.000 A 
HETATM   31  C   UNL     1      43.688 -15.976   7.107  1.00  0.00     0.001 A 
HETATM   32  C   UNL     1      43.179 -16.139   5.818  1.00  0.00     0.007 A 
ENDBRANCH  26  27
ENDBRANCH   1  26
TORSDOF 6
ENDMDL
MODEL 10
REMARK VINA RESULT:      -7.7      3.770      8.687
REMARK  6 active torsions:
REMARK  status: ('A' for Active; 'I' for Inactive)
REMARK    1  A    between atoms: C_9  and  N_10 
REMARK       I    between atoms: N_10  and  C_11 
REMARK    2  A    between atoms: C_11  and  C_12 
REMARK    3  A    between atoms: C_12  and  N_13 
REMARK    4  A    between atoms: C_12  and  C_21 
REMARK       I    between atoms: N_13  and  C_14 
REMARK    5  A    between atoms: C_14  and  C_15 
REMARK    6  A    between atoms: C_21  and  C_22 
ROOT
HETATM    1  C   UNL     1      42.096 -12.839   2.674  1.00  0.00     0.181 C 
ENDROOT
BRANCH   1   2
HETATM    2  C   UNL     1      43.027 -13.913   3.287  1.00  0.00     0.245 C 
HETATM    3  N   UNL     1      42.396 -15.103   3.597  1.00  0.00    -0.325 N 
HETATM    4  H   UNL     1      41.427 -15.186   3.286  1.00  0.00     0.169 HD
HETATM    5  O   UNL     1      44.224 -13.670   3.432  1.00  0.00    -0.271 OA
BRANCH   3   6
HETATM    6  C   UNL     1      42.943 -16.243   4.220  1.00  0.00     0.037 A 
HETATM    7  C   UNL     1      43.233 -17.435   3.545  1.00  0.00     0.063 A 
HETATM    8  C   UNL     1      43.783 -18.510   4.266  1.00  0.00     0.087 A 
HETATM    9  N   UNL     1      44.138 -19.767   3.838  1.00  0.00    -0.234 NA
HETATM   10  C   UNL     1      44.036 -18.363   5.624  1.00  0.00     0.062 A 
HETATM   11  C   UNL     1      44.599 -20.390   4.901  1.00  0.00     0.101 A 
HETATM   12  C   UNL     1      45.104 -21.781   4.966  1.00  0.00     0.091 C 
HETATM   13  N   UNL     1      44.562 -19.572   6.003  1.00  0.00    -0.343 N 
HETATM   14  H   UNL     1      44.865 -19.820   6.932  1.00  0.00     0.167 HD
HETATM   15  C   UNL     1      43.768 -17.193   6.329  1.00  0.00     0.034 A 
HETATM   16  C   UNL     1      43.212 -16.136   5.594  1.00  0.00     0.032 A 
ENDBRANCH   3   6
ENDBRANCH   1   2
BRANCH   1  17
HETATM   17  N   UNL     1      42.063 -12.996   1.213  1.00  0.00    -0.343 N 
HETATM   18  C   UNL     1      42.050 -11.955   0.312  1.00  0.00     0.259 C 
HETATM   19  O   UNL     1      42.050 -10.787   0.702  1.00  0.00    -0.267 OA
HETATM   20  H   UNL     1      41.941 -13.932   0.845  1.00  0.00     0.163 HD
BRANCH  18  21
HETATM   21  C   UNL     1      42.015 -12.321  -1.096  1.00  0.00     0.072 A 
HETATM   22  S   UNL     1      41.135 -13.676  -1.672  1.00  0.00    -0.097 SA
HETATM   23  C   UNL     1      41.613 -13.391  -3.288  1.00  0.00     0.050 A 
HETATM   24  C   UNL     1      42.426 -12.286  -3.398  1.00  0.00     0.009 A 
HETATM   25  C   UNL     1      42.658 -11.670  -2.135  1.00  0.00     0.025 A 
ENDBRANCH  18  21
ENDBRANCH   1  17
BRANCH   1  26
HETATM   26  C   UNL     1      40.695 -12.783   3.316  1.00  0.00     0.073 C 
BRANCH  26  27
HETATM   27  C   UNL     1      39.494 -13.043   2.428  1.00  0.00    -0.056 A 
HETATM   28  C   UNL     1      39.136 -14.307   1.943  1.00  0.00     0.007 A 
HETATM   29  C   UNL     1      38.035 -14.459   1.094  1.00  0.00     0.001 A 
HETATM   30  C   UNL     1      37.283 -13.353   0.709  1.00  0.00     0.000 A 
HETATM   31  C   UNL     1      37.632 -12.088   1.170  1.00  0.00     0.001 A 
HETATM   32  C   UNL     1      38.729 -11.934   2.018  1.00  0.00     0.007 A 
ENDBRANCH  26  27
ENDBRANCH   1  26
TORSDOF 6
ENDMDL
