MODEL 1
REMARK VINA RESULT:      -9.2      0.000      0.000
REMARK  2 active torsions:
REMARK  status: ('A' for Active; 'I' for Inactive)
REMARK    1  A    between atoms: C_5  and  C_6 
REMARK    2  A    between atoms: C_9  and  C_10 
ROOT
HETATM    1  C   UNL     1      40.710 -14.293   4.046  1.00  0.00     0.220 C 
HETATM    2  N   UNL     1      41.763 -15.088   3.441  1.00  0.00    -0.126 NA
HETATM    3  N   UNL     1      41.801 -16.328   4.116  1.00  0.00    -0.126 NA
HETATM    4  C   UNL     1      43.186 -16.754   4.171  1.00  0.00     0.220 C 
HETATM    5  N   UNL     1      43.905 -15.719   3.473  1.00  0.00    -0.324 N 
HETATM    6  C   UNL     1      43.059 -14.640   3.243  1.00  0.00     0.315 C 
HETATM    7  O   UNL     1      43.430 -13.504   3.004  1.00  0.00    -0.252 OA
HETATM    8  C   UNL     1      40.960 -16.271   5.216  1.00  0.00     0.315 C 
HETATM    9  O   UNL     1      40.965 -16.990   6.200  1.00  0.00    -0.252 OA
HETATM   10  N   UNL     1      40.150 -15.153   5.056  1.00  0.00    -0.324 N 
HETATM   11  H   UNL     1      44.900 -15.572   3.548  1.00  0.00     0.165 HD
HETATM   12  H   UNL     1      39.580 -14.829   5.821  1.00  0.00     0.165 HD
ENDROOT
BRANCH   1  13
HETATM   13  C   UNL     1      39.674 -13.838   3.048  1.00  0.00    -0.020 A 
HETATM   14  C   UNL     1      39.127 -14.726   2.106  1.00  0.00     0.011 A 
HETATM   15  C   UNL     1      38.212 -14.281   1.150  1.00  0.00     0.007 A 
HETATM   16  C   UNL     1      37.819 -12.940   1.116  1.00  0.00    -0.062 A 
HETATM   17  C   UNL     1      36.845 -12.455   0.085  1.00  0.00     0.048 C 
HETATM   18  C   UNL     1      38.319 -12.062   2.085  1.00  0.00     0.007 A 
HETATM   19  C   UNL     1      39.238 -12.505   3.039  1.00  0.00     0.011 A 
ENDBRANCH   1  13
BRANCH   4  20
HETATM   20  C   UNL     1      43.406 -18.113   3.553  1.00  0.00    -0.020 A 
HETATM   21  C   UNL     1      44.245 -19.065   4.157  1.00  0.00     0.011 A 
HETATM   22  C   UNL     1      44.487 -20.297   3.548  1.00  0.00     0.007 A 
HETATM   23  C   UNL     1      43.893 -20.608   2.321  1.00  0.00    -0.062 A 
HETATM   24  C   UNL     1      44.159 -21.928   1.661  1.00  0.00     0.048 C 
HETATM   25  C   UNL     1      43.013 -19.689   1.740  1.00  0.00     0.007 A 
HETATM   26  C   UNL     1      42.773 -18.453   2.348  1.00  0.00     0.011 A 
ENDBRANCH   4  20
TORSDOF 2
ENDMDL
MODEL 2
REMARK VINA RESULT:      -9.2      0.037      7.101
REMARK  2 active torsions:
REMARK  status: ('A' for Active; 'I' for Inactive)
REMARK    1  A    between atoms: C_5  and  C_6 
REMARK    2  A    between atoms: C_9  and  C_10 
ROOT
HETATM    1  C   UNL     1      43.178 -16.761   4.198  1.00  0.00     0.220 C 
HETATM    2  N   UNL     1      41.791 -16.334   4.137  1.00  0.00    -0.126 NA
HETATM    3  N   UNL     1      41.757 -15.095   3.461  1.00  0.00    -0.126 NA
HETATM    4  C   UNL     1      40.703 -14.299   4.061  1.00  0.00     0.220 C 
HETATM    5  N   UNL     1      40.138 -15.158   5.069  1.00  0.00    -0.324 N 
HETATM    6  C   UNL     1      40.947 -16.276   5.234  1.00  0.00     0.315 C 
HETATM    7  O   UNL     1      40.948 -16.994   6.218  1.00  0.00    -0.252 OA
HETATM    8  C   UNL     1      43.054 -14.648   3.267  1.00  0.00     0.315 C 
HETATM    9  O   UNL     1      43.427 -13.513   3.029  1.00  0.00    -0.252 OA
HETATM   10  N   UNL     1      43.899 -15.727   3.503  1.00  0.00    -0.324 N 
HETATM   11  H   UNL     1      39.565 -14.834   5.832  1.00  0.00     0.165 HD
HETATM   12  H   UNL     1      44.893 -15.581   3.581  1.00  0.00     0.165 HD
ENDROOT
BRANCH   1  13
HETATM   13  C   UNL     1      43.399 -18.121   3.582  1.00  0.00    -0.020 A 
HETATM   14  C   UNL     1      44.186 -19.093   4.222  1.00  0.00     0.011 A 
HETATM   15  C   UNL     1      44.432 -20.327   3.617  1.00  0.00     0.007 A 
HETATM   16  C   UNL     1      43.893 -20.619   2.361  1.00  0.00    -0.062 A 
HETATM   17  C   UNL     1      44.161 -21.939   1.701  1.00  0.00     0.048 C 
HETATM   18  C   UNL     1      43.064 -19.676   1.743  1.00  0.00     0.007 A 
HETATM   19  C   UNL     1      42.821 -18.439   2.344  1.00  0.00     0.011 A 
ENDBRANCH   1  13
BRANCH   4  20
HETATM   20  C   UNL     1      39.670 -13.844   3.058  1.00  0.00    -0.020 A 
HETATM   21  C   UNL     1      39.131 -14.731   2.109  1.00  0.00     0.011 A 
HETATM   22  C   UNL     1      38.221 -14.286   1.149  1.00  0.00     0.007 A 
HETATM   23  C   UNL     1      37.827 -12.945   1.116  1.00  0.00    -0.062 A 
HETATM   24  C   UNL     1      36.856 -12.464   0.079  1.00  0.00     0.048 C 
HETATM   25  C   UNL     1      38.315 -12.069   2.091  1.00  0.00     0.007 A 
HETATM   26  C   UNL     1      39.230 -12.512   3.050  1.00  0.00     0.011 A 
ENDBRANCH   4  20
TORSDOF 2
ENDMDL
MODEL 3
REMARK VINA RESULT:      -8.7      3.119      3.530
REMARK  2 active torsions:
REMARK  status: ('A' for Active; 'I' for Inactive)
REMARK    1  A    between atoms: C_5  and  C_6 
REMARK    2  A    between atoms: C_9  and  C_10 
ROOT
HETATM    1  C   UNL     1      41.292 -14.009   1.254  1.00  0.00     0.220 C 
HETATM    2  N   UNL     1      42.326 -14.869   1.801  1.00  0.00    -0.126 NA
HETATM    3  N   UNL     1      41.743 -16.132   2.048  1.00  0.00    -0.126 NA
HETATM    4  C   UNL     1      42.367 -16.676   3.239  1.00  0.00     0.220 C 
HETATM    5  N   UNL     1      43.336 -15.681   3.620  1.00  0.00    -0.324 N 
HETATM    6  C   UNL     1      43.135 -14.526   2.872  1.00  0.00     0.315 C 
HETATM    7  O   UNL     1      43.536 -13.419   3.183  1.00  0.00    -0.252 OA
HETATM    8  C   UNL     1      40.373 -16.043   1.858  1.00  0.00     0.315 C 
HETATM    9  O   UNL     1      39.510 -16.795   2.274  1.00  0.00    -0.252 OA
HETATM   10  N   UNL     1      40.129 -14.854   1.179  1.00  0.00    -0.324 N 
HETATM   11  H   UNL     1      43.758 -15.623   4.534  1.00  0.00     0.165 HD
HETATM   12  H   UNL     1      39.186 -14.511   1.086  1.00  0.00     0.165 HD
ENDROOT
BRANCH   1  13
HETATM   13  C   UNL     1      41.663 -13.431  -0.090  1.00  0.00    -0.020 A 
HETATM   14  C   UNL     1      42.231 -12.151  -0.203  1.00  0.00     0.011 A 
HETATM   15  C   UNL     1      42.517 -11.603  -1.455  1.00  0.00     0.007 A 
HETATM   16  C   UNL     1      42.245 -12.322  -2.622  1.00  0.00    -0.062 A 
HETATM   17  C   UNL     1      42.540 -11.734  -3.969  1.00  0.00     0.048 C 
HETATM   18  C   UNL     1      41.729 -13.619  -2.514  1.00  0.00     0.007 A 
HETATM   19  C   UNL     1      41.438 -14.167  -1.262  1.00  0.00     0.011 A 
ENDBRANCH   1  13
BRANCH   4  20
HETATM   20  C   UNL     1      43.000 -18.026   3.003  1.00  0.00    -0.020 A 
HETATM   21  C   UNL     1      42.727 -18.768   1.842  1.00  0.00     0.011 A 
HETATM   22  C   UNL     1      43.272 -20.041   1.661  1.00  0.00     0.007 A 
HETATM   23  C   UNL     1      44.103 -20.599   2.636  1.00  0.00    -0.062 A 
HETATM   24  C   UNL     1      44.682 -21.970   2.448  1.00  0.00     0.048 C 
HETATM   25  C   UNL     1      44.424 -19.844   3.769  1.00  0.00     0.007 A 
HETATM   26  C   UNL     1      43.876 -18.572   3.953  1.00  0.00     0.011 A 
ENDBRANCH   4  20
TORSDOF 2
ENDMDL
MODEL 4
REMARK VINA RESULT:      -8.7      3.142      7.144
REMARK  2 active torsions:
REMARK  status: ('A' for Active; 'I' for Inactive)
REMARK    1  A    between atoms: C_5  and  C_6 
REMARK    2  A    between atoms: C_9  and  C_10 
ROOT
HETATM    1  C   UNL     1      42.370 -16.608   3.228  1.00  0.00     0.220 C 
HETATM    2  N   UNL     1      41.752 -16.058   2.034  1.00  0.00    -0.126 NA
HETATM    3  N   UNL     1      42.344 -14.799   1.792  1.00  0.00    -0.126 NA
HETATM    4  C   UNL     1      41.317 -13.933   1.243  1.00  0.00     0.220 C 
HETATM    5  N   UNL     1      40.149 -14.771   1.163  1.00  0.00    -0.324 N 
HETATM    6  C   UNL     1      40.384 -15.961   1.842  1.00  0.00     0.315 C 
HETATM    7  O   UNL     1      39.515 -16.709   2.255  1.00  0.00    -0.252 OA
HETATM    8  C   UNL     1      43.153 -14.463   2.865  1.00  0.00     0.315 C 
HETATM    9  O   UNL     1      43.559 -13.359   3.180  1.00  0.00    -0.252 OA
HETATM   10  N   UNL     1      43.344 -15.621   3.612  1.00  0.00    -0.324 N 
HETATM   11  H   UNL     1      39.208 -14.422   1.068  1.00  0.00     0.165 HD
HETATM   12  H   UNL     1      43.764 -15.567   4.527  1.00  0.00     0.165 HD
ENDROOT
BRANCH   1  13
HETATM   13  C   UNL     1      42.995 -17.961   2.992  1.00  0.00    -0.020 A 
HETATM   14  C   UNL     1      42.744 -18.687   1.815  1.00  0.00     0.011 A 
HETATM   15  C   UNL     1      43.281 -19.963   1.632  1.00  0.00     0.007 A 
HETATM   16  C   UNL     1      44.085 -20.540   2.619  1.00  0.00    -0.062 A 
HETATM   17  C   UNL     1      44.656 -21.914   2.433  1.00  0.00     0.048 C 
HETATM   18  C   UNL     1      44.383 -19.801   3.769  1.00  0.00     0.007 A 
HETATM   19  C   UNL     1      43.843 -18.526   3.956  1.00  0.00     0.011 A 
ENDBRANCH   1  13
BRANCH   4  20
HETATM   20  C   UNL     1      41.695 -13.355  -0.099  1.00  0.00    -0.020 A 
HETATM   21  C   UNL     1      42.277 -12.080  -0.209  1.00  0.00     0.011 A 
HETATM   22  C   UNL     1      42.569 -11.531  -1.459  1.00  0.00     0.007 A 
HETATM   23  C   UNL     1      42.289 -12.245  -2.627  1.00  0.00    -0.062 A 
HETATM   24  C   UNL     1      42.593 -11.652  -3.971  1.00  0.00     0.048 C 
HETATM   25  C   UNL     1      41.761 -13.536  -2.525  1.00  0.00     0.007 A 
HETATM   26  C   UNL     1      41.465 -14.085  -1.274  1.00  0.00     0.011 A 
ENDBRANCH   4  20
TORSDOF 2
ENDMDL
MODEL 5
REMARK VINA RESULT:      -8.5      1.188      1.648
REMARK  2 active torsions:
REMARK  status: ('A' for Active; 'I' for Inactive)
REMARK    1  A    between atoms: C_5  and  C_6 
REMARK    2  A    between atoms: C_9  and  C_10 
ROOT
HETATM    1  C   UNL     1      40.683 -14.174   5.378  1.00  0.00     0.220 C 
HETATM    2  N   UNL     1      41.806 -14.866   4.772  1.00  0.00    -0.126 NA
HETATM    3  N   UNL     1      41.679 -16.237   5.086  1.00  0.00    -0.126 NA
HETATM    4  C   UNL     1      43.017 -16.770   5.262  1.00  0.00     0.220 C 
HETATM    5  N   UNL     1      43.884 -15.650   5.002  1.00  0.00    -0.324 N 
HETATM    6  C   UNL     1      43.129 -14.485   4.927  1.00  0.00     0.315 C 
HETATM    7  O   UNL     1      43.572 -13.359   5.069  1.00  0.00    -0.252 OA
HETATM    8  C   UNL     1      40.650 -16.400   5.999  1.00  0.00     0.315 C 
HETATM    9  O   UNL     1      40.450 -17.346   6.741  1.00  0.00    -0.252 OA
HETATM   10  N   UNL     1      39.918 -15.218   6.008  1.00  0.00    -0.324 N 
HETATM   11  H   UNL     1      44.851 -15.607   5.283  1.00  0.00     0.165 HD
HETATM   12  H   UNL     1      39.225 -15.059   6.722  1.00  0.00     0.165 HD
ENDROOT
BRANCH   1  13
HETATM   13  C   UNL     1      39.865 -13.396   4.375  1.00  0.00    -0.020 A 
HETATM   14  C   UNL     1      39.684 -13.862   3.062  1.00  0.00     0.011 A 
HETATM   15  C   UNL     1      38.975 -13.108   2.126  1.00  0.00     0.007 A 
HETATM   16  C   UNL     1      38.426 -11.873   2.482  1.00  0.00    -0.062 A 
HETATM   17  C   UNL     1      37.672 -11.053   1.478  1.00  0.00     0.048 C 
HETATM   18  C   UNL     1      38.557 -11.428   3.802  1.00  0.00     0.007 A 
HETATM   19  C   UNL     1      39.271 -12.179   4.739  1.00  0.00     0.011 A 
ENDBRANCH   1  13
BRANCH   4  20
HETATM   20  C   UNL     1      43.307 -17.937   4.350  1.00  0.00    -0.020 A 
HETATM   21  C   UNL     1      42.669 -18.068   3.104  1.00  0.00     0.011 A 
HETATM   22  C   UNL     1      42.900 -19.181   2.294  1.00  0.00     0.007 A 
HETATM   23  C   UNL     1      43.776 -20.188   2.709  1.00  0.00    -0.062 A 
HETATM   24  C   UNL     1      44.019 -21.389   1.844  1.00  0.00     0.048 C 
HETATM   25  C   UNL     1      44.457 -20.039   3.922  1.00  0.00     0.007 A 
HETATM   26  C   UNL     1      44.223 -18.927   4.736  1.00  0.00     0.011 A 
ENDBRANCH   4  20
TORSDOF 2
ENDMDL
MODEL 6
REMARK VINA RESULT:      -8.3      3.012      5.266
REMARK  2 active torsions:
REMARK  status: ('A' for Active; 'I' for Inactive)
REMARK    1  A    between atoms: C_5  and  C_6 
REMARK    2  A    between atoms: C_9  and  C_10 
ROOT
HETATM    1  C   UNL     1      42.261 -13.738   5.223  1.00  0.00     0.220 C 
HETATM    2  N   UNL     1      42.138 -15.184   5.177  1.00  0.00    -0.126 NA
HETATM    3  N   UNL     1      42.575 -15.608   3.903  1.00  0.00    -0.126 NA
HETATM    4  C   UNL     1      41.763 -16.748   3.519  1.00  0.00     0.220 C 
HETATM    5  N   UNL     1      40.886 -16.954   4.642  1.00  0.00    -0.324 N 
HETATM    6  C   UNL     1      40.987 -15.878   5.515  1.00  0.00     0.315 C 
HETATM    7  O   UNL     1      40.151 -15.579   6.350  1.00  0.00    -0.252 OA
HETATM    8  C   UNL     1      42.784 -14.497   3.102  1.00  0.00     0.315 C 
HETATM    9  O   UNL     1      42.841 -14.450   1.886  1.00  0.00    -0.252 OA
HETATM   10  N   UNL     1      42.811 -13.387   3.940  1.00  0.00    -0.324 N 
HETATM   11  H   UNL     1      40.035 -17.494   4.603  1.00  0.00     0.165 HD
HETATM   12  H   UNL     1      42.785 -12.459   3.548  1.00  0.00     0.165 HD
ENDROOT
BRANCH   1  13
HETATM   13  C   UNL     1      43.126 -13.261   6.363  1.00  0.00    -0.020 A 
HETATM   14  C   UNL     1      44.350 -13.883   6.662  1.00  0.00     0.011 A 
HETATM   15  C   UNL     1      45.115 -13.471   7.755  1.00  0.00     0.007 A 
HETATM   16  C   UNL     1      44.677 -12.424   8.570  1.00  0.00    -0.062 A 
HETATM   17  C   UNL     1      45.489 -11.983   9.751  1.00  0.00     0.048 C 
HETATM   18  C   UNL     1      43.486 -11.764   8.246  1.00  0.00     0.007 A 
HETATM   19  C   UNL     1      42.717 -12.179   7.156  1.00  0.00     0.011 A 
ENDBRANCH   1  13
BRANCH   4  20
HETATM   20  C   UNL     1      42.587 -17.974   3.207  1.00  0.00    -0.020 A 
HETATM   21  C   UNL     1      42.554 -18.573   1.936  1.00  0.00     0.011 A 
HETATM   22  C   UNL     1      43.274 -19.740   1.676  1.00  0.00     0.007 A 
HETATM   23  C   UNL     1      44.045 -20.334   2.679  1.00  0.00    -0.062 A 
HETATM   24  C   UNL     1      44.811 -21.594   2.403  1.00  0.00     0.048 C 
HETATM   25  C   UNL     1      44.127 -19.714   3.930  1.00  0.00     0.007 A 
HETATM   26  C   UNL     1      43.404 -18.547   4.193  1.00  0.00     0.011 A 
ENDBRANCH   4  20
TORSDOF 2
ENDMDL
MODEL 7
REMARK VINA RESULT:      -8.2      1.620      2.144
REMARK  2 active torsions:
REMARK  status: ('A' for Active; 'I' for Inactive)
REMARK    1  A    between atoms: C_5  and  C_6 
REMARK    2  A    between atoms: C_9  and  C_10 
ROOT
HETATM    1  C   UNL     1      40.767 -14.609   4.822  1.00  0.00     0.220 C 
HETATM    2  N   UNL     1      41.991 -15.386   4.737  1.00  0.00    -0.126 NA
HETATM    3  N   UNL     1      41.806 -16.556   5.506  1.00  0.00    -0.126 NA
HETATM    4  C   UNL     1      43.081 -16.886   6.114  1.00  0.00     0.220 C 
HETATM    5  N   UNL     1      43.981 -15.873   5.625  1.00  0.00    -0.324 N 
HETATM    6  C   UNL     1      43.255 -14.876   4.985  1.00  0.00     0.315 C 
HETATM    7  O   UNL     1      43.658 -13.745   4.780  1.00  0.00    -0.252 OA
HETATM    8  C   UNL     1      40.614 -16.456   6.206  1.00  0.00     0.315 C 
HETATM    9  O   UNL     1      40.270 -17.081   7.193  1.00  0.00    -0.252 OA
HETATM   10  N   UNL     1      39.893 -15.410   5.639  1.00  0.00    -0.324 N 
HETATM   11  H   UNL     1      44.872 -15.657   6.045  1.00  0.00     0.165 HD
HETATM   12  H   UNL     1      39.070 -15.057   6.101  1.00  0.00     0.165 HD
ENDROOT
BRANCH   1  13
HETATM   13  C   UNL     1      40.168 -14.313   3.470  1.00  0.00    -0.020 A 
HETATM   14  C   UNL     1      39.877 -12.997   3.072  1.00  0.00     0.011 A 
HETATM   15  C   UNL     1      39.269 -12.738   1.842  1.00  0.00     0.007 A 
HETATM   16  C   UNL     1      38.942 -13.787   0.979  1.00  0.00    -0.062 A 
HETATM   17  C   UNL     1      38.280 -13.516  -0.338  1.00  0.00     0.048 C 
HETATM   18  C   UNL     1      39.278 -15.096   1.346  1.00  0.00     0.007 A 
HETATM   19  C   UNL     1      39.881 -15.357   2.578  1.00  0.00     0.011 A 
ENDBRANCH   1  13
BRANCH   4  20
HETATM   20  C   UNL     1      43.551 -18.278   5.769  1.00  0.00    -0.020 A 
HETATM   21  C   UNL     1      43.546 -19.309   6.724  1.00  0.00     0.011 A 
HETATM   22  C   UNL     1      44.038 -20.578   6.412  1.00  0.00     0.007 A 
HETATM   23  C   UNL     1      44.542 -20.846   5.136  1.00  0.00    -0.062 A 
HETATM   24  C   UNL     1      45.079 -22.206   4.802  1.00  0.00     0.048 C 
HETATM   25  C   UNL     1      44.500 -19.842   4.164  1.00  0.00     0.007 A 
HETATM   26  C   UNL     1      44.012 -18.570   4.477  1.00  0.00     0.011 A 
ENDBRANCH   4  20
TORSDOF 2
ENDMDL
MODEL 8
REMARK VINA RESULT:      -8.1      2.111      7.244
REMARK  2 active torsions:
REMARK  status: ('A' for Active; 'I' for Inactive)
REMARK    1  A    between atoms: C_5  and  C_6 
REMARK    2  A    between atoms: C_9  and  C_10 
ROOT
HETATM    1  C   UNL     1      43.041 -16.909   5.724  1.00  0.00     0.220 C 
HETATM    2  N   UNL     1      41.851 -16.131   5.428  1.00  0.00    -0.126 NA
HETATM    3  N   UNL     1      42.232 -14.772   5.381  1.00  0.00    -0.126 NA
HETATM    4  C   UNL     1      41.130 -13.990   5.907  1.00  0.00     0.220 C 
HETATM    5  N   UNL     1      40.116 -14.966   6.216  1.00  0.00    -0.324 N 
HETATM    6  C   UNL     1      40.657 -16.243   6.122  1.00  0.00     0.315 C 
HETATM    7  O   UNL     1      40.186 -17.237   6.646  1.00  0.00    -0.252 OA
HETATM    8  C   UNL     1      43.544 -14.654   5.810  1.00  0.00     0.315 C 
HETATM    9  O   UNL     1      44.113 -13.655   6.214  1.00  0.00    -0.252 OA
HETATM   10  N   UNL     1      44.095 -15.932   5.804  1.00  0.00    -0.324 N 
HETATM   11  H   UNL     1      39.333 -14.794   6.826  1.00  0.00     0.165 HD
HETATM   12  H   UNL     1      44.988 -16.098   6.240  1.00  0.00     0.165 HD
ENDROOT
BRANCH   1  13
HETATM   13  C   UNL     1      43.323 -17.964   4.682  1.00  0.00    -0.020 A 
HETATM   14  C   UNL     1      42.692 -17.939   3.427  1.00  0.00     0.011 A 
HETATM   15  C   UNL     1      42.916 -18.952   2.492  1.00  0.00     0.007 A 
HETATM   16  C   UNL     1      43.779 -20.010   2.789  1.00  0.00    -0.062 A 
HETATM   17  C   UNL     1      44.016 -21.106   1.794  1.00  0.00     0.048 C 
HETATM   18  C   UNL     1      44.452 -20.013   4.016  1.00  0.00     0.007 A 
HETATM   19  C   UNL     1      44.225 -19.003   4.955  1.00  0.00     0.011 A 
ENDBRANCH   1  13
BRANCH   4  20
HETATM   20  C   UNL     1      40.637 -12.946   4.935  1.00  0.00    -0.020 A 
HETATM   21  C   UNL     1      39.346 -12.401   5.041  1.00  0.00     0.011 A 
HETATM   22  C   UNL     1      38.878 -11.479   4.102  1.00  0.00     0.007 A 
HETATM   23  C   UNL     1      39.692 -11.078   3.039  1.00  0.00    -0.062 A 
HETATM   24  C   UNL     1      39.189 -10.095   2.024  1.00  0.00     0.048 C 
HETATM   25  C   UNL     1      40.998 -11.574   2.958  1.00  0.00     0.007 A 
HETATM   26  C   UNL     1      41.465 -12.500   3.895  1.00  0.00     0.011 A 
ENDBRANCH   4  20
TORSDOF 2
ENDMDL
MODEL 9
REMARK VINA RESULT:      -8.1      3.699      6.505
REMARK  2 active torsions:
REMARK  status: ('A' for Active; 'I' for Inactive)
REMARK    1  A    between atoms: C_5  and  C_6 
REMARK    2  A    between atoms: C_9  and  C_10 
ROOT
HETATM    1  C   UNL     1      41.377 -16.125   3.532  1.00  0.00     0.220 C 
HETATM    2  N   UNL     1      41.942 -15.965   2.203  1.00  0.00    -0.126 NA
HETATM    3  N   UNL     1      40.972 -15.320   1.404  1.00  0.00    -0.126 NA
HETATM    4  C   UNL     1      41.088 -15.854   0.061  1.00  0.00     0.220 C 
HETATM    5  N   UNL     1      42.177 -16.793   0.143  1.00  0.00    -0.324 N 
HETATM    6  C   UNL     1      42.518 -16.993   1.475  1.00  0.00     0.315 C 
HETATM    7  O   UNL     1      43.134 -17.956   1.898  1.00  0.00    -0.252 OA
HETATM    8  C   UNL     1      39.783 -15.240   2.110  1.00  0.00     0.315 C 
HETATM    9  O   UNL     1      38.661 -15.061   1.669  1.00  0.00    -0.252 OA
HETATM   10  N   UNL     1      40.077 -15.515   3.442  1.00  0.00    -0.324 N 
HETATM   11  H   UNL     1      42.353 -17.516  -0.537  1.00  0.00     0.165 HD
HETATM   12  H   UNL     1      39.330 -15.675   4.100  1.00  0.00     0.165 HD
ENDROOT
BRANCH   1  13
HETATM   13  C   UNL     1      42.227 -15.494   4.608  1.00  0.00    -0.020 A 
HETATM   14  C   UNL     1      42.161 -14.117   4.878  1.00  0.00     0.011 A 
HETATM   15  C   UNL     1      42.993 -13.534   5.835  1.00  0.00     0.007 A 
HETATM   16  C   UNL     1      43.907 -14.315   6.548  1.00  0.00    -0.062 A 
HETATM   17  C   UNL     1      44.810 -13.693   7.570  1.00  0.00     0.048 C 
HETATM   18  C   UNL     1      43.940 -15.696   6.322  1.00  0.00     0.007 A 
HETATM   19  C   UNL     1      43.112 -16.280   5.361  1.00  0.00     0.011 A 
ENDBRANCH   1  13
BRANCH   4  20
HETATM   20  C   UNL     1      41.336 -14.784  -0.975  1.00  0.00    -0.020 A 
HETATM   21  C   UNL     1      41.065 -15.007  -2.336  1.00  0.00     0.011 A 
HETATM   22  C   UNL     1      41.353 -14.032  -3.293  1.00  0.00     0.007 A 
HETATM   23  C   UNL     1      41.915 -12.811  -2.911  1.00  0.00    -0.062 A 
HETATM   24  C   UNL     1      42.233 -11.766  -3.939  1.00  0.00     0.048 C 
HETATM   25  C   UNL     1      42.137 -12.560  -1.553  1.00  0.00     0.007 A 
HETATM   26  C   UNL     1      41.853 -13.537  -0.594  1.00  0.00     0.011 A 
ENDBRANCH   4  20
TORSDOF 2
ENDMDL
MODEL 10
REMARK VINA RESULT:      -8.0      3.679      6.884
REMARK  2 active torsions:
REMARK  status: ('A' for Active; 'I' for Inactive)
REMARK    1  A    between atoms: C_5  and  C_6 
REMARK    2  A    between atoms: C_9  and  C_10 
ROOT
HETATM    1  C   UNL     1      40.606 -16.636   2.653  1.00  0.00     0.220 C 
HETATM    2  N   UNL     1      41.478 -15.988   1.690  1.00  0.00    -0.126 NA
HETATM    3  N   UNL     1      40.783 -14.876   1.167  1.00  0.00    -0.126 NA
HETATM    4  C   UNL     1      41.166 -14.736  -0.225  1.00  0.00     0.220 C 
HETATM    5  N   UNL     1      42.121 -15.792  -0.439  1.00  0.00    -0.324 N 
HETATM    6  C   UNL     1      42.121 -16.648   0.656  1.00  0.00     0.315 C 
HETATM    7  O   UNL     1      42.536 -17.794   0.642  1.00  0.00    -0.252 OA
HETATM    8  C   UNL     1      39.471 -14.911   1.614  1.00  0.00     0.315 C 
HETATM    9  O   UNL     1      38.504 -14.340   1.142  1.00  0.00    -0.252 OA
HETATM   10  N   UNL     1      39.419 -15.822   2.664  1.00  0.00    -0.324 N 
HETATM   11  H   UNL     1      42.390 -16.136  -1.348  1.00  0.00     0.165 HD
HETATM   12  H   UNL     1      38.529 -16.125   3.024  1.00  0.00     0.165 HD
ENDROOT
BRANCH   1  13
HETATM   13  C   UNL     1      41.229 -16.751   4.023  1.00  0.00    -0.020 A 
HETATM   14  C   UNL     1      41.035 -15.759   4.999  1.00  0.00     0.011 A 
HETATM   15  C   UNL     1      41.662 -15.845   6.243  1.00  0.00     0.007 A 
HETATM   16  C   UNL     1      42.495 -16.928   6.542  1.00  0.00    -0.062 A 
HETATM   17  C   UNL     1      43.180 -17.021   7.872  1.00  0.00     0.048 C 
HETATM   18  C   UNL     1      42.650 -17.946   5.594  1.00  0.00     0.007 A 
HETATM   19  C   UNL     1      42.027 -17.858   4.347  1.00  0.00     0.011 A 
ENDBRANCH   1  13
BRANCH   4  20
HETATM   20  C   UNL     1      41.740 -13.377  -0.540  1.00  0.00    -0.020 A 
HETATM   21  C   UNL     1      42.271 -13.083  -1.807  1.00  0.00     0.011 A 
HETATM   22  C   UNL     1      42.853 -11.842  -2.071  1.00  0.00     0.007 A 
HETATM   23  C   UNL     1      42.914 -10.864  -1.073  1.00  0.00    -0.062 A 
HETATM   24  C   UNL     1      43.547  -9.533  -1.352  1.00  0.00     0.048 C 
HETATM   25  C   UNL     1      42.339 -11.128   0.174  1.00  0.00     0.007 A 
HETATM   26  C   UNL     1      41.760 -12.372   0.439  1.00  0.00     0.011 A 
ENDBRANCH   4  20
TORSDOF 2
ENDMDL
