MODEL 1
REMARK VINA RESULT:      -9.7      0.000      0.000
REMARK  3 active torsions:
REMARK  status: ('A' for Active; 'I' for Inactive)
REMARK    1  A    between atoms: N_9  and  C_10 
REMARK    2  A    between atoms: C_10  and  C_11 
REMARK    3  A    between atoms: C_11  and  C_12 
REMARK       I    between atoms: C_12  and  N_13 
ROOT
HETATM    1  C   UNL     1      42.690 -14.424   4.664  1.00  0.00     0.221 C 
HETATM    2  N   UNL     1      41.731 -14.458   3.647  1.00  0.00    -0.352 N 
HETATM    3  C   UNL     1      40.845 -15.600   3.418  1.00  0.00     0.129 C 
HETATM    4  C   UNL     1      39.523 -15.183   2.785  1.00  0.00     0.068 C 
HETATM    5  C   UNL     1      39.714 -14.318   1.530  1.00  0.00     0.094 C 
HETATM    6  N   UNL     1      38.415 -13.845   1.099  1.00  0.00    -0.334 N 
HETATM    7  C   UNL     1      38.182 -13.349  -0.156  1.00  0.00     0.255 C 
HETATM    8  O   UNL     1      37.228 -12.615  -0.383  1.00  0.00    -0.268 OA
HETATM    9  C   UNL     1      39.122 -13.772  -1.208  1.00  0.00     0.053 A 
HETATM   10  C   UNL     1      40.144 -14.659  -0.851  1.00  0.00     0.026 A 
HETATM   11  N   UNL     1      40.258 -15.151   0.457  1.00  0.00    -0.265 NA
HETATM   12  C   UNL     1      38.968 -13.323  -2.524  1.00  0.00     0.019 A 
HETATM   13  C   UNL     1      39.833 -13.790  -3.512  1.00  0.00     0.001 A 
HETATM   14  C   UNL     1      40.827 -14.711  -3.183  1.00  0.00     0.002 A 
HETATM   15  C   UNL     1      40.971 -15.153  -1.864  1.00  0.00     0.024 A 
HETATM   16  C   UNL     1      40.635 -13.132   1.856  1.00  0.00     0.068 C 
HETATM   17  C   UNL     1      41.940 -13.568   2.508  1.00  0.00     0.129 C 
HETATM   18  O   UNL     1      43.576 -13.571   4.698  1.00  0.00    -0.273 OA
HETATM   19  H   UNL     1      37.787 -13.461   1.791  1.00  0.00     0.164 HD
HETATM   20  H   UNL     1      41.184 -15.525   0.641  1.00  0.00     0.130 HD
ENDROOT
BRANCH   1  21
HETATM   21  C   UNL     1      42.594 -15.489   5.738  1.00  0.00     0.123 C 
BRANCH  21  22
HETATM   22  C   UNL     1      43.958 -16.106   6.027  1.00  0.00     0.138 C 
BRANCH  22  23
HETATM   23  N   UNL     1      43.972 -17.530   5.717  1.00  0.00    -0.349 N 
HETATM   24  C   UNL     1      43.970 -18.040   4.431  1.00  0.00     0.045 A 
HETATM   25  C   UNL     1      43.966 -19.431   4.544  1.00  0.00    -0.001 A 
HETATM   26  C   UNL     1      43.971 -17.396   3.181  1.00  0.00     0.030 A 
HETATM   27  C   UNL     1      43.967 -19.752   5.938  1.00  0.00    -0.027 A 
HETATM   28  C   UNL     1      43.963 -20.205   3.362  1.00  0.00     0.014 A 
HETATM   29  C   UNL     1      43.971 -21.119   6.530  1.00  0.00     0.051 C 
HETATM   30  C   UNL     1      43.966 -18.556   6.641  1.00  0.00     0.015 A 
HETATM   31  C   UNL     1      43.977 -18.330   8.114  1.00  0.00     0.069 C 
HETATM   32  C   UNL     1      43.967 -19.573   2.115  1.00  0.00     0.001 A 
HETATM   33  C   UNL     1      43.971 -18.186   2.028  1.00  0.00     0.002 A 
ENDBRANCH  22  23
ENDBRANCH  21  22
ENDBRANCH   1  21
TORSDOF 3
ENDMDL
MODEL 2
REMARK VINA RESULT:      -9.7      2.671      3.882
REMARK  3 active torsions:
REMARK  status: ('A' for Active; 'I' for Inactive)
REMARK    1  A    between atoms: N_9  and  C_10 
REMARK    2  A    between atoms: C_10  and  C_11 
REMARK    3  A    between atoms: C_11  and  C_12 
REMARK       I    between atoms: C_12  and  N_13 
ROOT
HETATM    1  C   UNL     1      40.396 -13.424   3.663  1.00  0.00     0.221 C 
HETATM    2  N   UNL     1      40.906 -13.482   2.363  1.00  0.00    -0.352 N 
HETATM    3  C   UNL     1      42.265 -13.930   2.053  1.00  0.00     0.129 C 
HETATM    4  C   UNL     1      42.365 -14.541   0.662  1.00  0.00     0.068 C 
HETATM    5  C   UNL     1      41.777 -13.633  -0.428  1.00  0.00     0.094 C 
HETATM    6  N   UNL     1      41.775 -14.362  -1.679  1.00  0.00    -0.334 N 
HETATM    7  C   UNL     1      41.645 -13.751  -2.898  1.00  0.00     0.255 C 
HETATM    8  O   UNL     1      41.261 -14.369  -3.882  1.00  0.00    -0.268 OA
HETATM    9  C   UNL     1      42.021 -12.327  -2.954  1.00  0.00     0.053 A 
HETATM   10  C   UNL     1      42.501 -11.733  -1.783  1.00  0.00     0.026 A 
HETATM   11  N   UNL     1      42.647 -12.469  -0.598  1.00  0.00    -0.265 NA
HETATM   12  C   UNL     1      41.928 -11.613  -4.154  1.00  0.00     0.019 A 
HETATM   13  C   UNL     1      42.350 -10.286  -4.195  1.00  0.00     0.001 A 
HETATM   14  C   UNL     1      42.877  -9.691  -3.048  1.00  0.00     0.002 A 
HETATM   15  C   UNL     1      42.966 -10.416  -1.855  1.00  0.00     0.024 A 
HETATM   16  C   UNL     1      40.346 -13.225  -0.043  1.00  0.00     0.068 C 
HETATM   17  C   UNL     1      40.264 -12.638   1.358  1.00  0.00     0.129 C 
HETATM   18  O   UNL     1      39.351 -12.831   3.928  1.00  0.00    -0.273 OA
HETATM   19  H   UNL     1      41.431 -15.313  -1.683  1.00  0.00     0.164 HD
HETATM   20  H   UNL     1      42.710 -11.866   0.217  1.00  0.00     0.130 HD
ENDROOT
BRANCH   1  21
HETATM   21  C   UNL     1      41.186 -14.129   4.746  1.00  0.00     0.123 C 
BRANCH  21  22
HETATM   22  C   UNL     1      40.640 -15.529   5.006  1.00  0.00     0.138 C 
BRANCH  22  23
HETATM   23  N   UNL     1      41.569 -16.554   4.543  1.00  0.00    -0.349 N 
HETATM   24  C   UNL     1      42.678 -16.968   5.258  1.00  0.00     0.045 A 
HETATM   25  C   UNL     1      43.321 -17.938   4.487  1.00  0.00    -0.001 A 
HETATM   26  C   UNL     1      43.171 -16.572   6.514  1.00  0.00     0.030 A 
HETATM   27  C   UNL     1      42.567 -18.102   3.283  1.00  0.00    -0.027 A 
HETATM   28  C   UNL     1      44.498 -18.532   4.992  1.00  0.00     0.014 A 
HETATM   29  C   UNL     1      42.877 -19.039   2.167  1.00  0.00     0.051 C 
HETATM   30  C   UNL     1      41.490 -17.229   3.343  1.00  0.00     0.015 A 
HETATM   31  C   UNL     1      40.398 -17.013   2.353  1.00  0.00     0.069 C 
HETATM   32  C   UNL     1      44.993 -18.146   6.242  1.00  0.00     0.001 A 
HETATM   33  C   UNL     1      44.336 -17.178   6.992  1.00  0.00     0.002 A 
ENDBRANCH  22  23
ENDBRANCH  21  22
ENDBRANCH   1  21
TORSDOF 3
ENDMDL
MODEL 3
REMARK VINA RESULT:      -9.6      2.300      2.870
REMARK  3 active torsions:
REMARK  status: ('A' for Active; 'I' for Inactive)
REMARK    1  A    between atoms: N_9  and  C_10 
REMARK    2  A    between atoms: C_10  and  C_11 
REMARK    3  A    between atoms: C_11  and  C_12 
REMARK       I    between atoms: C_12  and  N_13 
ROOT
HETATM    1  C   UNL     1      40.463 -14.593   3.637  1.00  0.00     0.221 C 
HETATM    2  N   UNL     1      40.841 -14.609   2.291  1.00  0.00    -0.352 N 
HETATM    3  C   UNL     1      42.112 -15.162   1.821  1.00  0.00     0.129 C 
HETATM    4  C   UNL     1      42.019 -15.681   0.392  1.00  0.00     0.068 C 
HETATM    5  C   UNL     1      41.426 -14.647  -0.577  1.00  0.00     0.094 C 
HETATM    6  N   UNL     1      41.232 -15.284  -1.863  1.00  0.00    -0.334 N 
HETATM    7  C   UNL     1      41.052 -14.580  -3.024  1.00  0.00     0.255 C 
HETATM    8  O   UNL     1      40.516 -15.089  -4.000  1.00  0.00    -0.268 OA
HETATM    9  C   UNL     1      41.564 -13.198  -3.032  1.00  0.00     0.053 A 
HETATM   10  C   UNL     1      42.210 -12.736  -1.881  1.00  0.00     0.026 A 
HETATM   11  N   UNL     1      42.391 -13.563  -0.763  1.00  0.00    -0.265 NA
HETATM   12  C   UNL     1      41.433 -12.397  -4.171  1.00  0.00     0.019 A 
HETATM   13  C   UNL     1      41.982 -11.117  -4.174  1.00  0.00     0.001 A 
HETATM   14  C   UNL     1      42.672 -10.656  -3.053  1.00  0.00     0.002 A 
HETATM   15  C   UNL     1      42.798 -11.467  -1.920  1.00  0.00     0.024 A 
HETATM   16  C   UNL     1      40.086 -14.133  -0.026  1.00  0.00     0.068 C 
HETATM   17  C   UNL     1      40.196 -13.639   1.409  1.00  0.00     0.129 C 
HETATM   18  O   UNL     1      39.513 -13.923   4.041  1.00  0.00    -0.273 OA
HETATM   19  H   UNL     1      40.795 -16.195  -1.890  1.00  0.00     0.164 HD
HETATM   20  H   UNL     1      42.591 -13.027   0.076  1.00  0.00     0.130 HD
ENDROOT
BRANCH   1  21
HETATM   21  C   UNL     1      41.276 -15.444   4.591  1.00  0.00     0.123 C 
BRANCH  21  22
HETATM   22  C   UNL     1      40.981 -16.927   4.396  1.00  0.00     0.138 C 
BRANCH  22  23
HETATM   23  N   UNL     1      42.118 -17.750   4.792  1.00  0.00    -0.349 N 
HETATM   24  C   UNL     1      42.834 -18.547   3.917  1.00  0.00     0.045 A 
HETATM   25  C   UNL     1      43.823 -19.188   4.666  1.00  0.00    -0.001 A 
HETATM   26  C   UNL     1      42.695 -18.760   2.535  1.00  0.00     0.030 A 
HETATM   27  C   UNL     1      43.688 -18.753   6.022  1.00  0.00    -0.027 A 
HETATM   28  C   UNL     1      44.704 -20.072   4.006  1.00  0.00     0.014 A 
HETATM   29  C   UNL     1      44.536 -19.172   7.173  1.00  0.00     0.051 C 
HETATM   30  C   UNL     1      42.621 -17.867   6.071  1.00  0.00     0.015 A 
HETATM   31  C   UNL     1      42.069 -17.122   7.238  1.00  0.00     0.069 C 
HETATM   32  C   UNL     1      44.575 -20.287   2.630  1.00  0.00     0.001 A 
HETATM   33  C   UNL     1      43.582 -19.638   1.905  1.00  0.00     0.002 A 
ENDBRANCH  22  23
ENDBRANCH  21  22
ENDBRANCH   1  21
TORSDOF 3
ENDMDL
MODEL 4
REMARK VINA RESULT:      -9.6      2.096      2.640
REMARK  3 active torsions:
REMARK  status: ('A' for Active; 'I' for Inactive)
REMARK    1  A    between atoms: N_9  and  C_10 
REMARK    2  A    between atoms: C_10  and  C_11 
REMARK    3  A    between atoms: C_11  and  C_12 
REMARK       I    between atoms: C_12  and  N_13 
ROOT
HETATM    1  C   UNL     1      40.723 -15.669   3.423  1.00  0.00     0.221 C 
HETATM    2  N   UNL     1      40.784 -15.435   2.045  1.00  0.00    -0.352 N 
HETATM    3  C   UNL     1      41.633 -16.209   1.138  1.00  0.00     0.129 C 
HETATM    4  C   UNL     1      41.064 -16.263  -0.274  1.00  0.00     0.068 C 
HETATM    5  C   UNL     1      40.716 -14.872  -0.827  1.00  0.00     0.094 C 
HETATM    6  N   UNL     1      40.041 -15.041  -2.097  1.00  0.00    -0.334 N 
HETATM    7  C   UNL     1      39.904 -14.028  -3.008  1.00  0.00     0.255 C 
HETATM    8  O   UNL     1      39.030 -14.057  -3.866  1.00  0.00    -0.268 OA
HETATM    9  C   UNL     1      40.881 -12.929  -2.911  1.00  0.00     0.053 A 
HETATM   10  C   UNL     1      41.873 -13.025  -1.929  1.00  0.00     0.026 A 
HETATM   11  N   UNL     1      41.956 -14.138  -1.081  1.00  0.00    -0.265 NA
HETATM   12  C   UNL     1      40.829 -11.849  -3.798  1.00  0.00     0.019 A 
HETATM   13  C   UNL     1      41.804 -10.856  -3.724  1.00  0.00     0.001 A 
HETATM   14  C   UNL     1      42.828 -10.959  -2.784  1.00  0.00     0.002 A 
HETATM   15  C   UNL     1      42.870 -12.045  -1.903  1.00  0.00     0.024 A 
HETATM   16  C   UNL     1      39.807 -14.134   0.169  1.00  0.00     0.068 C 
HETATM   17  C   UNL     1      40.383 -14.111   1.577  1.00  0.00     0.129 C 
HETATM   18  O   UNL     1      40.195 -14.871   4.197  1.00  0.00    -0.273 OA
HETATM   19  H   UNL     1      39.299 -15.725  -2.162  1.00  0.00     0.164 HD
HETATM   20  H   UNL     1      42.508 -13.942  -0.251  1.00  0.00     0.130 HD
ENDROOT
BRANCH   1  21
HETATM   21  C   UNL     1      41.335 -16.958   3.931  1.00  0.00     0.123 C 
BRANCH  21  22
HETATM   22  C   UNL     1      42.724 -16.719   4.512  1.00  0.00     0.138 C 
BRANCH  22  23
HETATM   23  N   UNL     1      43.234 -17.913   5.175  1.00  0.00    -0.349 N 
HETATM   24  C   UNL     1      43.784 -18.991   4.505  1.00  0.00     0.045 A 
HETATM   25  C   UNL     1      44.134 -19.936   5.472  1.00  0.00    -0.001 A 
HETATM   26  C   UNL     1      44.000 -19.217   3.135  1.00  0.00     0.030 A 
HETATM   27  C   UNL     1      43.783 -19.397   6.750  1.00  0.00    -0.027 A 
HETATM   28  C   UNL     1      44.723 -21.148   5.050  1.00  0.00     0.014 A 
HETATM   29  C   UNL     1      43.982 -20.056   8.071  1.00  0.00     0.051 C 
HETATM   30  C   UNL     1      43.224 -18.146   6.535  1.00  0.00     0.015 A 
HETATM   31  C   UNL     1      42.703 -17.165   7.529  1.00  0.00     0.069 C 
HETATM   32  C   UNL     1      44.945 -21.378   3.688  1.00  0.00     0.001 A 
HETATM   33  C   UNL     1      44.588 -20.423   2.744  1.00  0.00     0.002 A 
ENDBRANCH  22  23
ENDBRANCH  21  22
ENDBRANCH   1  21
TORSDOF 3
ENDMDL
MODEL 5
REMARK VINA RESULT:      -9.5      2.347      8.457
REMARK  3 active torsions:
REMARK  status: ('A' for Active; 'I' for Inactive)
REMARK    1  A    between atoms: N_9  and  C_10 
REMARK    2  A    between atoms: C_10  and  C_11 
REMARK    3  A    between atoms: C_11  and  C_12 
REMARK       I    between atoms: C_12  and  N_13 
ROOT
HETATM    1  C   UNL     1      40.590 -14.810   2.713  1.00  0.00     0.221 C 
HETATM    2  N   UNL     1      41.501 -15.640   3.373  1.00  0.00    -0.352 N 
HETATM    3  C   UNL     1      42.925 -15.328   3.499  1.00  0.00     0.129 C 
HETATM    4  C   UNL     1      43.539 -15.945   4.749  1.00  0.00     0.068 C 
HETATM    5  C   UNL     1      43.247 -17.449   4.873  1.00  0.00     0.094 C 
HETATM    6  N   UNL     1      43.732 -17.904   6.160  1.00  0.00    -0.334 N 
HETATM    7  C   UNL     1      43.944 -19.225   6.450  1.00  0.00     0.255 C 
HETATM    8  O   UNL     1      43.971 -19.626   7.607  1.00  0.00    -0.268 OA
HETATM    9  C   UNL     1      44.165 -20.117   5.298  1.00  0.00     0.053 A 
HETATM   10  C   UNL     1      44.170 -19.545   4.022  1.00  0.00     0.026 A 
HETATM   11  N   UNL     1      43.998 -18.165   3.841  1.00  0.00    -0.265 NA
HETATM   12  C   UNL     1      44.395 -21.484   5.490  1.00  0.00     0.019 A 
HETATM   13  C   UNL     1      44.665 -22.293   4.388  1.00  0.00     0.001 A 
HETATM   14  C   UNL     1      44.721 -21.731   3.113  1.00  0.00     0.002 A 
HETATM   15  C   UNL     1      44.491 -20.363   2.934  1.00  0.00     0.024 A 
HETATM   16  C   UNL     1      41.734 -17.691   4.753  1.00  0.00     0.068 C 
HETATM   17  C   UNL     1      41.137 -17.049   3.510  1.00  0.00     0.129 C 
HETATM   18  O   UNL     1      39.459 -15.190   2.412  1.00  0.00    -0.273 OA
HETATM   19  H   UNL     1      43.511 -17.356   6.980  1.00  0.00     0.164 HD
HETATM   20  H   UNL     1      43.726 -17.939   2.889  1.00  0.00     0.130 HD
ENDROOT
BRANCH   1  21
HETATM   21  C   UNL     1      41.052 -13.405   2.381  1.00  0.00     0.123 C 
BRANCH  21  22
HETATM   22  C   UNL     1      40.143 -12.754   1.345  1.00  0.00     0.138 C 
BRANCH  22  23
HETATM   23  N   UNL     1      40.851 -12.519   0.093  1.00  0.00    -0.349 N 
HETATM   24  C   UNL     1      40.974 -13.462  -0.912  1.00  0.00     0.045 A 
HETATM   25  C   UNL     1      41.728 -12.876  -1.931  1.00  0.00    -0.001 A 
HETATM   26  C   UNL     1      40.490 -14.778  -1.010  1.00  0.00     0.030 A 
HETATM   27  C   UNL     1      42.057 -11.548  -1.516  1.00  0.00    -0.027 A 
HETATM   28  C   UNL     1      42.004 -13.636  -3.089  1.00  0.00     0.014 A 
HETATM   29  C   UNL     1      42.846 -10.550  -2.290  1.00  0.00     0.051 C 
HETATM   30  C   UNL     1      41.505 -11.356  -0.257  1.00  0.00     0.015 A 
HETATM   31  C   UNL     1      41.545 -10.147   0.613  1.00  0.00     0.069 C 
HETATM   32  C   UNL     1      41.523 -14.945  -3.196  1.00  0.00     0.001 A 
HETATM   33  C   UNL     1      40.775 -15.507  -2.169  1.00  0.00     0.002 A 
ENDBRANCH  22  23
ENDBRANCH  21  22
ENDBRANCH   1  21
TORSDOF 3
ENDMDL
MODEL 6
REMARK VINA RESULT:      -9.4      2.429      8.783
REMARK  3 active torsions:
REMARK  status: ('A' for Active; 'I' for Inactive)
REMARK    1  A    between atoms: N_9  and  C_10 
REMARK    2  A    between atoms: C_10  and  C_11 
REMARK    3  A    between atoms: C_11  and  C_12 
REMARK       I    between atoms: C_12  and  N_13 
ROOT
HETATM    1  C   UNL     1      41.570 -13.365   1.039  1.00  0.00     0.221 C 
HETATM    2  N   UNL     1      41.738 -14.695   1.438  1.00  0.00    -0.352 N 
HETATM    3  C   UNL     1      40.627 -15.638   1.575  1.00  0.00     0.129 C 
HETATM    4  C   UNL     1      41.064 -17.079   1.343  1.00  0.00     0.068 C 
HETATM    5  C   UNL     1      42.284 -17.471   2.191  1.00  0.00     0.094 C 
HETATM    6  N   UNL     1      42.716 -18.793   1.786  1.00  0.00    -0.334 N 
HETATM    7  C   UNL     1      43.539 -19.574   2.552  1.00  0.00     0.255 C 
HETATM    8  O   UNL     1      44.195 -20.482   2.057  1.00  0.00    -0.268 OA
HETATM    9  C   UNL     1      43.562 -19.276   3.994  1.00  0.00     0.053 A 
HETATM   10  C   UNL     1      42.730 -18.254   4.462  1.00  0.00     0.026 A 
HETATM   11  N   UNL     1      41.881 -17.550   3.595  1.00  0.00    -0.265 NA
HETATM   12  C   UNL     1      44.368 -20.020   4.863  1.00  0.00     0.019 A 
HETATM   13  C   UNL     1      44.322 -19.759   6.231  1.00  0.00     0.001 A 
HETATM   14  C   UNL     1      43.463 -18.776   6.720  1.00  0.00     0.002 A 
HETATM   15  C   UNL     1      42.661 -18.039   5.842  1.00  0.00     0.024 A 
HETATM   16  C   UNL     1      43.411 -16.449   1.976  1.00  0.00     0.068 C 
HETATM   17  C   UNL     1      42.948 -15.015   2.190  1.00  0.00     0.129 C 
HETATM   18  O   UNL     1      42.466 -12.531   1.155  1.00  0.00    -0.273 OA
HETATM   19  H   UNL     1      42.799 -18.991   0.798  1.00  0.00     0.164 HD
HETATM   20  H   UNL     1      41.576 -16.669   3.997  1.00  0.00     0.130 HD
ENDROOT
BRANCH   1  21
HETATM   21  C   UNL     1      40.226 -12.987   0.450  1.00  0.00     0.123 C 
BRANCH  21  22
HETATM   22  C   UNL     1      40.389 -12.314  -0.909  1.00  0.00     0.138 C 
BRANCH  22  23
HETATM   23  N   UNL     1      39.399 -12.800  -1.863  1.00  0.00    -0.349 N 
HETATM   24  C   UNL     1      39.477 -14.027  -2.497  1.00  0.00     0.045 A 
HETATM   25  C   UNL     1      38.368 -14.121  -3.339  1.00  0.00    -0.001 A 
HETATM   26  C   UNL     1      40.427 -15.059  -2.402  1.00  0.00     0.030 A 
HETATM   27  C   UNL     1      37.612 -12.915  -3.196  1.00  0.00    -0.027 A 
HETATM   28  C   UNL     1      38.205 -15.291  -4.113  1.00  0.00     0.014 A 
HETATM   29  C   UNL     1      36.343 -12.579  -3.900  1.00  0.00     0.051 C 
HETATM   30  C   UNL     1      38.277 -12.114  -2.279  1.00  0.00     0.015 A 
HETATM   31  C   UNL     1      37.908 -10.763  -1.769  1.00  0.00     0.069 C 
HETATM   32  C   UNL     1      39.144 -16.324  -4.022  1.00  0.00     0.001 A 
HETATM   33  C   UNL     1      40.240 -16.207  -3.176  1.00  0.00     0.002 A 
ENDBRANCH  22  23
ENDBRANCH  21  22
ENDBRANCH   1  21
TORSDOF 3
ENDMDL
MODEL 7
REMARK VINA RESULT:      -9.3      2.095      8.628
REMARK  3 active torsions:
REMARK  status: ('A' for Active; 'I' for Inactive)
REMARK    1  A    between atoms: N_9  and  C_10 
REMARK    2  A    between atoms: C_10  and  C_11 
REMARK    3  A    between atoms: C_11  and  C_12 
REMARK       I    between atoms: C_12  and  N_13 
ROOT
HETATM    1  C   UNL     1      40.646 -15.055   2.496  1.00  0.00     0.221 C 
HETATM    2  N   UNL     1      41.548 -15.830   3.231  1.00  0.00    -0.352 N 
HETATM    3  C   UNL     1      42.974 -15.516   3.339  1.00  0.00     0.129 C 
HETATM    4  C   UNL     1      43.577 -16.025   4.642  1.00  0.00     0.068 C 
HETATM    5  C   UNL     1      43.276 -17.510   4.894  1.00  0.00     0.094 C 
HETATM    6  N   UNL     1      43.750 -17.854   6.218  1.00  0.00    -0.334 N 
HETATM    7  C   UNL     1      43.954 -19.146   6.624  1.00  0.00     0.255 C 
HETATM    8  O   UNL     1      43.971 -19.445   7.812  1.00  0.00    -0.268 OA
HETATM    9  C   UNL     1      44.176 -20.136   5.556  1.00  0.00     0.053 A 
HETATM   10  C   UNL     1      44.192 -19.677   4.235  1.00  0.00     0.026 A 
HETATM   11  N   UNL     1      44.028 -18.317   3.933  1.00  0.00    -0.265 NA
HETATM   12  C   UNL     1      44.397 -21.482   5.867  1.00  0.00     0.019 A 
HETATM   13  C   UNL     1      44.668 -22.385   4.841  1.00  0.00     0.001 A 
HETATM   14  C   UNL     1      44.735 -21.937   3.523  1.00  0.00     0.002 A 
HETATM   15  C   UNL     1      44.514 -20.588   3.224  1.00  0.00     0.024 A 
HETATM   16  C   UNL     1      41.762 -17.754   4.786  1.00  0.00     0.068 C 
HETATM   17  C   UNL     1      41.176 -17.219   3.488  1.00  0.00     0.129 C 
HETATM   18  O   UNL     1      39.515 -15.454   2.222  1.00  0.00    -0.273 OA
HETATM   19  H   UNL     1      43.527 -17.236   6.987  1.00  0.00     0.164 HD
HETATM   20  H   UNL     1      43.763 -18.174   2.963  1.00  0.00     0.130 HD
ENDROOT
BRANCH   1  21
HETATM   21  C   UNL     1      41.119 -13.688   2.047  1.00  0.00     0.123 C 
BRANCH  21  22
HETATM   22  C   UNL     1      39.970 -12.869   1.468  1.00  0.00     0.138 C 
BRANCH  22  23
HETATM   23  N   UNL     1      39.759 -13.176   0.058  1.00  0.00    -0.349 N 
HETATM   24  C   UNL     1      40.714 -12.984  -0.924  1.00  0.00     0.045 A 
HETATM   25  C   UNL     1      40.138 -13.373  -2.135  1.00  0.00    -0.001 A 
HETATM   26  C   UNL     1      42.033 -12.503  -0.851  1.00  0.00     0.030 A 
HETATM   27  C   UNL     1      38.804 -13.808  -1.859  1.00  0.00    -0.027 A 
HETATM   28  C   UNL     1      40.911 -13.275  -3.313  1.00  0.00     0.014 A 
HETATM   29  C   UNL     1      37.817 -14.318  -2.851  1.00  0.00     0.051 C 
HETATM   30  C   UNL     1      38.595 -13.671  -0.494  1.00  0.00     0.015 A 
HETATM   31  C   UNL     1      37.382 -13.993   0.310  1.00  0.00     0.069 C 
HETATM   32  C   UNL     1      42.224 -12.800  -3.248  1.00  0.00     0.001 A 
HETATM   33  C   UNL     1      42.777 -12.419  -2.031  1.00  0.00     0.002 A 
ENDBRANCH  22  23
ENDBRANCH  21  22
ENDBRANCH   1  21
TORSDOF 3
ENDMDL
MODEL 8
REMARK VINA RESULT:      -9.3      2.448      8.956
REMARK  3 active torsions:
REMARK  status: ('A' for Active; 'I' for Inactive)
REMARK    1  A    between atoms: N_9  and  C_10 
REMARK    2  A    between atoms: C_10  and  C_11 
REMARK    3  A    between atoms: C_11  and  C_12 
REMARK       I    between atoms: C_12  and  N_13 
ROOT
HETATM    1  C   UNL     1      41.591 -13.426   0.927  1.00  0.00     0.221 C 
HETATM    2  N   UNL     1      41.801 -14.731   1.383  1.00  0.00    -0.352 N 
HETATM    3  C   UNL     1      40.744 -15.741   1.439  1.00  0.00     0.129 C 
HETATM    4  C   UNL     1      41.292 -17.155   1.299  1.00  0.00     0.068 C 
HETATM    5  C   UNL     1      42.442 -17.444   2.276  1.00  0.00     0.094 C 
HETATM    6  N   UNL     1      42.996 -18.745   1.959  1.00  0.00    -0.334 N 
HETATM    7  C   UNL     1      43.784 -19.451   2.827  1.00  0.00     0.255 C 
HETATM    8  O   UNL     1      44.543 -20.326   2.430  1.00  0.00    -0.268 OA
HETATM    9  C   UNL     1      43.642 -19.114   4.255  1.00  0.00     0.053 A 
HETATM   10  C   UNL     1      42.704 -18.137   4.604  1.00  0.00     0.026 A 
HETATM   11  N   UNL     1      41.905 -17.514   3.635  1.00  0.00    -0.265 NA
HETATM   12  C   UNL     1      44.401 -19.781   5.223  1.00  0.00     0.019 A 
HETATM   13  C   UNL     1      44.201 -19.489   6.570  1.00  0.00     0.001 A 
HETATM   14  C   UNL     1      43.236 -18.552   6.940  1.00  0.00     0.002 A 
HETATM   15  C   UNL     1      42.483 -17.892   5.963  1.00  0.00     0.024 A 
HETATM   16  C   UNL     1      43.519 -16.356   2.141  1.00  0.00     0.068 C 
HETATM   17  C   UNL     1      42.948 -14.951   2.262  1.00  0.00     0.129 C 
HETATM   18  O   UNL     1      42.418 -12.532   1.104  1.00  0.00    -0.273 OA
HETATM   19  H   UNL     1      43.191 -18.963   0.991  1.00  0.00     0.164 HD
HETATM   20  H   UNL     1      41.506 -16.644   3.976  1.00  0.00     0.130 HD
ENDROOT
BRANCH   1  21
HETATM   21  C   UNL     1      40.293 -13.152   0.195  1.00  0.00     0.123 C 
BRANCH  21  22
HETATM   22  C   UNL     1      40.552 -12.702  -1.238  1.00  0.00     0.138 C 
BRANCH  22  23
HETATM   23  N   UNL     1      39.707 -13.425  -2.181  1.00  0.00    -0.349 N 
HETATM   24  C   UNL     1      38.509 -12.939  -2.672  1.00  0.00     0.045 A 
HETATM   25  C   UNL     1      37.991 -13.917  -3.524  1.00  0.00    -0.001 A 
HETATM   26  C   UNL     1      37.837 -11.726  -2.439  1.00  0.00     0.030 A 
HETATM   27  C   UNL     1      38.912 -15.011  -3.537  1.00  0.00    -0.027 A 
HETATM   28  C   UNL     1      36.757 -13.669  -4.165  1.00  0.00     0.014 A 
HETATM   29  C   UNL     1      38.773 -16.274  -4.314  1.00  0.00     0.051 C 
HETATM   30  C   UNL     1      39.963 -14.680  -2.693  1.00  0.00     0.015 A 
HETATM   31  C   UNL     1      41.186 -15.466  -2.362  1.00  0.00     0.069 C 
HETATM   32  C   UNL     1      36.084 -12.464  -3.941  1.00  0.00     0.001 A 
HETATM   33  C   UNL     1      36.619 -11.506  -3.089  1.00  0.00     0.002 A 
ENDBRANCH  22  23
ENDBRANCH  21  22
ENDBRANCH   1  21
TORSDOF 3
ENDMDL
MODEL 9
REMARK VINA RESULT:      -9.1      6.636      9.383
REMARK  3 active torsions:
REMARK  status: ('A' for Active; 'I' for Inactive)
REMARK    1  A    between atoms: N_9  and  C_10 
REMARK    2  A    between atoms: C_10  and  C_11 
REMARK    3  A    between atoms: C_11  and  C_12 
REMARK       I    between atoms: C_12  and  N_13 
ROOT
HETATM    1  C   UNL     1      41.205 -10.256   8.048  1.00  0.00     0.221 C 
HETATM    2  N   UNL     1      40.834 -11.331   7.235  1.00  0.00    -0.352 N 
HETATM    3  C   UNL     1      39.561 -12.040   7.375  1.00  0.00     0.129 C 
HETATM    4  C   UNL     1      39.094 -12.647   6.058  1.00  0.00     0.068 C 
HETATM    5  C   UNL     1      40.178 -13.501   5.383  1.00  0.00     0.094 C 
HETATM    6  N   UNL     1      39.698 -13.899   4.076  1.00  0.00    -0.334 N 
HETATM    7  C   UNL     1      40.249 -14.928   3.361  1.00  0.00     0.255 C 
HETATM    8  O   UNL     1      40.113 -15.005   2.147  1.00  0.00    -0.268 OA
HETATM    9  C   UNL     1      40.984 -15.941   4.140  1.00  0.00     0.053 A 
HETATM   10  C   UNL     1      41.031 -15.786   5.530  1.00  0.00     0.026 A 
HETATM   11  N   UNL     1      40.381 -14.720   6.167  1.00  0.00    -0.265 NA
HETATM   12  C   UNL     1      41.582 -17.034   3.504  1.00  0.00     0.019 A 
HETATM   13  C   UNL     1      42.215 -18.010   4.271  1.00  0.00     0.001 A 
HETATM   14  C   UNL     1      42.230 -17.897   5.661  1.00  0.00     0.002 A 
HETATM   15  C   UNL     1      41.628 -16.799   6.286  1.00  0.00     0.024 A 
HETATM   16  C   UNL     1      41.472 -12.683   5.252  1.00  0.00     0.068 C 
HETATM   17  C   UNL     1      41.909 -12.066   6.573  1.00  0.00     0.129 C 
HETATM   18  O   UNL     1      42.358  -9.827   8.077  1.00  0.00    -0.273 OA
HETATM   19  H   UNL     1      39.275 -13.198   3.483  1.00  0.00     0.164 HD
HETATM   20  H   UNL     1      40.739 -14.563   7.105  1.00  0.00     0.130 HD
ENDROOT
BRANCH   1  21
HETATM   21  C   UNL     1      40.121  -9.628   8.900  1.00  0.00     0.123 C 
BRANCH  21  22
HETATM   22  C   UNL     1      39.817 -10.482  10.126  1.00  0.00     0.138 C 
BRANCH  22  23
HETATM   23  N   UNL     1      40.054  -9.741  11.359  1.00  0.00    -0.349 N 
HETATM   24  C   UNL     1      41.274  -9.697  12.010  1.00  0.00     0.045 A 
HETATM   25  C   UNL     1      41.099  -8.912  13.151  1.00  0.00    -0.001 A 
HETATM   26  C   UNL     1      42.513 -10.282  11.694  1.00  0.00     0.030 A 
HETATM   27  C   UNL     1      39.737  -8.477  13.172  1.00  0.00    -0.027 A 
HETATM   28  C   UNL     1      42.205  -8.704  14.003  1.00  0.00     0.014 A 
HETATM   29  C   UNL     1      39.102  -7.610  14.203  1.00  0.00     0.051 C 
HETATM   30  C   UNL     1      39.112  -9.010  12.053  1.00  0.00     0.015 A 
HETATM   31  C   UNL     1      37.701  -8.855  11.600  1.00  0.00     0.069 C 
HETATM   32  C   UNL     1      43.442  -9.279  13.694  1.00  0.00     0.001 A 
HETATM   33  C   UNL     1      43.592 -10.058  12.553  1.00  0.00     0.002 A 
ENDBRANCH  22  23
ENDBRANCH  21  22
ENDBRANCH   1  21
TORSDOF 3
ENDMDL
MODEL 10
REMARK VINA RESULT:      -8.9      4.015      6.797
REMARK  3 active torsions:
REMARK  status: ('A' for Active; 'I' for Inactive)
REMARK    1  A    between atoms: N_9  and  C_10 
REMARK    2  A    between atoms: C_10  and  C_11 
REMARK    3  A    between atoms: C_11  and  C_12 
REMARK       I    between atoms: C_12  and  N_13 
ROOT
HETATM    1  C   UNL     1      41.305 -15.323   4.240  1.00  0.00     0.221 C 
HETATM    2  N   UNL     1      41.123 -14.023   4.720  1.00  0.00    -0.352 N 
HETATM    3  C   UNL     1      41.870 -12.870   4.216  1.00  0.00     0.129 C 
HETATM    4  C   UNL     1      41.085 -11.572   4.353  1.00  0.00     0.068 C 
HETATM    5  C   UNL     1      40.543 -11.354   5.775  1.00  0.00     0.094 C 
HETATM    6  N   UNL     1      39.686 -10.187   5.763  1.00  0.00    -0.334 N 
HETATM    7  C   UNL     1      39.324  -9.517   6.901  1.00  0.00     0.255 C 
HETATM    8  O   UNL     1      38.327  -8.807   6.932  1.00  0.00    -0.268 OA
HETATM    9  C   UNL     1      40.214  -9.682   8.064  1.00  0.00     0.053 A 
HETATM   10  C   UNL     1      41.357 -10.471   7.902  1.00  0.00     0.026 A 
HETATM   11  N   UNL     1      41.664 -11.068   6.671  1.00  0.00    -0.265 NA
HETATM   12  C   UNL     1      39.934  -9.036   9.273  1.00  0.00     0.019 A 
HETATM   13  C   UNL     1      40.827  -9.157  10.336  1.00  0.00     0.001 A 
HETATM   14  C   UNL     1      41.995  -9.901  10.178  1.00  0.00     0.002 A 
HETATM   15  C   UNL     1      42.265 -10.541   8.964  1.00  0.00     0.024 A 
HETATM   16  C   UNL     1      39.754 -12.595   6.222  1.00  0.00     0.068 C 
HETATM   17  C   UNL     1      40.549 -13.882   6.056  1.00  0.00     0.129 C 
HETATM   18  O   UNL     1      40.850 -16.305   4.826  1.00  0.00    -0.273 OA
HETATM   19  H   UNL     1      39.000 -10.099   5.026  1.00  0.00     0.164 HD
HETATM   20  H   UNL     1      42.327 -11.831   6.775  1.00  0.00     0.130 HD
ENDROOT
BRANCH   1  21
HETATM   21  C   UNL     1      42.091 -15.480   2.955  1.00  0.00     0.123 C 
BRANCH  21  22
HETATM   22  C   UNL     1      43.545 -15.844   3.236  1.00  0.00     0.138 C 
BRANCH  22  23
HETATM   23  N   UNL     1      43.714 -17.286   3.367  1.00  0.00    -0.349 N 
HETATM   24  C   UNL     1      43.878 -17.937   4.576  1.00  0.00     0.045 A 
HETATM   25  C   UNL     1      44.026 -19.296   4.291  1.00  0.00    -0.001 A 
HETATM   26  C   UNL     1      43.910 -17.447   5.893  1.00  0.00     0.030 A 
HETATM   27  C   UNL     1      43.945 -19.451   2.871  1.00  0.00    -0.027 A 
HETATM   28  C   UNL     1      44.212 -20.195   5.364  1.00  0.00     0.014 A 
HETATM   29  C   UNL     1      44.043 -20.730   2.115  1.00  0.00     0.051 C 
HETATM   30  C   UNL     1      43.756 -18.189   2.325  1.00  0.00     0.015 A 
HETATM   31  C   UNL     1      43.599 -17.797   0.895  1.00  0.00     0.069 C 
HETATM   32  C   UNL     1      44.241 -19.716   6.678  1.00  0.00     0.001 A 
HETATM   33  C   UNL     1      44.092 -18.359   6.937  1.00  0.00     0.002 A 
ENDBRANCH  22  23
ENDBRANCH  21  22
ENDBRANCH   1  21
TORSDOF 3
ENDMDL
