MODEL 1
REMARK VINA RESULT:      -9.2      0.000      0.000
REMARK  6 active torsions:
REMARK  status: ('A' for Active; 'I' for Inactive)
REMARK    1  A    between atoms: C_2  and  C_3 
REMARK    2  A    between atoms: C_3  and  N_4 
REMARK       I    between atoms: N_4  and  C_5 
REMARK    3  A    between atoms: C_5  and  C_6 
REMARK    4  A    between atoms: C_8  and  N_9 
REMARK       I    between atoms: N_9  and  C_10 
REMARK    5  A    between atoms: C_10  and  C_11 
REMARK    6  A    between atoms: C_15  and  C_16 
ROOT
HETATM    1  N   UNL     1      44.469 -14.000   7.664  1.00  0.00    -0.322 N 
HETATM    2  C   UNL     1      43.524 -14.103   6.661  1.00  0.00     0.274 C 
HETATM    3  O   UNL     1      42.897 -13.163   6.185  1.00  0.00    -0.266 OA
HETATM    4  H   UNL     1      45.064 -14.802   7.812  1.00  0.00     0.169 HD
ENDROOT
BRANCH   1   5
HETATM    5  C   UNL     1      44.750 -12.863   8.452  1.00  0.00     0.036 A 
HETATM    6  C   UNL     1      43.808 -12.258   9.289  1.00  0.00     0.046 A 
HETATM    7  C   UNL     1      44.160 -11.148  10.070  1.00  0.00     0.034 A 
HETATM    8  C   UNL     1      45.468 -10.655  10.025  1.00  0.00     0.017 A 
HETATM    9  C   UNL     1      46.413 -11.258   9.197  1.00  0.00     0.003 A 
HETATM   10  C   UNL     1      46.056 -12.360   8.418  1.00  0.00     0.029 A 
BRANCH   7  11
HETATM   11  C   UNL     1      43.193 -10.506  11.008  1.00  0.00     0.251 C 
HETATM   12  N   UNL     1      43.716  -9.972  12.168  1.00  0.00    -0.357 N 
HETATM   13  H   UNL     1      44.678 -10.160  12.420  1.00  0.00     0.162 HD
HETATM   14  O   UNL     1      41.999 -10.488  10.735  1.00  0.00    -0.268 OA
BRANCH  12  15
HETATM   15  C   UNL     1      42.877  -9.317  13.149  1.00  0.00     0.122 C 
BRANCH  15  16
HETATM   16  C   UNL     1      42.465 -10.243  14.292  1.00  0.00     0.015 C 
HETATM   17  C   UNL     1      42.155  -9.487  15.577  1.00  0.00     0.006 C 
ENDBRANCH  15  16
ENDBRANCH  12  15
ENDBRANCH   7  11
ENDBRANCH   1   5
BRANCH   2  18
HETATM   18  C   UNL     1      43.330 -15.442   6.163  1.00  0.00     0.120 A 
HETATM   19  N   UNL     1      42.722 -16.403   6.922  1.00  0.00    -0.272 N 
HETATM   20  H   UNL     1      42.342 -16.289   7.857  1.00  0.00     0.189 HD
HETATM   21  N   UNL     1      42.662 -17.608   6.341  1.00  0.00    -0.174 NA
HETATM   22  C   UNL     1      43.275 -17.449   5.157  1.00  0.00     0.089 A 
HETATM   23  C   UNL     1      43.688 -16.094   4.999  1.00  0.00     0.071 A 
BRANCH  22  24
HETATM   24  C   UNL     1      43.481 -18.576   4.239  1.00  0.00    -0.006 A 
HETATM   25  C   UNL     1      44.304 -19.650   4.610  1.00  0.00     0.014 A 
HETATM   26  C   UNL     1      44.543 -20.712   3.734  1.00  0.00     0.007 A 
HETATM   27  C   UNL     1      43.961 -20.726   2.464  1.00  0.00    -0.062 A 
HETATM   28  C   UNL     1      44.214 -21.855   1.511  1.00  0.00     0.048 C 
HETATM   29  C   UNL     1      43.126 -19.667   2.091  1.00  0.00     0.007 A 
HETATM   30  C   UNL     1      42.889 -18.603   2.969  1.00  0.00     0.014 A 
ENDBRANCH  22  24
ENDBRANCH   2  18
TORSDOF 6
ENDMDL
MODEL 2
REMARK VINA RESULT:      -8.9      1.912     10.691
REMARK  6 active torsions:
REMARK  status: ('A' for Active; 'I' for Inactive)
REMARK    1  A    between atoms: C_2  and  C_3 
REMARK    2  A    between atoms: C_3  and  N_4 
REMARK       I    between atoms: N_4  and  C_5 
REMARK    3  A    between atoms: C_5  and  C_6 
REMARK    4  A    between atoms: C_8  and  N_9 
REMARK       I    between atoms: N_9  and  C_10 
REMARK    5  A    between atoms: C_10  and  C_11 
REMARK    6  A    between atoms: C_15  and  C_16 
ROOT
HETATM    1  N   UNL     1      43.728 -13.716   7.304  1.00  0.00    -0.322 N 
HETATM    2  C   UNL     1      44.890 -13.137   7.779  1.00  0.00     0.274 C 
HETATM    3  O   UNL     1      45.992 -13.233   7.249  1.00  0.00    -0.266 OA
HETATM    4  H   UNL     1      42.861 -13.386   7.702  1.00  0.00     0.169 HD
ENDROOT
BRANCH   1   5
HETATM    5  C   UNL     1      43.616 -14.662   6.263  1.00  0.00     0.036 A 
HETATM    6  C   UNL     1      43.960 -16.009   6.409  1.00  0.00     0.046 A 
HETATM    7  C   UNL     1      43.795 -16.905   5.343  1.00  0.00     0.034 A 
HETATM    8  C   UNL     1      43.264 -16.451   4.131  1.00  0.00     0.017 A 
HETATM    9  C   UNL     1      42.913 -15.110   3.982  1.00  0.00     0.003 A 
HETATM   10  C   UNL     1      43.083 -14.222   5.045  1.00  0.00     0.029 A 
BRANCH   7  11
HETATM   11  C   UNL     1      44.109 -18.357   5.479  1.00  0.00     0.251 C 
HETATM   12  N   UNL     1      44.382 -19.044   4.314  1.00  0.00    -0.357 N 
HETATM   13  H   UNL     1      44.214 -18.603   3.418  1.00  0.00     0.162 HD
HETATM   14  O   UNL     1      44.100 -18.882   6.586  1.00  0.00    -0.268 OA
BRANCH  12  15
HETATM   15  C   UNL     1      44.708 -20.454   4.320  1.00  0.00     0.122 C 
BRANCH  15  16
HETATM   16  C   UNL     1      44.556 -21.107   2.948  1.00  0.00     0.015 C 
HETATM   17  C   UNL     1      43.626 -20.328   2.028  1.00  0.00     0.006 C 
ENDBRANCH  15  16
ENDBRANCH  12  15
ENDBRANCH   7  11
ENDBRANCH   1   5
BRANCH   2  18
HETATM   18  C   UNL     1      44.717 -12.354   8.976  1.00  0.00     0.120 A 
HETATM   19  N   UNL     1      45.781 -11.773   9.609  1.00  0.00    -0.272 N 
HETATM   20  H   UNL     1      46.754 -11.806   9.316  1.00  0.00     0.189 HD
HETATM   21  N   UNL     1      45.465 -11.121  10.735  1.00  0.00    -0.174 NA
HETATM   22  C   UNL     1      44.141 -11.294  10.872  1.00  0.00     0.089 A 
HETATM   23  C   UNL     1      43.630 -12.044   9.772  1.00  0.00     0.071 A 
BRANCH  22  24
HETATM   24  C   UNL     1      43.414 -10.784  12.040  1.00  0.00    -0.006 A 
HETATM   25  C   UNL     1      43.922  -9.701  12.772  1.00  0.00     0.014 A 
HETATM   26  C   UNL     1      43.264  -9.226  13.911  1.00  0.00     0.007 A 
HETATM   27  C   UNL     1      42.077  -9.825  14.341  1.00  0.00    -0.062 A 
HETATM   28  C   UNL     1      41.363  -9.332  15.564  1.00  0.00     0.048 C 
HETATM   29  C   UNL     1      41.553 -10.895  13.608  1.00  0.00     0.007 A 
HETATM   30  C   UNL     1      42.215 -11.371  12.469  1.00  0.00     0.014 A 
ENDBRANCH  22  24
ENDBRANCH   2  18
TORSDOF 6
ENDMDL
MODEL 3
REMARK VINA RESULT:      -8.8      2.020     10.840
REMARK  6 active torsions:
REMARK  status: ('A' for Active; 'I' for Inactive)
REMARK    1  A    between atoms: C_2  and  C_3 
REMARK    2  A    between atoms: C_3  and  N_4 
REMARK       I    between atoms: N_4  and  C_5 
REMARK    3  A    between atoms: C_5  and  C_6 
REMARK    4  A    between atoms: C_8  and  N_9 
REMARK       I    between atoms: N_9  and  C_10 
REMARK    5  A    between atoms: C_10  and  C_11 
REMARK    6  A    between atoms: C_15  and  C_16 
ROOT
HETATM    1  N   UNL     1      43.833 -14.671   7.706  1.00  0.00    -0.322 N 
HETATM    2  C   UNL     1      44.837 -13.735   7.548  1.00  0.00     0.274 C 
HETATM    3  O   UNL     1      45.750 -13.813   6.733  1.00  0.00    -0.266 OA
HETATM    4  H   UNL     1      43.029 -14.388   8.249  1.00  0.00     0.169 HD
ENDROOT
BRANCH   1   5
HETATM    5  C   UNL     1      43.768 -15.953   7.120  1.00  0.00     0.036 A 
HETATM    6  C   UNL     1      43.679 -16.165   5.741  1.00  0.00     0.046 A 
HETATM    7  C   UNL     1      43.650 -17.467   5.222  1.00  0.00     0.034 A 
HETATM    8  C   UNL     1      43.731 -18.561   6.089  1.00  0.00     0.017 A 
HETATM    9  C   UNL     1      43.827 -18.357   7.465  1.00  0.00     0.003 A 
HETATM   10  C   UNL     1      43.851 -17.058   7.976  1.00  0.00     0.029 A 
BRANCH   7  11
HETATM   11  C   UNL     1      43.600 -17.728   3.754  1.00  0.00     0.251 C 
HETATM   12  N   UNL     1      43.381 -19.033   3.364  1.00  0.00    -0.357 N 
HETATM   13  H   UNL     1      43.416 -19.776   4.049  1.00  0.00     0.162 HD
HETATM   14  O   UNL     1      43.767 -16.806   2.964  1.00  0.00    -0.268 OA
BRANCH  12  15
HETATM   15  C   UNL     1      43.304 -19.407   1.967  1.00  0.00     0.122 C 
BRANCH  15  16
HETATM   16  C   UNL     1      43.803 -20.826   1.703  1.00  0.00     0.015 C 
HETATM   17  C   UNL     1      44.404 -21.476   2.941  1.00  0.00     0.006 C 
ENDBRANCH  15  16
ENDBRANCH  12  15
ENDBRANCH   7  11
ENDBRANCH   1   5
BRANCH   2  18
HETATM   18  C   UNL     1      44.727 -12.592   8.420  1.00  0.00     0.120 A 
HETATM   19  N   UNL     1      45.772 -11.729   8.599  1.00  0.00    -0.272 N 
HETATM   20  H   UNL     1      46.683 -11.775   8.150  1.00  0.00     0.189 HD
HETATM   21  N   UNL     1      45.532 -10.747   9.477  1.00  0.00    -0.174 NA
HETATM   22  C   UNL     1      44.286 -10.980   9.920  1.00  0.00     0.089 A 
HETATM   23  C   UNL     1      43.738 -12.118   9.260  1.00  0.00     0.071 A 
BRANCH  22  24
HETATM   24  C   UNL     1      43.673 -10.152  10.966  1.00  0.00    -0.006 A 
HETATM   25  C   UNL     1      42.723  -9.176  10.630  1.00  0.00     0.014 A 
HETATM   26  C   UNL     1      42.158  -8.352  11.607  1.00  0.00     0.007 A 
HETATM   27  C   UNL     1      42.529  -8.489  12.948  1.00  0.00    -0.062 A 
HETATM   28  C   UNL     1      41.937  -7.608  14.006  1.00  0.00     0.048 C 
HETATM   29  C   UNL     1      43.463  -9.470  13.295  1.00  0.00     0.007 A 
HETATM   30  C   UNL     1      44.030 -10.293  12.314  1.00  0.00     0.014 A 
ENDBRANCH  22  24
ENDBRANCH   2  18
TORSDOF 6
ENDMDL
MODEL 4
REMARK VINA RESULT:      -8.4      2.508     10.312
REMARK  6 active torsions:
REMARK  status: ('A' for Active; 'I' for Inactive)
REMARK    1  A    between atoms: C_2  and  C_3 
REMARK    2  A    between atoms: C_3  and  N_4 
REMARK       I    between atoms: N_4  and  C_5 
REMARK    3  A    between atoms: C_5  and  C_6 
REMARK    4  A    between atoms: C_8  and  N_9 
REMARK       I    between atoms: N_9  and  C_10 
REMARK    5  A    between atoms: C_10  and  C_11 
REMARK    6  A    between atoms: C_15  and  C_16 
ROOT
HETATM    1  N   UNL     1      43.996 -14.763   7.311  1.00  0.00    -0.322 N 
HETATM    2  C   UNL     1      44.912 -13.733   7.205  1.00  0.00     0.274 C 
HETATM    3  O   UNL     1      45.752 -13.627   6.318  1.00  0.00    -0.266 OA
HETATM    4  H   UNL     1      43.227 -14.622   7.950  1.00  0.00     0.169 HD
ENDROOT
BRANCH   1   5
HETATM    5  C   UNL     1      43.974 -15.959   6.563  1.00  0.00     0.036 A 
HETATM    6  C   UNL     1      43.151 -16.152   5.449  1.00  0.00     0.046 A 
HETATM    7  C   UNL     1      43.199 -17.354   4.729  1.00  0.00     0.034 A 
HETATM    8  C   UNL     1      44.092 -18.360   5.117  1.00  0.00     0.017 A 
HETATM    9  C   UNL     1      44.919 -18.170   6.223  1.00  0.00     0.003 A 
HETATM   10  C   UNL     1      44.864 -16.972   6.938  1.00  0.00     0.029 A 
BRANCH   7  11
HETATM   11  C   UNL     1      42.369 -17.576   3.511  1.00  0.00     0.251 C 
HETATM   12  N   UNL     1      41.300 -16.724   3.325  1.00  0.00    -0.357 N 
HETATM   13  H   UNL     1      41.022 -16.096   4.068  1.00  0.00     0.162 HD
HETATM   14  O   UNL     1      42.643 -18.492   2.744  1.00  0.00    -0.268 OA
BRANCH  12  15
HETATM   15  C   UNL     1      40.427 -16.836   2.175  1.00  0.00     0.122 C 
BRANCH  15  16
HETATM   16  C   UNL     1      40.194 -15.501   1.472  1.00  0.00     0.015 C 
HETATM   17  C   UNL     1      38.826 -14.908   1.776  1.00  0.00     0.006 C 
ENDBRANCH  15  16
ENDBRANCH  12  15
ENDBRANCH   7  11
ENDBRANCH   1   5
BRANCH   2  18
HETATM   18  C   UNL     1      44.798 -12.727   8.232  1.00  0.00     0.120 A 
HETATM   19  N   UNL     1      45.893 -12.281   8.918  1.00  0.00    -0.272 N 
HETATM   20  H   UNL     1      46.857 -12.571   8.779  1.00  0.00     0.189 HD
HETATM   21  N   UNL     1      45.617 -11.384   9.873  1.00  0.00    -0.174 NA
HETATM   22  C   UNL     1      44.282 -11.246   9.840  1.00  0.00     0.089 A 
HETATM   23  C   UNL     1      43.733 -12.057   8.803  1.00  0.00     0.071 A 
BRANCH  22  24
HETATM   24  C   UNL     1      43.572 -10.391  10.798  1.00  0.00    -0.006 A 
HETATM   25  C   UNL     1      43.997 -10.319  12.133  1.00  0.00     0.014 A 
HETATM   26  C   UNL     1      43.310  -9.541  13.069  1.00  0.00     0.007 A 
HETATM   27  C   UNL     1      42.179  -8.813  12.688  1.00  0.00    -0.062 A 
HETATM   28  C   UNL     1      41.427  -7.979  13.682  1.00  0.00     0.048 C 
HETATM   29  C   UNL     1      41.757  -8.866  11.356  1.00  0.00     0.007 A 
HETATM   30  C   UNL     1      42.445  -9.647  10.420  1.00  0.00     0.014 A 
ENDBRANCH  22  24
ENDBRANCH   2  18
TORSDOF 6
ENDMDL
MODEL 5
REMARK VINA RESULT:      -8.2      2.727      3.318
REMARK  6 active torsions:
REMARK  status: ('A' for Active; 'I' for Inactive)
REMARK    1  A    between atoms: C_2  and  C_3 
REMARK    2  A    between atoms: C_3  and  N_4 
REMARK       I    between atoms: N_4  and  C_5 
REMARK    3  A    between atoms: C_5  and  C_6 
REMARK    4  A    between atoms: C_8  and  N_9 
REMARK       I    between atoms: N_9  and  C_10 
REMARK    5  A    between atoms: C_10  and  C_11 
REMARK    6  A    between atoms: C_15  and  C_16 
ROOT
HETATM    1  N   UNL     1      42.088 -12.673   5.042  1.00  0.00    -0.322 N 
HETATM    2  C   UNL     1      41.484 -13.913   5.133  1.00  0.00     0.274 C 
HETATM    3  O   UNL     1      40.432 -14.141   5.721  1.00  0.00    -0.266 OA
HETATM    4  H   UNL     1      42.823 -12.575   4.356  1.00  0.00     0.169 HD
ENDROOT
BRANCH   1   5
HETATM    5  C   UNL     1      41.736 -11.503   5.749  1.00  0.00     0.036 A 
HETATM    6  C   UNL     1      41.883 -11.368   7.132  1.00  0.00     0.046 A 
HETATM    7  C   UNL     1      41.543 -10.167   7.770  1.00  0.00     0.034 A 
HETATM    8  C   UNL     1      41.071  -9.089   7.012  1.00  0.00     0.017 A 
HETATM    9  C   UNL     1      40.929  -9.215   5.632  1.00  0.00     0.003 A 
HETATM   10  C   UNL     1      41.265 -10.416   5.003  1.00  0.00     0.029 A 
BRANCH   7  11
HETATM   11  C   UNL     1      41.730  -9.973   9.237  1.00  0.00     0.251 C 
HETATM   12  N   UNL     1      42.237 -11.044   9.944  1.00  0.00    -0.357 N 
HETATM   13  H   UNL     1      42.318 -11.949   9.498  1.00  0.00     0.162 HD
HETATM   14  O   UNL     1      41.421  -8.907   9.756  1.00  0.00    -0.268 OA
BRANCH  12  15
HETATM   15  C   UNL     1      42.469 -10.972  11.371  1.00  0.00     0.122 C 
BRANCH  15  16
HETATM   16  C   UNL     1      43.873 -10.481  11.722  1.00  0.00     0.015 C 
HETATM   17  C   UNL     1      44.937 -11.030  10.783  1.00  0.00     0.006 C 
ENDBRANCH  15  16
ENDBRANCH  12  15
ENDBRANCH   7  11
ENDBRANCH   1   5
BRANCH   2  18
HETATM   18  C   UNL     1      42.180 -14.966   4.438  1.00  0.00     0.120 A 
HETATM   19  N   UNL     1      42.864 -14.725   3.279  1.00  0.00    -0.272 N 
HETATM   20  H   UNL     1      42.973 -13.829   2.813  1.00  0.00     0.189 HD
HETATM   21  N   UNL     1      43.415 -15.814   2.728  1.00  0.00    -0.174 NA
HETATM   22  C   UNL     1      43.064 -16.825   3.539  1.00  0.00     0.089 A 
HETATM   23  C   UNL     1      42.307 -16.327   4.640  1.00  0.00     0.071 A 
BRANCH  22  24
HETATM   24  C   UNL     1      43.419 -18.216   3.234  1.00  0.00    -0.006 A 
HETATM   25  C   UNL     1      44.254 -18.939   4.099  1.00  0.00     0.014 A 
HETATM   26  C   UNL     1      44.635 -20.251   3.805  1.00  0.00     0.007 A 
HETATM   27  C   UNL     1      44.185 -20.873   2.637  1.00  0.00    -0.062 A 
HETATM   28  C   UNL     1      44.590 -22.278   2.305  1.00  0.00     0.048 C 
HETATM   29  C   UNL     1      43.338 -20.166   1.777  1.00  0.00     0.007 A 
HETATM   30  C   UNL     1      42.960 -18.850   2.071  1.00  0.00     0.014 A 
ENDBRANCH  22  24
ENDBRANCH   2  18
TORSDOF 6
ENDMDL
MODEL 6
REMARK VINA RESULT:      -8.2      2.647      3.121
REMARK  6 active torsions:
REMARK  status: ('A' for Active; 'I' for Inactive)
REMARK    1  A    between atoms: C_2  and  C_3 
REMARK    2  A    between atoms: C_3  and  N_4 
REMARK       I    between atoms: N_4  and  C_5 
REMARK    3  A    between atoms: C_5  and  C_6 
REMARK    4  A    between atoms: C_8  and  N_9 
REMARK       I    between atoms: N_9  and  C_10 
REMARK    5  A    between atoms: C_10  and  C_11 
REMARK    6  A    between atoms: C_15  and  C_16 
ROOT
HETATM    1  N   UNL     1      41.416 -12.509   6.411  1.00  0.00    -0.322 N 
HETATM    2  C   UNL     1      40.347 -13.302   6.039  1.00  0.00     0.274 C 
HETATM    3  O   UNL     1      39.179 -12.930   5.990  1.00  0.00    -0.266 OA
HETATM    4  H   UNL     1      42.339 -12.864   6.202  1.00  0.00     0.169 HD
ENDROOT
BRANCH   1   5
HETATM    5  C   UNL     1      41.359 -11.219   6.981  1.00  0.00     0.036 A 
HETATM    6  C   UNL     1      41.372 -10.987   8.359  1.00  0.00     0.046 A 
HETATM    7  C   UNL     1      41.344  -9.678   8.860  1.00  0.00     0.034 A 
HETATM    8  C   UNL     1      41.322  -8.596   7.973  1.00  0.00     0.017 A 
HETATM    9  C   UNL     1      41.316  -8.821   6.598  1.00  0.00     0.003 A 
HETATM   10  C   UNL     1      41.340 -10.128   6.105  1.00  0.00     0.029 A 
BRANCH   7  11
HETATM   11  C   UNL     1      41.402  -9.393  10.323  1.00  0.00     0.251 C 
HETATM   12  N   UNL     1      41.249 -10.471  11.171  1.00  0.00    -0.357 N 
HETATM   13  H   UNL     1      40.954 -11.365  10.801  1.00  0.00     0.162 HD
HETATM   14  O   UNL     1      41.564  -8.244  10.715  1.00  0.00    -0.268 OA
BRANCH  12  15
HETATM   15  C   UNL     1      41.295 -10.319  12.610  1.00  0.00     0.122 C 
BRANCH  15  16
HETATM   16  C   UNL     1      42.678 -10.601  13.194  1.00  0.00     0.015 C 
HETATM   17  C   UNL     1      43.344  -9.351  13.753  1.00  0.00     0.006 C 
ENDBRANCH  15  16
ENDBRANCH  12  15
ENDBRANCH   7  11
ENDBRANCH   1   5
BRANCH   2  18
HETATM   18  C   UNL     1      40.705 -14.647   5.666  1.00  0.00     0.120 A 
HETATM   19  N   UNL     1      40.083 -15.730   6.221  1.00  0.00    -0.272 N 
HETATM   20  H   UNL     1      39.328 -15.716   6.902  1.00  0.00     0.189 HD
HETATM   21  N   UNL     1      40.561 -16.912   5.810  1.00  0.00    -0.174 NA
HETATM   22  C   UNL     1      41.559 -16.603   4.966  1.00  0.00     0.089 A 
HETATM   23  C   UNL     1      41.664 -15.188   4.831  1.00  0.00     0.071 A 
BRANCH  22  24
HETATM   24  C   UNL     1      42.394 -17.640   4.349  1.00  0.00    -0.006 A 
HETATM   25  C   UNL     1      42.301 -17.899   2.973  1.00  0.00     0.014 A 
HETATM   26  C   UNL     1      43.061 -18.909   2.376  1.00  0.00     0.007 A 
HETATM   27  C   UNL     1      43.935 -19.684   3.143  1.00  0.00    -0.062 A 
HETATM   28  C   UNL     1      44.751 -20.775   2.517  1.00  0.00     0.048 C 
HETATM   29  C   UNL     1      44.047 -19.422   4.513  1.00  0.00     0.007 A 
HETATM   30  C   UNL     1      43.284 -18.412   5.110  1.00  0.00     0.014 A 
ENDBRANCH  22  24
ENDBRANCH   2  18
TORSDOF 6
ENDMDL
MODEL 7
REMARK VINA RESULT:      -8.2      6.014     10.065
REMARK  6 active torsions:
REMARK  status: ('A' for Active; 'I' for Inactive)
REMARK    1  A    between atoms: C_2  and  C_3 
REMARK    2  A    between atoms: C_3  and  N_4 
REMARK       I    between atoms: N_4  and  C_5 
REMARK    3  A    between atoms: C_5  and  C_6 
REMARK    4  A    between atoms: C_8  and  N_9 
REMARK       I    between atoms: N_9  and  C_10 
REMARK    5  A    between atoms: C_10  and  C_11 
REMARK    6  A    between atoms: C_15  and  C_16 
ROOT
HETATM    1  N   UNL     1      42.028 -15.862   2.747  1.00  0.00    -0.322 N 
HETATM    2  C   UNL     1      41.032 -16.205   1.852  1.00  0.00     0.274 C 
HETATM    3  O   UNL     1      40.125 -16.997   2.079  1.00  0.00    -0.266 OA
HETATM    4  H   UNL     1      42.580 -15.046   2.522  1.00  0.00     0.169 HD
ENDROOT
BRANCH   1   5
HETATM    5  C   UNL     1      42.306 -16.479   3.986  1.00  0.00     0.036 A 
HETATM    6  C   UNL     1      42.897 -17.741   4.099  1.00  0.00     0.046 A 
HETATM    7  C   UNL     1      43.175 -18.285   5.361  1.00  0.00     0.034 A 
HETATM    8  C   UNL     1      42.875 -17.552   6.514  1.00  0.00     0.017 A 
HETATM    9  C   UNL     1      42.291 -16.291   6.407  1.00  0.00     0.003 A 
HETATM   10  C   UNL     1      42.013 -15.755   5.148  1.00  0.00     0.029 A 
BRANCH   7  11
HETATM   11  C   UNL     1      43.847 -19.608   5.517  1.00  0.00     0.251 C 
HETATM   12  N   UNL     1      44.224 -20.253   4.357  1.00  0.00    -0.357 N 
HETATM   13  H   UNL     1      43.908 -19.904   3.461  1.00  0.00     0.162 HD
HETATM   14  O   UNL     1      44.023 -20.074   6.637  1.00  0.00    -0.268 OA
BRANCH  12  15
HETATM   15  C   UNL     1      44.890 -21.538   4.383  1.00  0.00     0.122 C 
BRANCH  15  16
HETATM   16  C   UNL     1      44.588 -22.390   3.151  1.00  0.00     0.015 C 
HETATM   17  C   UNL     1      43.983 -21.581   2.014  1.00  0.00     0.006 C 
ENDBRANCH  15  16
ENDBRANCH  12  15
ENDBRANCH   7  11
ENDBRANCH   1   5
BRANCH   2  18
HETATM   18  C   UNL     1      41.112 -15.522   0.585  1.00  0.00     0.120 A 
HETATM   19  N   UNL     1      40.950 -16.191  -0.596  1.00  0.00    -0.272 N 
HETATM   20  H   UNL     1      40.747 -17.181  -0.712  1.00  0.00     0.189 HD
HETATM   21  N   UNL     1      41.102 -15.430  -1.687  1.00  0.00    -0.174 NA
HETATM   22  C   UNL     1      41.401 -14.209  -1.214  1.00  0.00     0.089 A 
HETATM   23  C   UNL     1      41.393 -14.222   0.211  1.00  0.00     0.071 A 
BRANCH  22  24
HETATM   24  C   UNL     1      41.717 -13.091  -2.112  1.00  0.00    -0.006 A 
HETATM   25  C   UNL     1      42.536 -12.041  -1.673  1.00  0.00     0.014 A 
HETATM   26  C   UNL     1      42.816 -10.949  -2.500  1.00  0.00     0.007 A 
HETATM   27  C   UNL     1      42.283 -10.886  -3.790  1.00  0.00    -0.062 A 
HETATM   28  C   UNL     1      42.568  -9.718  -4.686  1.00  0.00     0.048 C 
HETATM   29  C   UNL     1      41.478 -11.936  -4.243  1.00  0.00     0.007 A 
HETATM   30  C   UNL     1      41.198 -13.028  -3.412  1.00  0.00     0.014 A 
ENDBRANCH  22  24
ENDBRANCH   2  18
TORSDOF 6
ENDMDL
MODEL 8
REMARK VINA RESULT:      -8.0      7.642      9.225
REMARK  6 active torsions:
REMARK  status: ('A' for Active; 'I' for Inactive)
REMARK    1  A    between atoms: C_2  and  C_3 
REMARK    2  A    between atoms: C_3  and  N_4 
REMARK       I    between atoms: N_4  and  C_5 
REMARK    3  A    between atoms: C_5  and  C_6 
REMARK    4  A    between atoms: C_8  and  N_9 
REMARK       I    between atoms: N_9  and  C_10 
REMARK    5  A    between atoms: C_10  and  C_11 
REMARK    6  A    between atoms: C_15  and  C_16 
ROOT
HETATM    1  N   UNL     1      42.232 -13.944  -1.067  1.00  0.00    -0.322 N 
HETATM    2  C   UNL     1      41.078 -14.517  -0.567  1.00  0.00     0.274 C 
HETATM    3  O   UNL     1      39.938 -14.159  -0.842  1.00  0.00    -0.266 OA
HETATM    4  H   UNL     1      43.089 -14.462  -0.938  1.00  0.00     0.169 HD
ENDROOT
BRANCH   1   5
HETATM    5  C   UNL     1      42.332 -12.749  -1.811  1.00  0.00     0.036 A 
HETATM    6  C   UNL     1      42.656 -11.514  -1.241  1.00  0.00     0.046 A 
HETATM    7  C   UNL     1      42.771 -10.369  -2.042  1.00  0.00     0.034 A 
HETATM    8  C   UNL     1      42.578 -10.468  -3.424  1.00  0.00     0.017 A 
HETATM    9  C   UNL     1      42.261 -11.697  -3.999  1.00  0.00     0.003 A 
HETATM   10  C   UNL     1      42.144 -12.833  -3.195  1.00  0.00     0.029 A 
BRANCH   7  11
HETATM   11  C   UNL     1      43.159  -9.046  -1.473  1.00  0.00     0.251 C 
HETATM   12  N   UNL     1      43.239  -8.961  -0.098  1.00  0.00    -0.357 N 
HETATM   13  H   UNL     1      42.894  -9.721   0.474  1.00  0.00     0.162 HD
HETATM   14  O   UNL     1      43.373  -8.100  -2.221  1.00  0.00    -0.268 OA
BRANCH  12  15
HETATM   15  C   UNL     1      43.614  -7.732   0.568  1.00  0.00     0.122 C 
BRANCH  15  16
HETATM   16  C   UNL     1      42.602  -7.296   1.626  1.00  0.00     0.015 C 
HETATM   17  C   UNL     1      41.201  -7.821   1.349  1.00  0.00     0.006 C 
ENDBRANCH  15  16
ENDBRANCH  12  15
ENDBRANCH   7  11
ENDBRANCH   1   5
BRANCH   2  18
HETATM   18  C   UNL     1      41.303 -15.633   0.318  1.00  0.00     0.120 A 
HETATM   19  N   UNL     1      40.289 -16.172   1.059  1.00  0.00    -0.272 N 
HETATM   20  H   UNL     1      39.315 -15.882   1.058  1.00  0.00     0.189 HD
HETATM   21  N   UNL     1      40.667 -17.168   1.870  1.00  0.00    -0.174 NA
HETATM   22  C   UNL     1      41.991 -17.282   1.679  1.00  0.00     0.089 A 
HETATM   23  C   UNL     1      42.424 -16.349   0.692  1.00  0.00     0.071 A 
BRANCH  22  24
HETATM   24  C   UNL     1      42.802 -18.231   2.451  1.00  0.00    -0.006 A 
HETATM   25  C   UNL     1      43.426 -19.313   1.812  1.00  0.00     0.014 A 
HETATM   26  C   UNL     1      44.169 -20.249   2.537  1.00  0.00     0.007 A 
HETATM   27  C   UNL     1      44.307 -20.122   3.922  1.00  0.00    -0.062 A 
HETATM   28  C   UNL     1      45.095 -21.122   4.714  1.00  0.00     0.048 C 
HETATM   29  C   UNL     1      43.702 -19.038   4.566  1.00  0.00     0.007 A 
HETATM   30  C   UNL     1      42.956 -18.102   3.839  1.00  0.00     0.014 A 
ENDBRANCH  22  24
ENDBRANCH   2  18
TORSDOF 6
ENDMDL
MODEL 9
REMARK VINA RESULT:      -7.9      8.383     12.206
REMARK  6 active torsions:
REMARK  status: ('A' for Active; 'I' for Inactive)
REMARK    1  A    between atoms: C_2  and  C_3 
REMARK    2  A    between atoms: C_3  and  N_4 
REMARK       I    between atoms: N_4  and  C_5 
REMARK    3  A    between atoms: C_5  and  C_6 
REMARK    4  A    between atoms: C_8  and  N_9 
REMARK       I    between atoms: N_9  and  C_10 
REMARK    5  A    between atoms: C_10  and  C_11 
REMARK    6  A    between atoms: C_15  and  C_16 
ROOT
HETATM    1  N   UNL     1      39.318 -14.437  -0.612  1.00  0.00    -0.322 N 
HETATM    2  C   UNL     1      40.656 -14.780  -0.570  1.00  0.00     0.274 C 
HETATM    3  O   UNL     1      41.536 -14.266  -1.252  1.00  0.00    -0.266 OA
HETATM    4  H   UNL     1      38.739 -14.774   0.144  1.00  0.00     0.169 HD
ENDROOT
BRANCH   1   5
HETATM    5  C   UNL     1      38.686 -13.597  -1.554  1.00  0.00     0.036 A 
HETATM    6  C   UNL     1      37.926 -14.078  -2.623  1.00  0.00     0.046 A 
HETATM    7  C   UNL     1      37.298 -13.189  -3.507  1.00  0.00     0.034 A 
HETATM    8  C   UNL     1      37.418 -11.809  -3.304  1.00  0.00     0.017 A 
HETATM    9  C   UNL     1      38.170 -11.324  -2.236  1.00  0.00     0.003 A 
HETATM   10  C   UNL     1      38.796 -12.214  -1.362  1.00  0.00     0.029 A 
BRANCH   7  11
HETATM   11  C   UNL     1      36.442 -13.668  -4.631  1.00  0.00     0.251 C 
HETATM   12  N   UNL     1      36.165 -12.757  -5.630  1.00  0.00    -0.357 N 
HETATM   13  H   UNL     1      36.404 -11.782  -5.504  1.00  0.00     0.162 HD
HETATM   14  O   UNL     1      36.013 -14.815  -4.625  1.00  0.00    -0.268 OA
BRANCH  12  15
HETATM   15  C   UNL     1      35.352 -13.109  -6.776  1.00  0.00     0.122 C 
BRANCH  15  16
HETATM   16  C   UNL     1      34.038 -12.332  -6.834  1.00  0.00     0.015 C 
HETATM   17  C   UNL     1      34.057 -11.081  -5.967  1.00  0.00     0.006 C 
ENDBRANCH  15  16
ENDBRANCH  12  15
ENDBRANCH   7  11
ENDBRANCH   1   5
BRANCH   2  18
HETATM   18  C   UNL     1      40.977 -15.807   0.389  1.00  0.00     0.120 A 
HETATM   19  N   UNL     1      40.086 -16.183   1.356  1.00  0.00    -0.272 N 
HETATM   20  H   UNL     1      39.146 -15.821   1.491  1.00  0.00     0.189 HD
HETATM   21  N   UNL     1      40.549 -17.113   2.201  1.00  0.00    -0.174 NA
HETATM   22  C   UNL     1      41.807 -17.349   1.796  1.00  0.00     0.089 A 
HETATM   23  C   UNL     1      42.105 -16.564   0.643  1.00  0.00     0.071 A 
BRANCH  22  24
HETATM   24  C   UNL     1      42.691 -18.269   2.522  1.00  0.00    -0.006 A 
HETATM   25  C   UNL     1      43.238 -19.386   1.872  1.00  0.00     0.014 A 
HETATM   26  C   UNL     1      44.049 -20.294   2.558  1.00  0.00     0.007 A 
HETATM   27  C   UNL     1      44.334 -20.104   3.912  1.00  0.00    -0.062 A 
HETATM   28  C   UNL     1      45.197 -21.074   4.663  1.00  0.00     0.048 C 
HETATM   29  C   UNL     1      43.807 -18.985   4.565  1.00  0.00     0.007 A 
HETATM   30  C   UNL     1      42.993 -18.077   3.877  1.00  0.00     0.014 A 
ENDBRANCH  22  24
ENDBRANCH   2  18
TORSDOF 6
ENDMDL
MODEL 10
REMARK VINA RESULT:      -7.9      8.048      9.981
REMARK  6 active torsions:
REMARK  status: ('A' for Active; 'I' for Inactive)
REMARK    1  A    between atoms: C_2  and  C_3 
REMARK    2  A    between atoms: C_3  and  N_4 
REMARK       I    between atoms: N_4  and  C_5 
REMARK    3  A    between atoms: C_5  and  C_6 
REMARK    4  A    between atoms: C_8  and  N_9 
REMARK       I    between atoms: N_9  and  C_10 
REMARK    5  A    between atoms: C_10  and  C_11 
REMARK    6  A    between atoms: C_15  and  C_16 
ROOT
HETATM    1  N   UNL     1      41.505 -15.596  -0.919  1.00  0.00    -0.322 N 
HETATM    2  C   UNL     1      41.209 -15.894   0.398  1.00  0.00     0.274 C 
HETATM    3  O   UNL     1      40.210 -15.513   0.998  1.00  0.00    -0.266 OA
HETATM    4  H   UNL     1      42.233 -16.143  -1.356  1.00  0.00     0.169 HD
ENDROOT
BRANCH   1   5
HETATM    5  C   UNL     1      40.843 -14.665  -1.747  1.00  0.00     0.036 A 
HETATM    6  C   UNL     1      40.950 -13.280  -1.584  1.00  0.00     0.046 A 
HETATM    7  C   UNL     1      40.291 -12.408  -2.462  1.00  0.00     0.034 A 
HETATM    8  C   UNL     1      39.537 -12.927  -3.520  1.00  0.00     0.017 A 
HETATM    9  C   UNL     1      39.432 -14.306  -3.692  1.00  0.00     0.003 A 
HETATM   10  C   UNL     1      40.088 -15.170  -2.812  1.00  0.00     0.029 A 
BRANCH   7  11
HETATM   11  C   UNL     1      40.419 -10.927  -2.344  1.00  0.00     0.251 C 
HETATM   12  N   UNL     1      41.304 -10.455  -1.396  1.00  0.00    -0.357 N 
HETATM   13  H   UNL     1      41.709 -11.093  -0.723  1.00  0.00     0.162 HD
HETATM   14  O   UNL     1      39.744 -10.197  -3.060  1.00  0.00    -0.268 OA
BRANCH  12  15
HETATM   15  C   UNL     1      41.519  -9.037  -1.195  1.00  0.00     0.122 C 
BRANCH  15  16
HETATM   16  C   UNL     1      42.955  -8.606  -1.489  1.00  0.00     0.015 C 
HETATM   17  C   UNL     1      43.960  -9.728  -1.272  1.00  0.00     0.006 C 
ENDBRANCH  15  16
ENDBRANCH  12  15
ENDBRANCH   7  11
ENDBRANCH   1   5
BRANCH   2  18
HETATM   18  C   UNL     1      42.176 -16.744   1.047  1.00  0.00     0.120 A 
HETATM   19  N   UNL     1      43.516 -16.611   0.808  1.00  0.00    -0.272 N 
HETATM   20  H   UNL     1      43.960 -15.928   0.200  1.00  0.00     0.189 HD
HETATM   21  N   UNL     1      44.281 -17.505   1.446  1.00  0.00    -0.174 NA
HETATM   22  C   UNL     1      43.415 -18.281   2.118  1.00  0.00     0.089 A 
HETATM   23  C   UNL     1      42.083 -17.818   1.911  1.00  0.00     0.071 A 
BRANCH  22  24
HETATM   24  C   UNL     1      43.864 -19.442   2.896  1.00  0.00    -0.006 A 
HETATM   25  C   UNL     1      44.205 -19.299   4.249  1.00  0.00     0.014 A 
HETATM   26  C   UNL     1      44.672 -20.385   4.994  1.00  0.00     0.007 A 
HETATM   27  C   UNL     1      44.805 -21.643   4.402  1.00  0.00    -0.062 A 
HETATM   28  C   UNL     1      45.311 -22.816   5.187  1.00  0.00     0.048 C 
HETATM   29  C   UNL     1      44.452 -21.800   3.058  1.00  0.00     0.007 A 
HETATM   30  C   UNL     1      43.987 -20.710   2.311  1.00  0.00     0.014 A 
ENDBRANCH  22  24
ENDBRANCH   2  18
TORSDOF 6
ENDMDL
