MODEL 1
REMARK VINA RESULT:      -7.8      0.000      0.000
REMARK  6 active torsions:
REMARK  status: ('A' for Active; 'I' for Inactive)
REMARK    1  A    between atoms: O_2  and  C_3 
REMARK    2  A    between atoms: C_4  and  N_5 
REMARK       I    between atoms: N_5  and  C_6 
REMARK       I    between atoms: C_6  and  N_7 
REMARK    3  A    between atoms: N_7  and  C_8 
REMARK    4  A    between atoms: C_8  and  C_9 
REMARK    5  A    between atoms: C_9  and  C_10 
REMARK    6  A    between atoms: C_10  and  N_11 
ROOT
HETATM    1  N   UNL     1      40.587 -15.853   5.514  1.00  0.00    -0.306 N 
HETATM    2  C   UNL     1      41.802 -16.030   6.132  1.00  0.00     0.320 C 
HETATM    3  N   UNL     1      41.823 -17.237   6.805  1.00  0.00    -0.343 N 
HETATM    4  O   UNL     1      42.728 -15.235   6.158  1.00  0.00    -0.247 OA
HETATM    5  H   UNL     1      39.835 -16.452   5.828  1.00  0.00     0.171 HD
HETATM    6  H   UNL     1      41.342 -17.985   6.324  1.00  0.00     0.164 HD
ENDROOT
BRANCH   3   7
HETATM    7  C   UNL     1      42.965 -17.618   7.613  1.00  0.00     0.126 C 
BRANCH   7   8
HETATM    8  C   UNL     1      43.718 -18.823   7.052  1.00  0.00     0.040 C 
BRANCH   8   9
HETATM    9  C   UNL     1      44.761 -18.410   6.016  1.00  0.00     0.131 C 
BRANCH   9  10
HETATM   10  N   UNL     1      44.326 -18.688   4.659  1.00  0.00    -0.341 N 
HETATM   11  C   UNL     1      44.372 -19.919   4.057  1.00  0.00     0.139 A 
HETATM   12  C   UNL     1      43.891 -19.769   2.757  1.00  0.00     0.011 A 
HETATM   13  N   UNL     1      44.806 -21.058   4.635  1.00  0.00    -0.242 NA
HETATM   14  C   UNL     1      43.844 -20.914   1.947  1.00  0.00     0.017 A 
HETATM   15  C   UNL     1      43.552 -18.399   2.594  1.00  0.00     0.032 A 
HETATM   16  C   UNL     1      44.283 -22.117   2.500  1.00  0.00     0.020 A 
HETATM   17  C   UNL     1      44.739 -22.128   3.811  1.00  0.00     0.119 A 
HETATM   18  C   UNL     1      43.831 -17.755   3.782  1.00  0.00     0.093 A 
ENDBRANCH   9  10
ENDBRANCH   8   9
ENDBRANCH   7   8
ENDBRANCH   3   7
BRANCH   1  19
HETATM   19  C   UNL     1      40.180 -14.764   4.717  1.00  0.00     0.071 A 
HETATM   20  C   UNL     1      40.155 -14.966   3.327  1.00  0.00     0.095 A 
HETATM   21  C   UNL     1      39.813 -13.934   2.453  1.00  0.00     0.041 A 
HETATM   22  C   UNL     1      39.457 -12.690   2.973  1.00  0.00     0.026 A 
HETATM   23  C   UNL     1      39.458 -12.491   4.354  1.00  0.00     0.036 A 
HETATM   24  C   UNL     1      39.819 -13.518   5.229  1.00  0.00     0.056 A 
HETATM   25 CL   UNL     1      39.022 -10.948   4.983  1.00  0.00    -0.084 Cl
BRANCH  20  26
HETATM   26  O   UNL     1      40.507 -16.200   2.831  1.00  0.00    -0.354 OA
HETATM   27  C   UNL     1      40.878 -16.089   1.455  1.00  0.00     0.210 C 
ENDBRANCH  20  26
ENDBRANCH   1  19
TORSDOF 6
ENDMDL
MODEL 2
REMARK VINA RESULT:      -7.6      3.146      7.031
REMARK  6 active torsions:
REMARK  status: ('A' for Active; 'I' for Inactive)
REMARK    1  A    between atoms: O_2  and  C_3 
REMARK    2  A    between atoms: C_4  and  N_5 
REMARK       I    between atoms: N_5  and  C_6 
REMARK       I    between atoms: C_6  and  N_7 
REMARK    3  A    between atoms: N_7  and  C_8 
REMARK    4  A    between atoms: C_8  and  C_9 
REMARK    5  A    between atoms: C_9  and  C_10 
REMARK    6  A    between atoms: C_10  and  N_11 
ROOT
HETATM    1  N   UNL     1      42.251 -18.173   2.260  1.00  0.00    -0.306 N 
HETATM    2  C   UNL     1      42.432 -17.177   1.332  1.00  0.00     0.320 C 
HETATM    3  N   UNL     1      41.258 -16.952   0.638  1.00  0.00    -0.343 N 
HETATM    4  O   UNL     1      43.476 -16.594   1.083  1.00  0.00    -0.247 OA
HETATM    5  H   UNL     1      41.429 -18.751   2.141  1.00  0.00     0.171 HD
HETATM    6  H   UNL     1      40.424 -17.024   1.205  1.00  0.00     0.164 HD
ENDROOT
BRANCH   3   7
HETATM    7  C   UNL     1      41.213 -16.008  -0.462  1.00  0.00     0.126 C 
BRANCH   7   8
HETATM    8  C   UNL     1      40.354 -14.781  -0.159  1.00  0.00     0.040 C 
BRANCH   8   9
HETATM    9  C   UNL     1      41.093 -13.770   0.715  1.00  0.00     0.131 C 
BRANCH   9  10
HETATM   10  N   UNL     1      40.902 -14.027   2.131  1.00  0.00    -0.341 N 
HETATM   11  C   UNL     1      41.903 -14.036   3.068  1.00  0.00     0.139 A 
HETATM   12  C   UNL     1      41.323 -14.341   4.298  1.00  0.00     0.011 A 
HETATM   13  N   UNL     1      43.207 -13.789   2.824  1.00  0.00    -0.242 NA
HETATM   14  C   UNL     1      42.169 -14.403   5.416  1.00  0.00     0.017 A 
HETATM   15  C   UNL     1      39.932 -14.517   4.071  1.00  0.00     0.032 A 
HETATM   16  C   UNL     1      43.527 -14.156   5.216  1.00  0.00     0.020 A 
HETATM   17  C   UNL     1      43.975 -13.862   3.934  1.00  0.00     0.119 A 
HETATM   18  C   UNL     1      39.699 -14.319   2.726  1.00  0.00     0.093 A 
ENDBRANCH   9  10
ENDBRANCH   8   9
ENDBRANCH   7   8
ENDBRANCH   3   7
BRANCH   1  19
HETATM   19  C   UNL     1      43.198 -18.678   3.174  1.00  0.00     0.071 A 
HETATM   20  C   UNL     1      43.796 -19.909   2.858  1.00  0.00     0.095 A 
HETATM   21  C   UNL     1      44.709 -20.513   3.724  1.00  0.00     0.041 A 
HETATM   22  C   UNL     1      45.058 -19.863   4.907  1.00  0.00     0.026 A 
HETATM   23  C   UNL     1      44.484 -18.628   5.215  1.00  0.00     0.036 A 
HETATM   24  C   UNL     1      43.556 -18.032   4.358  1.00  0.00     0.056 A 
HETATM   25 CL   UNL     1      44.920 -17.839   6.683  1.00  0.00    -0.084 Cl
BRANCH  20  26
HETATM   26  O   UNL     1      43.442 -20.535   1.685  1.00  0.00    -0.354 OA
HETATM   27  C   UNL     1      43.966 -21.865   1.660  1.00  0.00     0.210 C 
ENDBRANCH  20  26
ENDBRANCH   1  19
TORSDOF 6
ENDMDL
MODEL 3
REMARK VINA RESULT:      -7.5      1.386      2.261
REMARK  6 active torsions:
REMARK  status: ('A' for Active; 'I' for Inactive)
REMARK    1  A    between atoms: O_2  and  C_3 
REMARK    2  A    between atoms: C_4  and  N_5 
REMARK       I    between atoms: N_5  and  C_6 
REMARK       I    between atoms: C_6  and  N_7 
REMARK    3  A    between atoms: N_7  and  C_8 
REMARK    4  A    between atoms: C_8  and  C_9 
REMARK    5  A    between atoms: C_9  and  C_10 
REMARK    6  A    between atoms: C_10  and  N_11 
ROOT
HETATM    1  N   UNL     1      40.440 -15.494   5.632  1.00  0.00    -0.306 N 
HETATM    2  C   UNL     1      41.725 -15.830   5.982  1.00  0.00     0.320 C 
HETATM    3  N   UNL     1      41.718 -16.895   6.863  1.00  0.00    -0.343 N 
HETATM    4  O   UNL     1      42.748 -15.258   5.636  1.00  0.00    -0.247 OA
HETATM    5  H   UNL     1      39.705 -15.862   6.223  1.00  0.00     0.171 HD
HETATM    6  H   UNL     1      41.008 -17.588   6.666  1.00  0.00     0.164 HD
ENDROOT
BRANCH   3   7
HETATM    7  C   UNL     1      42.950 -17.382   7.452  1.00  0.00     0.126 C 
BRANCH   7   8
HETATM    8  C   UNL     1      43.469 -18.654   6.784  1.00  0.00     0.040 C 
BRANCH   8   9
HETATM    9  C   UNL     1      44.587 -18.358   5.788  1.00  0.00     0.131 C 
BRANCH   9  10
HETATM   10  N   UNL     1      44.221 -18.718   4.429  1.00  0.00    -0.341 N 
HETATM   11  C   UNL     1      44.324 -19.978   3.897  1.00  0.00     0.139 A 
HETATM   12  C   UNL     1      43.900 -19.909   2.571  1.00  0.00     0.011 A 
HETATM   13  N   UNL     1      44.757 -21.073   4.555  1.00  0.00    -0.242 NA
HETATM   14  C   UNL     1      43.918 -21.095   1.823  1.00  0.00     0.017 A 
HETATM   15  C   UNL     1      43.538 -18.559   2.319  1.00  0.00     0.032 A 
HETATM   16  C   UNL     1      44.358 -22.256   2.458  1.00  0.00     0.020 A 
HETATM   17  C   UNL     1      44.753 -22.186   3.788  1.00  0.00     0.119 A 
HETATM   18  C   UNL     1      43.746 -17.845   3.482  1.00  0.00     0.093 A 
ENDBRANCH   9  10
ENDBRANCH   8   9
ENDBRANCH   7   8
ENDBRANCH   3   7
BRANCH   1  19
HETATM   19  C   UNL     1      40.029 -14.480   4.744  1.00  0.00     0.071 A 
HETATM   20  C   UNL     1      39.700 -13.235   5.306  1.00  0.00     0.095 A 
HETATM   21  C   UNL     1      39.236 -12.184   4.513  1.00  0.00     0.041 A 
HETATM   22  C   UNL     1      39.132 -12.365   3.135  1.00  0.00     0.026 A 
HETATM   23  C   UNL     1      39.480 -13.593   2.568  1.00  0.00     0.036 A 
HETATM   24  C   UNL     1      39.926 -14.651   3.363  1.00  0.00     0.056 A 
HETATM   25 CL   UNL     1      39.340 -13.804   0.865  1.00  0.00    -0.084 Cl
BRANCH  20  26
HETATM   26  O   UNL     1      39.811 -13.073   6.667  1.00  0.00    -0.354 OA
HETATM   27  C   UNL     1      39.576 -11.708   7.021  1.00  0.00     0.210 C 
ENDBRANCH  20  26
ENDBRANCH   1  19
TORSDOF 6
ENDMDL
MODEL 4
REMARK VINA RESULT:      -7.5      5.481      6.700
REMARK  6 active torsions:
REMARK  status: ('A' for Active; 'I' for Inactive)
REMARK    1  A    between atoms: O_2  and  C_3 
REMARK    2  A    between atoms: C_4  and  N_5 
REMARK       I    between atoms: N_5  and  C_6 
REMARK       I    between atoms: C_6  and  N_7 
REMARK    3  A    between atoms: N_7  and  C_8 
REMARK    4  A    between atoms: C_8  and  C_9 
REMARK    5  A    between atoms: C_9  and  C_10 
REMARK    6  A    between atoms: C_10  and  N_11 
ROOT
HETATM    1  N   UNL     1      43.057 -11.821  10.087  1.00  0.00    -0.306 N 
HETATM    2  C   UNL     1      44.128 -11.803   9.227  1.00  0.00     0.320 C 
HETATM    3  N   UNL     1      44.238 -13.017   8.576  1.00  0.00    -0.343 N 
HETATM    4  O   UNL     1      44.926 -10.891   9.076  1.00  0.00    -0.247 OA
HETATM    5  H   UNL     1      42.682 -12.733  10.314  1.00  0.00     0.171 HD
HETATM    6  H   UNL     1      43.350 -13.436   8.332  1.00  0.00     0.164 HD
ENDROOT
BRANCH   3   7
HETATM    7  C   UNL     1      45.346 -13.282   7.678  1.00  0.00     0.126 C 
BRANCH   7   8
HETATM    8  C   UNL     1      45.002 -14.297   6.589  1.00  0.00     0.040 C 
BRANCH   8   9
HETATM    9  C   UNL     1      44.072 -15.392   7.106  1.00  0.00     0.131 C 
BRANCH   9  10
HETATM   10  N   UNL     1      44.225 -16.634   6.369  1.00  0.00    -0.341 N 
HETATM   11  C   UNL     1      43.532 -16.961   5.231  1.00  0.00     0.139 A 
HETATM   12  C   UNL     1      43.942 -18.235   4.842  1.00  0.00     0.011 A 
HETATM   13  N   UNL     1      42.624 -16.176   4.614  1.00  0.00    -0.242 NA
HETATM   14  C   UNL     1      43.359 -18.779   3.687  1.00  0.00     0.017 A 
HETATM   15  C   UNL     1      44.908 -18.669   5.788  1.00  0.00     0.032 A 
HETATM   16  C   UNL     1      42.414 -18.006   3.013  1.00  0.00     0.020 A 
HETATM   17  C   UNL     1      42.097 -16.748   3.509  1.00  0.00     0.119 A 
HETATM   18  C   UNL     1      45.064 -17.663   6.720  1.00  0.00     0.093 A 
ENDBRANCH   9  10
ENDBRANCH   8   9
ENDBRANCH   7   8
ENDBRANCH   3   7
BRANCH   1  19
HETATM   19  C   UNL     1      42.602 -10.774  10.914  1.00  0.00     0.071 A 
HETATM   20  C   UNL     1      41.578  -9.958  10.403  1.00  0.00     0.095 A 
HETATM   21  C   UNL     1      41.096  -8.867  11.126  1.00  0.00     0.041 A 
HETATM   22  C   UNL     1      41.616  -8.605  12.393  1.00  0.00     0.026 A 
HETATM   23  C   UNL     1      42.617  -9.426  12.915  1.00  0.00     0.036 A 
HETATM   24  C   UNL     1      43.114 -10.507  12.183  1.00  0.00     0.056 A 
HETATM   25 CL   UNL     1      43.255  -9.087  14.478  1.00  0.00    -0.084 Cl
BRANCH  20  26
HETATM   26  O   UNL     1      41.075 -10.232   9.153  1.00  0.00    -0.354 OA
HETATM   27  C   UNL     1      39.731 -10.709   9.258  1.00  0.00     0.210 C 
ENDBRANCH  20  26
ENDBRANCH   1  19
TORSDOF 6
ENDMDL
MODEL 5
REMARK VINA RESULT:      -7.5      1.755      2.984
REMARK  6 active torsions:
REMARK  status: ('A' for Active; 'I' for Inactive)
REMARK    1  A    between atoms: O_2  and  C_3 
REMARK    2  A    between atoms: C_4  and  N_5 
REMARK       I    between atoms: N_5  and  C_6 
REMARK       I    between atoms: C_6  and  N_7 
REMARK    3  A    between atoms: N_7  and  C_8 
REMARK    4  A    between atoms: C_8  and  C_9 
REMARK    5  A    between atoms: C_9  and  C_10 
REMARK    6  A    between atoms: C_10  and  N_11 
ROOT
HETATM    1  N   UNL     1      42.020 -15.018   5.202  1.00  0.00    -0.306 N 
HETATM    2  C   UNL     1      41.734 -15.948   6.171  1.00  0.00     0.320 C 
HETATM    3  N   UNL     1      42.903 -16.431   6.730  1.00  0.00    -0.343 N 
HETATM    4  O   UNL     1      40.627 -16.361   6.481  1.00  0.00    -0.247 OA
HETATM    5  H   UNL     1      42.973 -15.004   4.863  1.00  0.00     0.171 HD
HETATM    6  H   UNL     1      43.625 -15.732   6.841  1.00  0.00     0.164 HD
ENDROOT
BRANCH   3   7
HETATM    7  C   UNL     1      42.872 -17.493   7.717  1.00  0.00     0.126 C 
BRANCH   7   8
HETATM    8  C   UNL     1      43.771 -18.673   7.351  1.00  0.00     0.040 C 
BRANCH   8   9
HETATM    9  C   UNL     1      44.804 -18.295   6.292  1.00  0.00     0.131 C 
BRANCH   9  10
HETATM   10  N   UNL     1      44.621 -19.037   5.058  1.00  0.00    -0.341 N 
HETATM   11  C   UNL     1      44.123 -18.512   3.893  1.00  0.00     0.139 A 
HETATM   12  C   UNL     1      44.082 -19.539   2.953  1.00  0.00     0.011 A 
HETATM   13  N   UNL     1      43.747 -17.228   3.711  1.00  0.00    -0.242 NA
HETATM   14  C   UNL     1      43.602 -19.227   1.671  1.00  0.00     0.017 A 
HETATM   15  C   UNL     1      44.574 -20.708   3.592  1.00  0.00     0.032 A 
HETATM   16  C   UNL     1      43.202 -17.913   1.433  1.00  0.00     0.020 A 
HETATM   17  C   UNL     1      43.295 -16.984   2.460  1.00  0.00     0.119 A 
HETATM   18  C   UNL     1      44.899 -20.371   4.889  1.00  0.00     0.093 A 
ENDBRANCH   9  10
ENDBRANCH   8   9
ENDBRANCH   7   8
ENDBRANCH   3   7
BRANCH   1  19
HETATM   19  C   UNL     1      41.106 -14.284   4.419  1.00  0.00     0.071 A 
HETATM   20  C   UNL     1      40.967 -12.917   4.713  1.00  0.00     0.095 A 
HETATM   21  C   UNL     1      40.051 -12.120   4.026  1.00  0.00     0.041 A 
HETATM   22  C   UNL     1      39.287 -12.684   3.006  1.00  0.00     0.026 A 
HETATM   23  C   UNL     1      39.438 -14.036   2.694  1.00  0.00     0.036 A 
HETATM   24  C   UNL     1      40.340 -14.840   3.394  1.00  0.00     0.056 A 
HETATM   25 CL   UNL     1      38.482 -14.722   1.435  1.00  0.00    -0.084 Cl
BRANCH  20  26
HETATM   26  O   UNL     1      41.731 -12.377   5.722  1.00  0.00    -0.354 OA
HETATM   27  C   UNL     1      41.046 -11.275   6.321  1.00  0.00     0.210 C 
ENDBRANCH  20  26
ENDBRANCH   1  19
TORSDOF 6
ENDMDL
MODEL 6
REMARK VINA RESULT:      -7.5      3.068      6.850
REMARK  6 active torsions:
REMARK  status: ('A' for Active; 'I' for Inactive)
REMARK    1  A    between atoms: O_2  and  C_3 
REMARK    2  A    between atoms: C_4  and  N_5 
REMARK       I    between atoms: N_5  and  C_6 
REMARK       I    between atoms: C_6  and  N_7 
REMARK    3  A    between atoms: N_7  and  C_8 
REMARK    4  A    between atoms: C_8  and  C_9 
REMARK    5  A    between atoms: C_9  and  C_10 
REMARK    6  A    between atoms: C_10  and  N_11 
ROOT
HETATM    1  N   UNL     1      44.034 -18.233   2.641  1.00  0.00    -0.306 N 
HETATM    2  C   UNL     1      42.873 -17.917   1.977  1.00  0.00     0.320 C 
HETATM    3  N   UNL     1      43.129 -17.002   0.975  1.00  0.00    -0.343 N 
HETATM    4  O   UNL     1      41.750 -18.318   2.244  1.00  0.00    -0.247 OA
HETATM    5  H   UNL     1      44.814 -17.605   2.499  1.00  0.00     0.171 HD
HETATM    6  H   UNL     1      44.008 -17.151   0.496  1.00  0.00     0.164 HD
ENDROOT
BRANCH   3   7
HETATM    7  C   UNL     1      42.050 -16.440   0.186  1.00  0.00     0.126 C 
BRANCH   7   8
HETATM    8  C   UNL     1      41.791 -14.966   0.493  1.00  0.00     0.040 C 
BRANCH   8   9
HETATM    9  C   UNL     1      41.066 -14.781   1.824  1.00  0.00     0.131 C 
BRANCH   9  10
HETATM   10  N   UNL     1      41.989 -14.610   2.932  1.00  0.00    -0.341 N 
HETATM   11  C   UNL     1      41.881 -15.238   4.146  1.00  0.00     0.139 A 
HETATM   12  C   UNL     1      42.938 -14.797   4.941  1.00  0.00     0.011 A 
HETATM   13  N   UNL     1      40.920 -16.121   4.489  1.00  0.00    -0.242 NA
HETATM   14  C   UNL     1      43.030 -15.316   6.242  1.00  0.00     0.017 A 
HETATM   15  C   UNL     1      43.690 -13.878   4.163  1.00  0.00     0.032 A 
HETATM   16  C   UNL     1      42.060 -16.233   6.644  1.00  0.00     0.020 A 
HETATM   17  C   UNL     1      41.058 -16.588   5.750  1.00  0.00     0.119 A 
HETATM   18  C   UNL     1      43.083 -13.780   2.928  1.00  0.00     0.093 A 
ENDBRANCH   9  10
ENDBRANCH   8   9
ENDBRANCH   7   8
ENDBRANCH   3   7
BRANCH   1  19
HETATM   19  C   UNL     1      44.194 -19.139   3.708  1.00  0.00     0.071 A 
HETATM   20  C   UNL     1      44.609 -20.441   3.382  1.00  0.00     0.095 A 
HETATM   21  C   UNL     1      44.748 -21.423   4.364  1.00  0.00     0.041 A 
HETATM   22  C   UNL     1      44.504 -21.093   5.696  1.00  0.00     0.026 A 
HETATM   23  C   UNL     1      44.113 -19.795   6.029  1.00  0.00     0.036 A 
HETATM   24  C   UNL     1      43.954 -18.817   5.044  1.00  0.00     0.056 A 
HETATM   25 CL   UNL     1      43.808 -19.403   7.678  1.00  0.00    -0.084 Cl
BRANCH  20  26
HETATM   26  O   UNL     1      44.849 -20.748   2.063  1.00  0.00    -0.354 OA
HETATM   27  C   UNL     1      44.057 -21.871   1.668  1.00  0.00     0.210 C 
ENDBRANCH  20  26
ENDBRANCH   1  19
TORSDOF 6
ENDMDL
MODEL 7
REMARK VINA RESULT:      -7.5      4.123      5.300
REMARK  6 active torsions:
REMARK  status: ('A' for Active; 'I' for Inactive)
REMARK    1  A    between atoms: O_2  and  C_3 
REMARK    2  A    between atoms: C_4  and  N_5 
REMARK       I    between atoms: N_5  and  C_6 
REMARK       I    between atoms: C_6  and  N_7 
REMARK    3  A    between atoms: N_7  and  C_8 
REMARK    4  A    between atoms: C_8  and  C_9 
REMARK    5  A    between atoms: C_9  and  C_10 
REMARK    6  A    between atoms: C_10  and  N_11 
ROOT
HETATM    1  N   UNL     1      41.716 -14.860  -0.935  1.00  0.00    -0.306 N 
HETATM    2  C   UNL     1      40.958 -14.981   0.204  1.00  0.00     0.320 C 
HETATM    3  N   UNL     1      41.008 -16.278   0.676  1.00  0.00    -0.343 N 
HETATM    4  O   UNL     1      40.275 -14.109   0.720  1.00  0.00    -0.247 OA
HETATM    5  H   UNL     1      41.974 -15.725  -1.394  1.00  0.00     0.171 HD
HETATM    6  H   UNL     1      41.913 -16.719   0.575  1.00  0.00     0.164 HD
ENDROOT
BRANCH   3   7
HETATM    7  C   UNL     1      40.215 -16.684   1.821  1.00  0.00     0.126 C 
BRANCH   7   8
HETATM    8  C   UNL     1      41.067 -17.158   2.998  1.00  0.00     0.040 C 
BRANCH   8   9
HETATM    9  C   UNL     1      42.560 -17.053   2.698  1.00  0.00     0.131 C 
BRANCH   9  10
HETATM   10  N   UNL     1      43.343 -17.993   3.481  1.00  0.00    -0.341 N 
HETATM   11  C   UNL     1      43.635 -19.278   3.102  1.00  0.00     0.139 A 
HETATM   12  C   UNL     1      44.382 -19.858   4.125  1.00  0.00     0.011 A 
HETATM   13  N   UNL     1      43.259 -19.857   1.942  1.00  0.00    -0.242 NA
HETATM   14  C   UNL     1      44.798 -21.187   3.950  1.00  0.00     0.017 A 
HETATM   15  C   UNL     1      44.532 -18.876   5.140  1.00  0.00     0.032 A 
HETATM   16  C   UNL     1      44.435 -21.830   2.767  1.00  0.00     0.020 A 
HETATM   17  C   UNL     1      43.687 -21.134   1.827  1.00  0.00     0.119 A 
HETATM   18  C   UNL     1      43.881 -17.735   4.717  1.00  0.00     0.093 A 
ENDBRANCH   9  10
ENDBRANCH   8   9
ENDBRANCH   7   8
ENDBRANCH   3   7
BRANCH   1  19
HETATM   19  C   UNL     1      41.936 -13.698  -1.702  1.00  0.00     0.071 A 
HETATM   20  C   UNL     1      41.520 -13.731  -3.044  1.00  0.00     0.095 A 
HETATM   21  C   UNL     1      41.739 -12.648  -3.895  1.00  0.00     0.041 A 
HETATM   22  C   UNL     1      42.350 -11.500  -3.393  1.00  0.00     0.026 A 
HETATM   23  C   UNL     1      42.745 -11.453  -2.055  1.00  0.00     0.036 A 
HETATM   24  C   UNL     1      42.544 -12.544  -1.207  1.00  0.00     0.056 A 
HETATM   25 CL   UNL     1      43.505 -10.030  -1.450  1.00  0.00    -0.084 Cl
BRANCH  20  26
HETATM   26  O   UNL     1      40.916 -14.871  -3.521  1.00  0.00    -0.354 OA
HETATM   27  C   UNL     1      39.499 -14.689  -3.579  1.00  0.00     0.210 C 
ENDBRANCH  20  26
ENDBRANCH   1  19
TORSDOF 6
ENDMDL
MODEL 8
REMARK VINA RESULT:      -7.4      3.436      6.872
REMARK  6 active torsions:
REMARK  status: ('A' for Active; 'I' for Inactive)
REMARK    1  A    between atoms: O_2  and  C_3 
REMARK    2  A    between atoms: C_4  and  N_5 
REMARK       I    between atoms: N_5  and  C_6 
REMARK       I    between atoms: C_6  and  N_7 
REMARK    3  A    between atoms: N_7  and  C_8 
REMARK    4  A    between atoms: C_8  and  C_9 
REMARK    5  A    between atoms: C_9  and  C_10 
REMARK    6  A    between atoms: C_10  and  N_11 
ROOT
HETATM    1  N   UNL     1      44.169 -18.057   4.572  1.00  0.00    -0.306 N 
HETATM    2  C   UNL     1      43.061 -17.382   5.022  1.00  0.00     0.320 C 
HETATM    3  N   UNL     1      43.346 -16.037   5.163  1.00  0.00    -0.343 N 
HETATM    4  O   UNL     1      41.983 -17.870   5.325  1.00  0.00    -0.247 OA
HETATM    5  H   UNL     1      45.053 -17.570   4.652  1.00  0.00     0.171 HD
HETATM    6  H   UNL     1      43.955 -15.668   4.445  1.00  0.00     0.164 HD
ENDROOT
BRANCH   3   7
HETATM    7  C   UNL     1      42.364 -15.122   5.712  1.00  0.00     0.126 C 
BRANCH   7   8
HETATM    8  C   UNL     1      42.430 -13.730   5.085  1.00  0.00     0.040 C 
BRANCH   8   9
HETATM    9  C   UNL     1      43.341 -13.701   3.860  1.00  0.00     0.131 C 
BRANCH   9  10
HETATM   10  N   UNL     1      42.590 -13.703   2.617  1.00  0.00    -0.341 N 
HETATM   11  C   UNL     1      42.334 -14.816   1.858  1.00  0.00     0.139 A 
HETATM   12  C   UNL     1      41.610 -14.404   0.740  1.00  0.00     0.011 A 
HETATM   13  N   UNL     1      42.719 -16.074   2.157  1.00  0.00    -0.242 NA
HETATM   14  C   UNL     1      41.232 -15.388  -0.186  1.00  0.00     0.017 A 
HETATM   15  C   UNL     1      41.437 -12.998   0.851  1.00  0.00     0.032 A 
HETATM   16  C   UNL     1      41.607 -16.704   0.078  1.00  0.00     0.020 A 
HETATM   17  C   UNL     1      42.329 -16.980   1.232  1.00  0.00     0.119 A 
HETATM   18  C   UNL     1      42.052 -12.591   2.017  1.00  0.00     0.093 A 
ENDBRANCH   9  10
ENDBRANCH   8   9
ENDBRANCH   7   8
ENDBRANCH   3   7
BRANCH   1  19
HETATM   19  C   UNL     1      44.279 -19.433   4.285  1.00  0.00     0.071 A 
HETATM   20  C   UNL     1      44.500 -20.296   5.372  1.00  0.00     0.095 A 
HETATM   21  C   UNL     1      44.671 -21.667   5.183  1.00  0.00     0.041 A 
HETATM   22  C   UNL     1      44.585 -22.193   3.895  1.00  0.00     0.026 A 
HETATM   23  C   UNL     1      44.342 -21.344   2.814  1.00  0.00     0.036 A 
HETATM   24  C   UNL     1      44.191 -19.968   3.000  1.00  0.00     0.056 A 
HETATM   25 CL   UNL     1      44.245 -22.007   1.227  1.00  0.00    -0.084 Cl
BRANCH  20  26
HETATM   26  O   UNL     1      44.580 -19.759   6.636  1.00  0.00    -0.354 OA
HETATM   27  C   UNL     1      43.641 -20.402   7.502  1.00  0.00     0.210 C 
ENDBRANCH  20  26
ENDBRANCH   1  19
TORSDOF 6
ENDMDL
MODEL 9
REMARK VINA RESULT:      -7.3      2.147      2.837
REMARK  6 active torsions:
REMARK  status: ('A' for Active; 'I' for Inactive)
REMARK    1  A    between atoms: O_2  and  C_3 
REMARK    2  A    between atoms: C_4  and  N_5 
REMARK       I    between atoms: N_5  and  C_6 
REMARK       I    between atoms: C_6  and  N_7 
REMARK    3  A    between atoms: N_7  and  C_8 
REMARK    4  A    between atoms: C_8  and  C_9 
REMARK    5  A    between atoms: C_9  and  C_10 
REMARK    6  A    between atoms: C_10  and  N_11 
ROOT
HETATM    1  N   UNL     1      40.412 -15.697   3.435  1.00  0.00    -0.306 N 
HETATM    2  C   UNL     1      41.509 -15.752   4.260  1.00  0.00     0.320 C 
HETATM    3  N   UNL     1      41.247 -16.564   5.348  1.00  0.00    -0.343 N 
HETATM    4  O   UNL     1      42.557 -15.141   4.122  1.00  0.00    -0.247 OA
HETATM    5  H   UNL     1      39.537 -16.012   3.832  1.00  0.00     0.171 HD
HETATM    6  H   UNL     1      40.687 -17.377   5.130  1.00  0.00     0.164 HD
ENDROOT
BRANCH   3   7
HETATM    7  C   UNL     1      42.217 -16.714   6.415  1.00  0.00     0.126 C 
BRANCH   7   8
HETATM    8  C   UNL     1      42.962 -18.048   6.360  1.00  0.00     0.040 C 
BRANCH   8   9
HETATM    9  C   UNL     1      44.235 -17.954   5.524  1.00  0.00     0.131 C 
BRANCH   9  10
HETATM   10  N   UNL     1      44.144 -18.725   4.297  1.00  0.00    -0.341 N 
HETATM   11  C   UNL     1      44.367 -20.074   4.200  1.00  0.00     0.139 A 
HETATM   12  C   UNL     1      44.205 -20.431   2.862  1.00  0.00     0.011 A 
HETATM   13  N   UNL     1      44.683 -20.892   5.226  1.00  0.00    -0.242 NA
HETATM   14  C   UNL     1      44.385 -21.782   2.526  1.00  0.00     0.017 A 
HETATM   15  C   UNL     1      43.876 -19.247   2.152  1.00  0.00     0.032 A 
HETATM   16  C   UNL     1      44.713 -22.667   3.552  1.00  0.00     0.020 A 
HETATM   17  C   UNL     1      44.844 -22.179   4.845  1.00  0.00     0.119 A 
HETATM   18  C   UNL     1      43.846 -18.208   3.060  1.00  0.00     0.093 A 
ENDBRANCH   9  10
ENDBRANCH   8   9
ENDBRANCH   7   8
ENDBRANCH   3   7
BRANCH   1  19
HETATM   19  C   UNL     1      40.288 -14.995   2.218  1.00  0.00     0.071 A 
HETATM   20  C   UNL     1      39.721 -13.711   2.278  1.00  0.00     0.095 A 
HETATM   21  C   UNL     1      39.511 -12.959   1.121  1.00  0.00     0.041 A 
HETATM   22  C   UNL     1      39.906 -13.480  -0.111  1.00  0.00     0.026 A 
HETATM   23  C   UNL     1      40.491 -14.746  -0.173  1.00  0.00     0.036 A 
HETATM   24  C   UNL     1      40.683 -15.507   0.982  1.00  0.00     0.056 A 
HETATM   25 CL   UNL     1      40.967 -15.379  -1.702  1.00  0.00    -0.084 Cl
BRANCH  20  26
HETATM   26  O   UNL     1      39.341 -13.212   3.502  1.00  0.00    -0.354 OA
HETATM   27  C   UNL     1      39.916 -11.919   3.706  1.00  0.00     0.210 C 
ENDBRANCH  20  26
ENDBRANCH   1  19
TORSDOF 6
ENDMDL
MODEL 10
REMARK VINA RESULT:      -7.2      3.789      7.517
REMARK  6 active torsions:
REMARK  status: ('A' for Active; 'I' for Inactive)
REMARK    1  A    between atoms: O_2  and  C_3 
REMARK    2  A    between atoms: C_4  and  N_5 
REMARK       I    between atoms: N_5  and  C_6 
REMARK       I    between atoms: C_6  and  N_7 
REMARK    3  A    between atoms: N_7  and  C_8 
REMARK    4  A    between atoms: C_8  and  C_9 
REMARK    5  A    between atoms: C_9  and  C_10 
REMARK    6  A    between atoms: C_10  and  N_11 
ROOT
HETATM    1  N   UNL     1      43.985 -17.704   4.146  1.00  0.00    -0.306 N 
HETATM    2  C   UNL     1      42.796 -17.041   4.331  1.00  0.00     0.320 C 
HETATM    3  N   UNL     1      43.014 -15.678   4.392  1.00  0.00    -0.343 N 
HETATM    4  O   UNL     1      41.696 -17.548   4.485  1.00  0.00    -0.247 OA
HETATM    5  H   UNL     1      44.826 -17.173   4.333  1.00  0.00     0.171 HD
HETATM    6  H   UNL     1      43.730 -15.346   3.760  1.00  0.00     0.164 HD
ENDROOT
BRANCH   3   7
HETATM    7  C   UNL     1      41.925 -14.762   4.672  1.00  0.00     0.126 C 
BRANCH   7   8
HETATM    8  C   UNL     1      41.291 -14.185   3.408  1.00  0.00     0.040 C 
BRANCH   8   9
HETATM    9  C   UNL     1      42.307 -14.040   2.278  1.00  0.00     0.131 C 
BRANCH   9  10
HETATM   10  N   UNL     1      41.910 -14.768   1.086  1.00  0.00    -0.341 N 
HETATM   11  C   UNL     1      41.566 -14.190  -0.109  1.00  0.00     0.139 A 
HETATM   12  C   UNL     1      41.228 -15.215  -0.990  1.00  0.00     0.011 A 
HETATM   13  N   UNL     1      41.565 -12.865  -0.366  1.00  0.00    -0.242 NA
HETATM   14  C   UNL     1      40.842 -14.853  -2.289  1.00  0.00     0.017 A 
HETATM   15  C   UNL     1      41.379 -16.438  -0.283  1.00  0.00     0.032 A 
HETATM   16  C   UNL     1      40.824 -13.494  -2.605  1.00  0.00     0.020 A 
HETATM   17  C   UNL     1      41.186 -12.573  -1.631  1.00  0.00     0.119 A 
HETATM   18  C   UNL     1      41.799 -16.134   0.995  1.00  0.00     0.093 A 
ENDBRANCH   9  10
ENDBRANCH   8   9
ENDBRANCH   7   8
ENDBRANCH   3   7
BRANCH   1  19
HETATM   19  C   UNL     1      44.182 -19.093   4.014  1.00  0.00     0.071 A 
HETATM   20  C   UNL     1      44.569 -19.796   5.168  1.00  0.00     0.095 A 
HETATM   21  C   UNL     1      44.836 -21.164   5.125  1.00  0.00     0.041 A 
HETATM   22  C   UNL     1      44.680 -21.852   3.923  1.00  0.00     0.026 A 
HETATM   23  C   UNL     1      44.273 -21.164   2.778  1.00  0.00     0.036 A 
HETATM   24  C   UNL     1      44.026 -19.789   2.815  1.00  0.00     0.056 A 
HETATM   25 CL   UNL     1      44.091 -22.024   1.297  1.00  0.00    -0.084 Cl
BRANCH  20  26
HETATM   26  O   UNL     1      44.715 -19.101   6.347  1.00  0.00    -0.354 OA
HETATM   27  C   UNL     1      43.741 -19.538   7.298  1.00  0.00     0.210 C 
ENDBRANCH  20  26
ENDBRANCH   1  19
TORSDOF 6
ENDMDL
