MODEL 1
REMARK VINA RESULT:      -7.8      0.000      0.000
REMARK  7 active torsions:
REMARK  status: ('A' for Active; 'I' for Inactive)
REMARK    1  A    between atoms: C_2  and  C_3 
REMARK    2  A    between atoms: C_3  and  O_4 
REMARK    3  A    between atoms: O_4  and  C_5 
REMARK    4  A    between atoms: C_8  and  C_9 
REMARK    5  A    between atoms: C_15  and  C_16 
REMARK    6  A    between atoms: C_19  and  N_20 
REMARK       I    between atoms: N_20  and  C_21 
REMARK    7  A    between atoms: C_29  and  N_30 
ROOT
HETATM    1  C   UNL     1      40.660 -14.140   5.175  1.00  0.00     0.072 A 
HETATM    2  N   UNL     1      39.871 -14.227   6.304  1.00  0.00    -0.274 N 
HETATM    3  H   UNL     1      39.789 -15.014   6.939  1.00  0.00     0.189 HD
HETATM    4  N   UNL     1      39.141 -13.123   6.558  1.00  0.00    -0.148 NA
HETATM    5  C   UNL     1      39.495 -12.318   5.565  1.00  0.00     0.199 A 
HETATM    6  C   UNL     1      40.427 -12.867   4.678  1.00  0.00     0.040 A 
HETATM    7  C   UNL     1      40.910 -12.075   3.513  1.00  0.00     0.106 A 
HETATM    8  C   UNL     1      40.252 -10.701   3.467  1.00  0.00     0.081 A 
HETATM    9  C   UNL     1      40.673  -9.827   2.423  1.00  0.00     0.100 C 
HETATM   10  N   UNL     1      41.020  -9.119   1.571  1.00  0.00    -0.191 NA
HETATM   11  C   UNL     1      39.350 -10.284   4.394  1.00  0.00     0.140 A 
HETATM   12  O   UNL     1      38.948 -11.094   5.464  1.00  0.00    -0.277 OA
ENDROOT
BRANCH   7  13
HETATM   13  C   UNL     1      40.647 -12.909   2.265  1.00  0.00    -0.044 A 
HETATM   14  C   UNL     1      39.356 -13.274   1.853  1.00  0.00     0.010 A 
HETATM   15  C   UNL     1      39.157 -14.035   0.693  1.00  0.00     0.030 A 
HETATM   16  C   UNL     1      40.241 -14.433  -0.089  1.00  0.00     0.034 A 
HETATM   17  C   UNL     1      41.529 -14.055   0.305  1.00  0.00     0.030 A 
HETATM   18  C   UNL     1      41.730 -13.300   1.463  1.00  0.00     0.010 A 
BRANCH  16  19
HETATM   19  N   UNL     1      40.130 -15.198  -1.268  1.00  0.00    -0.328 N 
HETATM   20  C   UNL     1      39.839 -14.748  -2.543  1.00  0.00     0.218 C 
HETATM   21  C   UNL     1      39.825 -15.871  -3.550  1.00  0.00     0.117 C 
HETATM   22  O   UNL     1      39.632 -13.591  -2.889  1.00  0.00    -0.274 OA
HETATM   23  H   UNL     1      40.283 -16.193  -1.162  1.00  0.00     0.169 HD
ENDBRANCH  16  19
ENDBRANCH   7  13
BRANCH  11  24
HETATM   24  N   UNL     1      38.734  -9.050   4.405  1.00  0.00    -0.282 NA
HETATM   25  H   UNL     1      39.249  -8.298   3.953  1.00  0.00     0.126 HD
HETATM   26  H   UNL     1      37.767  -9.109   4.094  1.00  0.00     0.126 HD
ENDBRANCH  11  24
BRANCH   1  27
HETATM   27  C   UNL     1      41.475 -15.250   4.695  1.00  0.00    -0.007 A 
HETATM   28  C   UNL     1      40.965 -16.137   3.738  1.00  0.00     0.016 A 
HETATM   29  C   UNL     1      41.751 -17.180   3.234  1.00  0.00     0.037 A 
HETATM   30  C   UNL     1      43.062 -17.346   3.676  1.00  0.00     0.068 A 
HETATM   31  C   UNL     1      43.570 -16.473   4.641  1.00  0.00     0.037 A 
HETATM   32  C   UNL     1      42.783 -15.433   5.150  1.00  0.00     0.016 A 
BRANCH  30  33
HETATM   33  O   UNL     1      43.940 -18.301   3.246  1.00  0.00    -0.351 OA
BRANCH  33  34
HETATM   34  C   UNL     1      43.401 -19.374   2.472  1.00  0.00     0.175 C 
BRANCH  34  35
HETATM   35  C   UNL     1      44.327 -20.577   2.623  1.00  0.00     0.022 C 
HETATM   36  C   UNL     1      43.908 -21.726   1.722  1.00  0.00     0.007 C 
ENDBRANCH  34  35
ENDBRANCH  33  34
ENDBRANCH  30  33
ENDBRANCH   1  27
TORSDOF 7
ENDMDL
MODEL 2
REMARK VINA RESULT:      -7.4      2.347      4.292
REMARK  7 active torsions:
REMARK  status: ('A' for Active; 'I' for Inactive)
REMARK    1  A    between atoms: C_2  and  C_3 
REMARK    2  A    between atoms: C_3  and  O_4 
REMARK    3  A    between atoms: O_4  and  C_5 
REMARK    4  A    between atoms: C_8  and  C_9 
REMARK    5  A    between atoms: C_15  and  C_16 
REMARK    6  A    between atoms: C_19  and  N_20 
REMARK       I    between atoms: N_20  and  C_21 
REMARK    7  A    between atoms: C_29  and  N_30 
ROOT
HETATM    1  C   UNL     1      40.821 -13.828   4.974  1.00  0.00     0.072 A 
HETATM    2  N   UNL     1      39.701 -13.272   5.557  1.00  0.00    -0.274 N 
HETATM    3  H   UNL     1      39.405 -13.351   6.524  1.00  0.00     0.189 HD
HETATM    4  N   UNL     1      38.937 -12.551   4.713  1.00  0.00    -0.148 NA
HETATM    5  C   UNL     1      39.608 -12.649   3.573  1.00  0.00     0.199 A 
HETATM    6  C   UNL     1      40.777 -13.411   3.653  1.00  0.00     0.040 A 
HETATM    7  C   UNL     1      41.628 -13.609   2.447  1.00  0.00     0.106 A 
HETATM    8  C   UNL     1      41.034 -12.908   1.230  1.00  0.00     0.081 A 
HETATM    9  C   UNL     1      41.785 -12.982   0.021  1.00  0.00     0.100 C 
HETATM   10  N   UNL     1      42.403 -13.044  -0.960  1.00  0.00    -0.191 NA
HETATM   11  C   UNL     1      39.877 -12.196   1.281  1.00  0.00     0.140 A 
HETATM   12  O   UNL     1      39.136 -12.058   2.461  1.00  0.00    -0.277 OA
ENDROOT
BRANCH   7  13
HETATM   13  C   UNL     1      41.789 -15.112   2.254  1.00  0.00    -0.044 A 
HETATM   14  C   UNL     1      40.724 -15.951   1.891  1.00  0.00     0.010 A 
HETATM   15  C   UNL     1      40.918 -17.328   1.716  1.00  0.00     0.030 A 
HETATM   16  C   UNL     1      42.182 -17.894   1.883  1.00  0.00     0.034 A 
HETATM   17  C   UNL     1      43.251 -17.061   2.225  1.00  0.00     0.030 A 
HETATM   18  C   UNL     1      43.060 -15.688   2.404  1.00  0.00     0.010 A 
BRANCH  16  19
HETATM   19  N   UNL     1      42.463 -19.266   1.727  1.00  0.00    -0.328 N 
HETATM   20  C   UNL     1      43.634 -19.930   2.045  1.00  0.00     0.218 C 
HETATM   21  C   UNL     1      43.546 -21.406   1.747  1.00  0.00     0.117 C 
HETATM   22  O   UNL     1      44.647 -19.448   2.536  1.00  0.00    -0.274 OA
HETATM   23  H   UNL     1      41.716 -19.826   1.335  1.00  0.00     0.169 HD
ENDBRANCH  16  19
ENDBRANCH   7  13
BRANCH  11  24
HETATM   24  N   UNL     1      39.303 -11.536   0.215  1.00  0.00    -0.282 NA
HETATM   25  H   UNL     1      38.392 -11.119   0.395  1.00  0.00     0.126 HD
HETATM   26  H   UNL     1      39.955 -10.889  -0.222  1.00  0.00     0.126 HD
ENDBRANCH  11  24
BRANCH   1  27
HETATM   27  C   UNL     1      41.741 -14.694   5.703  1.00  0.00    -0.007 A 
HETATM   28  C   UNL     1      43.058 -14.281   5.943  1.00  0.00     0.016 A 
HETATM   29  C   UNL     1      43.939 -15.081   6.681  1.00  0.00     0.037 A 
HETATM   30  C   UNL     1      43.511 -16.303   7.196  1.00  0.00     0.068 A 
HETATM   31  C   UNL     1      42.203 -16.725   6.947  1.00  0.00     0.037 A 
HETATM   32  C   UNL     1      41.323 -15.930   6.205  1.00  0.00     0.016 A 
BRANCH  30  33
HETATM   33  O   UNL     1      44.258 -17.162   7.953  1.00  0.00    -0.351 OA
BRANCH  33  34
HETATM   34  C   UNL     1      44.108 -18.557   7.688  1.00  0.00     0.175 C 
BRANCH  34  35
HETATM   35  C   UNL     1      44.711 -18.845   6.316  1.00  0.00     0.022 C 
HETATM   36  C   UNL     1      44.237 -20.177   5.763  1.00  0.00     0.007 C 
ENDBRANCH  34  35
ENDBRANCH  33  34
ENDBRANCH  30  33
ENDBRANCH   1  27
TORSDOF 7
ENDMDL
MODEL 3
REMARK VINA RESULT:      -7.3      2.616      6.346
REMARK  7 active torsions:
REMARK  status: ('A' for Active; 'I' for Inactive)
REMARK    1  A    between atoms: C_2  and  C_3 
REMARK    2  A    between atoms: C_3  and  O_4 
REMARK    3  A    between atoms: O_4  and  C_5 
REMARK    4  A    between atoms: C_8  and  C_9 
REMARK    5  A    between atoms: C_15  and  C_16 
REMARK    6  A    between atoms: C_19  and  N_20 
REMARK       I    between atoms: N_20  and  C_21 
REMARK    7  A    between atoms: C_29  and  N_30 
ROOT
HETATM    1  C   UNL     1      41.272 -16.511   3.645  1.00  0.00     0.072 A 
HETATM    2  N   UNL     1      40.720 -17.746   3.918  1.00  0.00    -0.274 N 
HETATM    3  H   UNL     1      40.119 -18.298   3.318  1.00  0.00     0.189 HD
HETATM    4  N   UNL     1      41.039 -18.239   5.131  1.00  0.00    -0.148 NA
HETATM    5  C   UNL     1      41.823 -17.290   5.624  1.00  0.00     0.199 A 
HETATM    6  C   UNL     1      42.020 -16.200   4.770  1.00  0.00     0.040 A 
HETATM    7  C   UNL     1      42.875 -15.058   5.197  1.00  0.00     0.106 A 
HETATM    8  C   UNL     1      43.427 -15.275   6.602  1.00  0.00     0.081 A 
HETATM    9  C   UNL     1      44.305 -14.271   7.104  1.00  0.00     0.100 C 
HETATM   10  N   UNL     1      45.021 -13.450   7.506  1.00  0.00    -0.191 NA
HETATM   11  C   UNL     1      43.156 -16.385   7.337  1.00  0.00     0.140 A 
HETATM   12  O   UNL     1      42.338 -17.417   6.859  1.00  0.00    -0.277 OA
ENDROOT
BRANCH   7  13
HETATM   13  C   UNL     1      42.032 -13.795   5.070  1.00  0.00    -0.044 A 
HETATM   14  C   UNL     1      42.352 -12.753   4.186  1.00  0.00     0.010 A 
HETATM   15  C   UNL     1      41.544 -11.611   4.095  1.00  0.00     0.030 A 
HETATM   16  C   UNL     1      40.392 -11.494   4.872  1.00  0.00     0.034 A 
HETATM   17  C   UNL     1      40.056 -12.538   5.739  1.00  0.00     0.030 A 
HETATM   18  C   UNL     1      40.862 -13.675   5.835  1.00  0.00     0.010 A 
BRANCH  16  19
HETATM   19  N   UNL     1      39.526 -10.382   4.842  1.00  0.00    -0.328 N 
HETATM   20  C   UNL     1      38.415 -10.197   4.038  1.00  0.00     0.218 C 
HETATM   21  C   UNL     1      37.732  -8.880   4.310  1.00  0.00     0.117 C 
HETATM   22  O   UNL     1      37.969 -10.976   3.204  1.00  0.00    -0.274 OA
HETATM   23  H   UNL     1      39.748  -9.635   5.487  1.00  0.00     0.169 HD
ENDBRANCH  16  19
ENDBRANCH   7  13
BRANCH  11  24
HETATM   24  N   UNL     1      43.636 -16.634   8.605  1.00  0.00    -0.282 NA
HETATM   25  H   UNL     1      43.474 -15.898   9.290  1.00  0.00     0.126 HD
HETATM   26  H   UNL     1      43.357 -17.554   8.940  1.00  0.00     0.126 HD
ENDBRANCH  11  24
BRANCH   1  27
HETATM   27  C   UNL     1      40.998 -15.781   2.413  1.00  0.00    -0.007 A 
HETATM   28  C   UNL     1      39.777 -15.115   2.245  1.00  0.00     0.016 A 
HETATM   29  C   UNL     1      39.516 -14.372   1.088  1.00  0.00     0.037 A 
HETATM   30  C   UNL     1      40.478 -14.278   0.084  1.00  0.00     0.068 A 
HETATM   31  C   UNL     1      41.692 -14.952   0.241  1.00  0.00     0.037 A 
HETATM   32  C   UNL     1      41.951 -15.700   1.394  1.00  0.00     0.016 A 
BRANCH  30  33
HETATM   33  O   UNL     1      40.362 -13.565  -1.076  1.00  0.00    -0.351 OA
BRANCH  33  34
HETATM   34  C   UNL     1      41.321 -13.833  -2.100  1.00  0.00     0.175 C 
BRANCH  34  35
HETATM   35  C   UNL     1      40.574 -14.344  -3.327  1.00  0.00     0.022 C 
HETATM   36  C   UNL     1      40.331 -15.841  -3.254  1.00  0.00     0.007 C 
ENDBRANCH  34  35
ENDBRANCH  33  34
ENDBRANCH  30  33
ENDBRANCH   1  27
TORSDOF 7
ENDMDL
MODEL 4
REMARK VINA RESULT:      -7.2      2.744      6.389
REMARK  7 active torsions:
REMARK  status: ('A' for Active; 'I' for Inactive)
REMARK    1  A    between atoms: C_2  and  C_3 
REMARK    2  A    between atoms: C_3  and  O_4 
REMARK    3  A    between atoms: O_4  and  C_5 
REMARK    4  A    between atoms: C_8  and  C_9 
REMARK    5  A    between atoms: C_15  and  C_16 
REMARK    6  A    between atoms: C_19  and  N_20 
REMARK       I    between atoms: N_20  and  C_21 
REMARK    7  A    between atoms: C_29  and  N_30 
ROOT
HETATM    1  C   UNL     1      42.296 -13.737   5.661  1.00  0.00     0.072 A 
HETATM    2  N   UNL     1      43.160 -12.932   6.374  1.00  0.00    -0.274 N 
HETATM    3  H   UNL     1      43.100 -11.928   6.506  1.00  0.00     0.189 HD
HETATM    4  N   UNL     1      44.188 -13.590   6.945  1.00  0.00    -0.148 NA
HETATM    5  C   UNL     1      43.951 -14.845   6.588  1.00  0.00     0.199 A 
HETATM    6  C   UNL     1      42.806 -15.018   5.805  1.00  0.00     0.040 A 
HETATM    7  C   UNL     1      42.421 -16.375   5.328  1.00  0.00     0.106 A 
HETATM    8  C   UNL     1      43.418 -17.429   5.796  1.00  0.00     0.081 A 
HETATM    9  C   UNL     1      43.130 -18.780   5.445  1.00  0.00     0.100 C 
HETATM   10  N   UNL     1      42.889 -19.879   5.157  1.00  0.00    -0.191 NA
HETATM   11  C   UNL     1      44.504 -17.131   6.556  1.00  0.00     0.140 A 
HETATM   12  O   UNL     1      44.794 -15.822   6.964  1.00  0.00    -0.277 OA
ENDROOT
BRANCH   7  13
HETATM   13  C   UNL     1      42.296 -16.298   3.811  1.00  0.00    -0.044 A 
HETATM   14  C   UNL     1      43.385 -16.017   2.971  1.00  0.00     0.010 A 
HETATM   15  C   UNL     1      43.228 -15.965   1.580  1.00  0.00     0.030 A 
HETATM   16  C   UNL     1      41.985 -16.208   0.996  1.00  0.00     0.034 A 
HETATM   17  C   UNL     1      40.900 -16.508   1.825  1.00  0.00     0.030 A 
HETATM   18  C   UNL     1      41.052 -16.558   3.214  1.00  0.00     0.010 A 
BRANCH  16  19
HETATM   19  N   UNL     1      41.740 -16.175  -0.392  1.00  0.00    -0.328 N 
HETATM   20  C   UNL     1      41.099 -15.184  -1.113  1.00  0.00     0.218 C 
HETATM   21  C   UNL     1      41.045 -15.502  -2.587  1.00  0.00     0.117 C 
HETATM   22  O   UNL     1      40.630 -14.139  -0.679  1.00  0.00    -0.274 OA
HETATM   23  H   UNL     1      42.076 -16.973  -0.916  1.00  0.00     0.169 HD
ENDBRANCH  16  19
ENDBRANCH   7  13
BRANCH  11  24
HETATM   24  N   UNL     1      45.429 -18.045   7.014  1.00  0.00    -0.282 NA
HETATM   25  H   UNL     1      45.636 -18.001   8.009  1.00  0.00     0.126 HD
HETATM   26  H   UNL     1      45.217 -18.988   6.695  1.00  0.00     0.126 HD
ENDBRANCH  11  24
BRANCH   1  27
HETATM   27  C   UNL     1      41.158 -13.208   4.918  1.00  0.00    -0.007 A 
HETATM   28  C   UNL     1      39.942 -12.965   5.570  1.00  0.00     0.016 A 
HETATM   29  C   UNL     1      38.854 -12.414   4.881  1.00  0.00     0.037 A 
HETATM   30  C   UNL     1      38.972 -12.092   3.530  1.00  0.00     0.068 A 
HETATM   31  C   UNL     1      40.178 -12.345   2.873  1.00  0.00     0.037 A 
HETATM   32  C   UNL     1      41.263 -12.902   3.559  1.00  0.00     0.016 A 
BRANCH  30  33
HETATM   33  O   UNL     1      38.001 -11.526   2.752  1.00  0.00    -0.351 OA
BRANCH  33  34
HETATM   34  C   UNL     1      38.167 -11.621   1.337  1.00  0.00     0.175 C 
BRANCH  34  35
HETATM   35  C   UNL     1      37.051 -12.505   0.788  1.00  0.00     0.022 C 
HETATM   36  C   UNL     1      37.456 -13.967   0.753  1.00  0.00     0.007 C 
ENDBRANCH  34  35
ENDBRANCH  33  34
ENDBRANCH  30  33
ENDBRANCH   1  27
TORSDOF 7
ENDMDL
MODEL 5
REMARK VINA RESULT:      -7.2      3.151      7.351
REMARK  7 active torsions:
REMARK  status: ('A' for Active; 'I' for Inactive)
REMARK    1  A    between atoms: C_2  and  C_3 
REMARK    2  A    between atoms: C_3  and  O_4 
REMARK    3  A    between atoms: O_4  and  C_5 
REMARK    4  A    between atoms: C_8  and  C_9 
REMARK    5  A    between atoms: C_15  and  C_16 
REMARK    6  A    between atoms: C_19  and  N_20 
REMARK       I    between atoms: N_20  and  C_21 
REMARK    7  A    between atoms: C_29  and  N_30 
ROOT
HETATM    1  C   UNL     1      43.405 -16.992   5.834  1.00  0.00     0.072 A 
HETATM    2  N   UNL     1      44.458 -16.887   6.719  1.00  0.00    -0.274 N 
HETATM    3  H   UNL     1      44.600 -16.174   7.426  1.00  0.00     0.189 HD
HETATM    4  N   UNL     1      45.384 -17.859   6.597  1.00  0.00    -0.148 NA
HETATM    5  C   UNL     1      44.886 -18.600   5.617  1.00  0.00     0.199 A 
HETATM    6  C   UNL     1      43.672 -18.138   5.100  1.00  0.00     0.040 A 
HETATM    7  C   UNL     1      43.000 -18.870   3.991  1.00  0.00     0.106 A 
HETATM    8  C   UNL     1      43.813 -20.087   3.561  1.00  0.00     0.081 A 
HETATM    9  C   UNL     1      43.247 -20.902   2.537  1.00  0.00     0.100 C 
HETATM   10  N   UNL     1      42.780 -21.563   1.704  1.00  0.00    -0.191 NA
HETATM   11  C   UNL     1      44.991 -20.431   4.143  1.00  0.00     0.140 A 
HETATM   12  O   UNL     1      45.555 -19.684   5.186  1.00  0.00    -0.277 OA
ENDROOT
BRANCH   7  13
HETATM   13  C   UNL     1      42.775 -17.869   2.864  1.00  0.00    -0.044 A 
HETATM   14  C   UNL     1      43.823 -17.353   2.086  1.00  0.00     0.010 A 
HETATM   15  C   UNL     1      43.571 -16.440   1.053  1.00  0.00     0.030 A 
HETATM   16  C   UNL     1      42.267 -16.037   0.764  1.00  0.00     0.034 A 
HETATM   17  C   UNL     1      41.217 -16.563   1.523  1.00  0.00     0.030 A 
HETATM   18  C   UNL     1      41.465 -17.471   2.556  1.00  0.00     0.010 A 
BRANCH  16  19
HETATM   19  N   UNL     1      41.926 -15.124  -0.255  1.00  0.00    -0.328 N 
HETATM   20  C   UNL     1      41.767 -13.755  -0.145  1.00  0.00     0.218 C 
HETATM   21  C   UNL     1      41.416 -13.118  -1.466  1.00  0.00     0.117 C 
HETATM   22  O   UNL     1      41.904 -13.074   0.864  1.00  0.00    -0.274 OA
HETATM   23  H   UNL     1      41.783 -15.525  -1.173  1.00  0.00     0.169 HD
ENDBRANCH  16  19
ENDBRANCH   7  13
BRANCH  11  24
HETATM   24  N   UNL     1      45.758 -21.523   3.800  1.00  0.00    -0.282 NA
HETATM   25  H   UNL     1      46.751 -21.447   4.009  1.00  0.00     0.126 HD
HETATM   26  H   UNL     1      45.349 -22.392   4.137  1.00  0.00     0.126 HD
ENDBRANCH  11  24
BRANCH   1  27
HETATM   27  C   UNL     1      42.334 -16.005   5.763  1.00  0.00    -0.007 A 
HETATM   28  C   UNL     1      42.558 -14.764   5.153  1.00  0.00     0.016 A 
HETATM   29  C   UNL     1      41.528 -13.823   5.037  1.00  0.00     0.037 A 
HETATM   30  C   UNL     1      40.255 -14.115   5.523  1.00  0.00     0.068 A 
HETATM   31  C   UNL     1      40.030 -15.346   6.144  1.00  0.00     0.037 A 
HETATM   32  C   UNL     1      41.061 -16.284   6.267  1.00  0.00     0.016 A 
BRANCH  30  33
HETATM   33  O   UNL     1      39.160 -13.300   5.447  1.00  0.00    -0.351 OA
BRANCH  33  34
HETATM   34  C   UNL     1      39.403 -11.893   5.403  1.00  0.00     0.175 C 
BRANCH  34  35
HETATM   35  C   UNL     1      38.611 -11.313   4.235  1.00  0.00     0.022 C 
HETATM   36  C   UNL     1      39.272 -11.617   2.902  1.00  0.00     0.007 C 
ENDBRANCH  34  35
ENDBRANCH  33  34
ENDBRANCH  30  33
ENDBRANCH   1  27
TORSDOF 7
ENDMDL
MODEL 6
REMARK VINA RESULT:      -7.0      2.107      5.797
REMARK  7 active torsions:
REMARK  status: ('A' for Active; 'I' for Inactive)
REMARK    1  A    between atoms: C_2  and  C_3 
REMARK    2  A    between atoms: C_3  and  O_4 
REMARK    3  A    between atoms: O_4  and  C_5 
REMARK    4  A    between atoms: C_8  and  C_9 
REMARK    5  A    between atoms: C_15  and  C_16 
REMARK    6  A    between atoms: C_19  and  N_20 
REMARK       I    between atoms: N_20  and  C_21 
REMARK    7  A    between atoms: C_29  and  N_30 
ROOT
HETATM    1  C   UNL     1      41.079 -15.112  -0.629  1.00  0.00     0.072 A 
HETATM    2  N   UNL     1      41.722 -15.130  -1.850  1.00  0.00    -0.274 N 
HETATM    3  H   UNL     1      42.531 -15.682  -2.113  1.00  0.00     0.189 HD
HETATM    4  N   UNL     1      41.185 -14.306  -2.771  1.00  0.00    -0.148 NA
HETATM    5  C   UNL     1      40.169 -13.768  -2.109  1.00  0.00     0.199 A 
HETATM    6  C   UNL     1      40.034 -14.215  -0.792  1.00  0.00     0.040 A 
HETATM    7  C   UNL     1      38.939 -13.691   0.070  1.00  0.00     0.106 A 
HETATM    8  C   UNL     1      38.089 -12.669  -0.676  1.00  0.00     0.081 A 
HETATM    9  C   UNL     1      36.974 -12.130   0.029  1.00  0.00     0.100 C 
HETATM   10  N   UNL     1      36.065 -11.696   0.608  1.00  0.00    -0.191 NA
HETATM   11  C   UNL     1      38.328 -12.312  -1.965  1.00  0.00     0.140 A 
HETATM   12  O   UNL     1      39.384 -12.856  -2.708  1.00  0.00    -0.277 OA
ENDROOT
BRANCH   7  13
HETATM   13  C   UNL     1      39.589 -13.129   1.328  1.00  0.00    -0.044 A 
HETATM   14  C   UNL     1      40.429 -12.005   1.312  1.00  0.00     0.010 A 
HETATM   15  C   UNL     1      41.000 -11.514   2.494  1.00  0.00     0.030 A 
HETATM   16  C   UNL     1      40.731 -12.125   3.719  1.00  0.00     0.034 A 
HETATM   17  C   UNL     1      39.879 -13.233   3.745  1.00  0.00     0.030 A 
HETATM   18  C   UNL     1      39.311 -13.727   2.567  1.00  0.00     0.010 A 
BRANCH  16  19
HETATM   19  N   UNL     1      41.263 -11.698   4.953  1.00  0.00    -0.328 N 
HETATM   20  C   UNL     1      40.747 -10.743   5.809  1.00  0.00     0.218 C 
HETATM   21  C   UNL     1      41.596 -10.573   7.045  1.00  0.00     0.117 C 
HETATM   22  O   UNL     1      39.719 -10.093   5.660  1.00  0.00    -0.274 OA
HETATM   23  H   UNL     1      42.124 -12.146   5.239  1.00  0.00     0.169 HD
ENDBRANCH  16  19
ENDBRANCH   7  13
BRANCH  11  24
HETATM   24  N   UNL     1      37.586 -11.402  -2.688  1.00  0.00    -0.282 NA
HETATM   25  H   UNL     1      38.094 -10.586  -3.022  1.00  0.00     0.126 HD
HETATM   26  H   UNL     1      37.042 -11.855  -3.419  1.00  0.00     0.126 HD
ENDBRANCH  11  24
BRANCH   1  27
HETATM   27  C   UNL     1      41.544 -15.884   0.517  1.00  0.00    -0.007 A 
HETATM   28  C   UNL     1      42.438 -15.317   1.434  1.00  0.00     0.016 A 
HETATM   29  C   UNL     1      42.858 -16.030   2.564  1.00  0.00     0.037 A 
HETATM   30  C   UNL     1      42.382 -17.319   2.795  1.00  0.00     0.068 A 
HETATM   31  C   UNL     1      41.501 -17.894   1.877  1.00  0.00     0.037 A 
HETATM   32  C   UNL     1      41.086 -17.185   0.744  1.00  0.00     0.016 A 
BRANCH  30  33
HETATM   33  O   UNL     1      42.689 -18.107   3.869  1.00  0.00    -0.351 OA
BRANCH  33  34
HETATM   34  C   UNL     1      44.075 -18.309   4.148  1.00  0.00     0.175 C 
BRANCH  34  35
HETATM   35  C   UNL     1      44.354 -19.808   4.102  1.00  0.00     0.022 C 
HETATM   36  C   UNL     1      44.464 -20.316   2.676  1.00  0.00     0.007 C 
ENDBRANCH  34  35
ENDBRANCH  33  34
ENDBRANCH  30  33
ENDBRANCH   1  27
TORSDOF 7
ENDMDL
MODEL 7
REMARK VINA RESULT:      -7.0      2.590      6.540
REMARK  7 active torsions:
REMARK  status: ('A' for Active; 'I' for Inactive)
REMARK    1  A    between atoms: C_2  and  C_3 
REMARK    2  A    between atoms: C_3  and  O_4 
REMARK    3  A    between atoms: O_4  and  C_5 
REMARK    4  A    between atoms: C_8  and  C_9 
REMARK    5  A    between atoms: C_15  and  C_16 
REMARK    6  A    between atoms: C_19  and  N_20 
REMARK       I    between atoms: N_20  and  C_21 
REMARK    7  A    between atoms: C_29  and  N_30 
ROOT
HETATM    1  C   UNL     1      41.662 -16.678   3.734  1.00  0.00     0.072 A 
HETATM    2  N   UNL     1      41.253 -17.984   3.904  1.00  0.00    -0.274 N 
HETATM    3  H   UNL     1      40.743 -18.561   3.244  1.00  0.00     0.189 HD
HETATM    4  N   UNL     1      41.586 -18.519   5.096  1.00  0.00    -0.148 NA
HETATM    5  C   UNL     1      42.234 -17.521   5.681  1.00  0.00     0.199 A 
HETATM    6  C   UNL     1      42.328 -16.360   4.909  1.00  0.00     0.040 A 
HETATM    7  C   UNL     1      43.025 -15.157   5.443  1.00  0.00     0.106 A 
HETATM    8  C   UNL     1      43.549 -15.404   6.853  1.00  0.00     0.081 A 
HETATM    9  C   UNL     1      44.283 -14.340   7.456  1.00  0.00     0.100 C 
HETATM   10  N   UNL     1      44.881 -13.471   7.941  1.00  0.00    -0.191 NA
HETATM   11  C   UNL     1      43.388 -16.585   7.504  1.00  0.00     0.140 A 
HETATM   12  O   UNL     1      42.717 -17.671   6.927  1.00  0.00    -0.277 OA
ENDROOT
BRANCH   7  13
HETATM   13  C   UNL     1      42.042 -13.996   5.362  1.00  0.00    -0.044 A 
HETATM   14  C   UNL     1      40.816 -13.989   6.046  1.00  0.00     0.010 A 
HETATM   15  C   UNL     1      39.944 -12.896   5.951  1.00  0.00     0.030 A 
HETATM   16  C   UNL     1      40.284 -11.781   5.185  1.00  0.00     0.034 A 
HETATM   17  C   UNL     1      41.512 -11.773   4.518  1.00  0.00     0.030 A 
HETATM   18  C   UNL     1      42.383 -12.863   4.607  1.00  0.00     0.010 A 
BRANCH  16  19
HETATM   19  N   UNL     1      39.467 -10.642   5.036  1.00  0.00    -0.328 N 
HETATM   20  C   UNL     1      38.501 -10.416   4.072  1.00  0.00     0.218 C 
HETATM   21  C   UNL     1      37.823  -9.080   4.253  1.00  0.00     0.117 C 
HETATM   22  O   UNL     1      38.166 -11.172   3.169  1.00  0.00    -0.274 OA
HETATM   23  H   UNL     1      39.608  -9.908   5.718  1.00  0.00     0.169 HD
ENDBRANCH  16  19
ENDBRANCH   7  13
BRANCH  11  24
HETATM   24  N   UNL     1      43.850 -16.863   8.773  1.00  0.00    -0.282 NA
HETATM   25  H   UNL     1      43.145 -16.865   9.507  1.00  0.00     0.126 HD
HETATM   26  H   UNL     1      44.437 -17.694   8.787  1.00  0.00     0.126 HD
ENDBRANCH  11  24
BRANCH   1  27
HETATM   27  C   UNL     1      41.345 -15.902   2.541  1.00  0.00    -0.007 A 
HETATM   28  C   UNL     1      42.212 -15.915   1.441  1.00  0.00     0.016 A 
HETATM   29  C   UNL     1      41.899 -15.212   0.271  1.00  0.00     0.037 A 
HETATM   30  C   UNL     1      40.709 -14.491   0.184  1.00  0.00     0.068 A 
HETATM   31  C   UNL     1      39.849 -14.464   1.284  1.00  0.00     0.037 A 
HETATM   32  C   UNL     1      40.163 -15.161   2.456  1.00  0.00     0.016 A 
BRANCH  30  33
HETATM   33  O   UNL     1      40.274 -13.789  -0.905  1.00  0.00    -0.351 OA
BRANCH  33  34
HETATM   34  C   UNL     1      38.860 -13.676  -1.079  1.00  0.00     0.175 C 
BRANCH  34  35
HETATM   35  C   UNL     1      38.512 -14.203  -2.468  1.00  0.00     0.022 C 
HETATM   36  C   UNL     1      39.721 -14.211  -3.386  1.00  0.00     0.007 C 
ENDBRANCH  34  35
ENDBRANCH  33  34
ENDBRANCH  30  33
ENDBRANCH   1  27
TORSDOF 7
ENDMDL
MODEL 8
REMARK VINA RESULT:      -6.8      2.492      5.724
REMARK  7 active torsions:
REMARK  status: ('A' for Active; 'I' for Inactive)
REMARK    1  A    between atoms: C_2  and  C_3 
REMARK    2  A    between atoms: C_3  and  O_4 
REMARK    3  A    between atoms: O_4  and  C_5 
REMARK    4  A    between atoms: C_8  and  C_9 
REMARK    5  A    between atoms: C_15  and  C_16 
REMARK    6  A    between atoms: C_19  and  N_20 
REMARK       I    between atoms: N_20  and  C_21 
REMARK    7  A    between atoms: C_29  and  N_30 
ROOT
HETATM    1  C   UNL     1      40.723 -11.632   2.808  1.00  0.00     0.072 A 
HETATM    2  N   UNL     1      41.026 -10.430   2.201  1.00  0.00    -0.274 N 
HETATM    3  H   UNL     1      41.290 -10.277   1.234  1.00  0.00     0.189 HD
HETATM    4  N   UNL     1      40.952  -9.362   3.020  1.00  0.00    -0.148 NA
HETATM    5  C   UNL     1      40.580  -9.912   4.167  1.00  0.00     0.199 A 
HETATM    6  C   UNL     1      40.413 -11.299   4.118  1.00  0.00     0.040 A 
HETATM    7  C   UNL     1      40.001 -12.050   5.336  1.00  0.00     0.106 A 
HETATM    8  C   UNL     1      39.829 -11.115   6.529  1.00  0.00     0.081 A 
HETATM    9  C   UNL     1      39.385 -11.710   7.746  1.00  0.00     0.100 C 
HETATM   10  N   UNL     1      39.021 -12.200   8.734  1.00  0.00    -0.191 NA
HETATM   11  C   UNL     1      40.027  -9.773   6.449  1.00  0.00     0.140 A 
HETATM   12  O   UNL     1      40.415  -9.145   5.259  1.00  0.00    -0.277 OA
ENDROOT
BRANCH   7  13
HETATM   13  C   UNL     1      41.046 -13.134   5.569  1.00  0.00    -0.044 A 
HETATM   14  C   UNL     1      42.386 -12.846   5.871  1.00  0.00     0.010 A 
HETATM   15  C   UNL     1      43.313 -13.875   6.087  1.00  0.00     0.030 A 
HETATM   16  C   UNL     1      42.919 -15.211   6.022  1.00  0.00     0.034 A 
HETATM   17  C   UNL     1      41.581 -15.504   5.742  1.00  0.00     0.030 A 
HETATM   18  C   UNL     1      40.655 -14.481   5.523  1.00  0.00     0.010 A 
BRANCH  16  19
HETATM   19  N   UNL     1      43.785 -16.304   6.225  1.00  0.00    -0.328 N 
HETATM   20  C   UNL     1      43.858 -17.131   7.332  1.00  0.00     0.218 C 
HETATM   21  C   UNL     1      44.905 -18.204   7.169  1.00  0.00     0.117 C 
HETATM   22  O   UNL     1      43.170 -17.073   8.344  1.00  0.00    -0.274 OA
HETATM   23  H   UNL     1      44.428 -16.502   5.469  1.00  0.00     0.169 HD
ENDBRANCH  16  19
ENDBRANCH   7  13
BRANCH  11  24
HETATM   24  N   UNL     1      39.875  -8.884   7.492  1.00  0.00    -0.282 NA
HETATM   25  H   UNL     1      39.623  -9.296   8.388  1.00  0.00     0.126 HD
HETATM   26  H   UNL     1      40.664  -8.244   7.559  1.00  0.00     0.126 HD
ENDBRANCH  11  24
BRANCH   1  27
HETATM   27  C   UNL     1      40.806 -12.909   2.110  1.00  0.00    -0.007 A 
HETATM   28  C   UNL     1      41.993 -13.288   1.471  1.00  0.00     0.016 A 
HETATM   29  C   UNL     1      42.103 -14.531   0.836  1.00  0.00     0.037 A 
HETATM   30  C   UNL     1      41.027 -15.416   0.838  1.00  0.00     0.068 A 
HETATM   31  C   UNL     1      39.836 -15.037   1.462  1.00  0.00     0.037 A 
HETATM   32  C   UNL     1      39.723 -13.793   2.092  1.00  0.00     0.016 A 
BRANCH  30  33
HETATM   33  O   UNL     1      41.013 -16.665   0.282  1.00  0.00    -0.351 OA
BRANCH  33  34
HETATM   34  C   UNL     1      40.984 -17.774   1.182  1.00  0.00     0.175 C 
BRANCH  34  35
HETATM   35  C   UNL     1      42.413 -18.049   1.640  1.00  0.00     0.022 C 
HETATM   36  C   UNL     1      42.546 -17.962   3.150  1.00  0.00     0.007 C 
ENDBRANCH  34  35
ENDBRANCH  33  34
ENDBRANCH  30  33
ENDBRANCH   1  27
TORSDOF 7
ENDMDL
MODEL 9
REMARK VINA RESULT:      -6.8      3.037      6.590
REMARK  7 active torsions:
REMARK  status: ('A' for Active; 'I' for Inactive)
REMARK    1  A    between atoms: C_2  and  C_3 
REMARK    2  A    between atoms: C_3  and  O_4 
REMARK    3  A    between atoms: O_4  and  C_5 
REMARK    4  A    between atoms: C_8  and  C_9 
REMARK    5  A    between atoms: C_15  and  C_16 
REMARK    6  A    between atoms: C_19  and  N_20 
REMARK       I    between atoms: N_20  and  C_21 
REMARK    7  A    between atoms: C_29  and  N_30 
ROOT
HETATM    1  C   UNL     1      41.459 -15.615   0.610  1.00  0.00     0.072 A 
HETATM    2  N   UNL     1      41.774 -16.958   0.658  1.00  0.00    -0.274 N 
HETATM    3  H   UNL     1      42.104 -17.541  -0.104  1.00  0.00     0.189 HD
HETATM    4  N   UNL     1      41.612 -17.523   1.870  1.00  0.00    -0.148 NA
HETATM    5  C   UNL     1      41.195 -16.499   2.604  1.00  0.00     0.199 A 
HETATM    6  C   UNL     1      41.081 -15.294   1.904  1.00  0.00     0.040 A 
HETATM    7  C   UNL     1      40.619 -14.062   2.602  1.00  0.00     0.106 A 
HETATM    8  C   UNL     1      40.311 -14.341   4.069  1.00  0.00     0.081 A 
HETATM    9  C   UNL     1      39.907 -13.225   4.859  1.00  0.00     0.100 C 
HETATM   10  N   UNL     1      39.580 -12.312   5.497  1.00  0.00    -0.191 NA
HETATM   11  C   UNL     1      40.458 -15.568   4.634  1.00  0.00     0.140 A 
HETATM   12  O   UNL     1      40.901 -16.679   3.903  1.00  0.00    -0.277 OA
ENDROOT
BRANCH   7  13
HETATM   13  C   UNL     1      39.419 -13.531   1.827  1.00  0.00    -0.044 A 
HETATM   14  C   UNL     1      38.353 -14.350   1.422  1.00  0.00     0.010 A 
HETATM   15  C   UNL     1      37.264 -13.819   0.718  1.00  0.00     0.030 A 
HETATM   16  C   UNL     1      37.209 -12.458   0.417  1.00  0.00     0.034 A 
HETATM   17  C   UNL     1      38.258 -11.634   0.835  1.00  0.00     0.030 A 
HETATM   18  C   UNL     1      39.347 -12.161   1.534  1.00  0.00     0.010 A 
BRANCH  16  19
HETATM   19  N   UNL     1      36.152 -11.844  -0.286  1.00  0.00    -0.328 N 
HETATM   20  C   UNL     1      35.157 -11.031   0.225  1.00  0.00     0.218 C 
HETATM   21  C   UNL     1      34.213 -10.549  -0.848  1.00  0.00     0.117 C 
HETATM   22  O   UNL     1      35.012 -10.684   1.391  1.00  0.00    -0.274 OA
HETATM   23  H   UNL     1      36.126 -12.022  -1.282  1.00  0.00     0.169 HD
ENDBRANCH  16  19
ENDBRANCH   7  13
BRANCH  11  24
HETATM   24  N   UNL     1      40.204 -15.871   5.954  1.00  0.00    -0.282 NA
HETATM   25  H   UNL     1      41.008 -16.174   6.499  1.00  0.00     0.126 HD
HETATM   26  H   UNL     1      39.670 -15.136   6.413  1.00  0.00     0.126 HD
ENDBRANCH  11  24
BRANCH   1  27
HETATM   27  C   UNL     1      41.508 -14.838  -0.623  1.00  0.00    -0.007 A 
HETATM   28  C   UNL     1      40.981 -15.364  -1.810  1.00  0.00     0.016 A 
HETATM   29  C   UNL     1      40.979 -14.612  -2.991  1.00  0.00     0.037 A 
HETATM   30  C   UNL     1      41.500 -13.319  -2.999  1.00  0.00     0.068 A 
HETATM   31  C   UNL     1      42.039 -12.797  -1.822  1.00  0.00     0.037 A 
HETATM   32  C   UNL     1      42.047 -13.549  -0.642  1.00  0.00     0.016 A 
BRANCH  30  33
HETATM   33  O   UNL     1      41.532 -12.474  -4.072  1.00  0.00    -0.351 OA
BRANCH  33  34
HETATM   34  C   UNL     1      40.457 -11.542  -4.195  1.00  0.00     0.175 C 
BRANCH  34  35
HETATM   35  C   UNL     1      41.048 -10.182  -4.552  1.00  0.00     0.022 C 
HETATM   36  C   UNL     1      42.528 -10.279  -4.876  1.00  0.00     0.007 C 
ENDBRANCH  34  35
ENDBRANCH  33  34
ENDBRANCH  30  33
ENDBRANCH   1  27
TORSDOF 7
ENDMDL
MODEL 10
REMARK VINA RESULT:      -6.5      1.749      2.169
REMARK  7 active torsions:
REMARK  status: ('A' for Active; 'I' for Inactive)
REMARK    1  A    between atoms: C_2  and  C_3 
REMARK    2  A    between atoms: C_3  and  O_4 
REMARK    3  A    between atoms: O_4  and  C_5 
REMARK    4  A    between atoms: C_8  and  C_9 
REMARK    5  A    between atoms: C_15  and  C_16 
REMARK    6  A    between atoms: C_19  and  N_20 
REMARK       I    between atoms: N_20  and  C_21 
REMARK    7  A    between atoms: C_29  and  N_30 
ROOT
HETATM    1  C   UNL     1      40.276 -13.253   5.509  1.00  0.00     0.072 A 
HETATM    2  N   UNL     1      39.605 -13.551   6.678  1.00  0.00    -0.274 N 
HETATM    3  H   UNL     1      39.450 -14.468   7.083  1.00  0.00     0.189 HD
HETATM    4  N   UNL     1      39.114 -12.475   7.325  1.00  0.00    -0.148 NA
HETATM    5  C   UNL     1      39.501 -11.476   6.543  1.00  0.00     0.199 A 
HETATM    6  C   UNL     1      40.223 -11.871   5.413  1.00  0.00     0.040 A 
HETATM    7  C   UNL     1      40.716 -10.853   4.444  1.00  0.00     0.106 A 
HETATM    8  C   UNL     1      40.313  -9.445   4.868  1.00  0.00     0.081 A 
HETATM    9  C   UNL     1      40.772  -8.376   4.046  1.00  0.00     0.100 C 
HETATM   10  N   UNL     1      41.150  -7.508   3.373  1.00  0.00    -0.191 NA
HETATM   11  C   UNL     1      39.600  -9.191   5.996  1.00  0.00     0.140 A 
HETATM   12  O   UNL     1      39.173 -10.211   6.857  1.00  0.00    -0.277 OA
ENDROOT
BRANCH   7  13
HETATM   13  C   UNL     1      40.181 -11.244   3.072  1.00  0.00    -0.044 A 
HETATM   14  C   UNL     1      41.019 -11.526   1.981  1.00  0.00     0.010 A 
HETATM   15  C   UNL     1      40.485 -11.891   0.738  1.00  0.00     0.030 A 
HETATM   16  C   UNL     1      39.106 -11.997   0.561  1.00  0.00     0.034 A 
HETATM   17  C   UNL     1      38.267 -11.738   1.649  1.00  0.00     0.030 A 
HETATM   18  C   UNL     1      38.796 -11.370   2.889  1.00  0.00     0.010 A 
BRANCH  16  19
HETATM   19  N   UNL     1      38.488 -12.357  -0.653  1.00  0.00    -0.328 N 
HETATM   20  C   UNL     1      38.732 -13.477  -1.427  1.00  0.00     0.218 C 
HETATM   21  C   UNL     1      37.855 -13.521  -2.653  1.00  0.00     0.117 C 
HETATM   22  O   UNL     1      39.530 -14.377  -1.194  1.00  0.00    -0.274 OA
HETATM   23  H   UNL     1      37.782 -11.716  -0.994  1.00  0.00     0.169 HD
ENDBRANCH  16  19
ENDBRANCH   7  13
BRANCH  11  24
HETATM   24  N   UNL     1      39.219  -7.939   6.430  1.00  0.00    -0.282 NA
HETATM   25  H   UNL     1      39.914  -7.430   6.971  1.00  0.00     0.126 HD
HETATM   26  H   UNL     1      38.821  -7.384   5.675  1.00  0.00     0.126 HD
ENDBRANCH  11  24
BRANCH   1  27
HETATM   27  C   UNL     1      40.825 -14.281   4.633  1.00  0.00    -0.007 A 
HETATM   28  C   UNL     1      40.048 -14.816   3.598  1.00  0.00     0.016 A 
HETATM   29  C   UNL     1      40.576 -15.770   2.720  1.00  0.00     0.037 A 
HETATM   30  C   UNL     1      41.895 -16.197   2.862  1.00  0.00     0.068 A 
HETATM   31  C   UNL     1      42.670 -15.677   3.901  1.00  0.00     0.037 A 
HETATM   32  C   UNL     1      42.141 -14.728   4.783  1.00  0.00     0.016 A 
BRANCH  30  33
HETATM   33  O   UNL     1      42.538 -17.097   2.059  1.00  0.00    -0.351 OA
BRANCH  33  34
HETATM   34  C   UNL     1      43.890 -17.414   2.395  1.00  0.00     0.175 C 
BRANCH  34  35
HETATM   35  C   UNL     1      44.203 -18.799   1.837  1.00  0.00     0.022 C 
HETATM   36  C   UNL     1      43.085 -19.786   2.121  1.00  0.00     0.007 C 
ENDBRANCH  34  35
ENDBRANCH  33  34
ENDBRANCH  30  33
ENDBRANCH   1  27
TORSDOF 7
ENDMDL
