MODEL 1
REMARK VINA RESULT:      -8.6      0.000      0.000
REMARK  8 active torsions:
REMARK  status: ('A' for Active; 'I' for Inactive)
REMARK    1  A    between atoms: O_2  and  C_3 
REMARK    2  A    between atoms: C_4  and  O_5 
REMARK    3  A    between atoms: C_8  and  C_9 
REMARK    4  A    between atoms: C_9  and  C_10 
REMARK    5  A    between atoms: C_10  and  N_11 
REMARK       I    between atoms: N_11  and  C_12 
REMARK    6  A    between atoms: C_12  and  C_13 
REMARK    7  A    between atoms: C_13  and  S_14 
REMARK    8  A    between atoms: S_14  and  C_15 
ROOT
HETATM    1  N   UNL     1      44.476 -13.763   8.119  1.00  0.00    -0.360 N 
HETATM    2  C   UNL     1      44.462 -14.342   6.871  1.00  0.00     0.227 C 
HETATM    3  O   UNL     1      44.632 -13.701   5.836  1.00  0.00    -0.273 OA
HETATM    4  H   UNL     1      44.165 -14.321   8.916  1.00  0.00     0.162 HD
ENDROOT
BRANCH   2   5
HETATM    5  C   UNL     1      44.285 -15.850   6.869  1.00  0.00     0.185 C 
BRANCH   5   6
HETATM    6  S   UNL     1      42.566 -16.332   6.548  1.00  0.00    -0.080 SA
BRANCH   6   7
HETATM    7  C   UNL     1      42.524 -16.337   4.816  1.00  0.00     0.197 A 
HETATM    8  N   UNL     1      43.069 -17.283   3.962  1.00  0.00    -0.271 N 
HETATM    9  C   UNL     1      42.893 -16.715   2.700  1.00  0.00     0.159 A 
HETATM   10  C   UNL     1      43.676 -18.559   4.146  1.00  0.00     0.053 A 
HETATM   11  C   UNL     1      43.394 -17.374   1.554  1.00  0.00     0.054 A 
HETATM   12  N   UNL     1      42.239 -15.578   2.799  1.00  0.00    -0.129 NA
HETATM   13  C   UNL     1      44.007 -18.559   1.667  1.00  0.00     0.017 A 
HETATM   14  C   UNL     1      44.152 -19.198   2.980  1.00  0.00    -0.009 A 
HETATM   15  C   UNL     1      44.757 -20.458   3.069  1.00  0.00     0.014 A 
HETATM   16  C   UNL     1      44.880 -21.088   4.306  1.00  0.00     0.001 A 
HETATM   17  C   UNL     1      44.397 -20.464   5.454  1.00  0.00     0.002 A 
HETATM   18  C   UNL     1      43.795 -19.204   5.379  1.00  0.00     0.031 A 
HETATM   19  N   UNL     1      42.001 -15.349   4.122  1.00  0.00    -0.122 NA
ENDBRANCH   6   7
ENDBRANCH   5   6
ENDBRANCH   2   5
BRANCH   1  20
HETATM   20  C   UNL     1      44.748 -12.359   8.331  1.00  0.00     0.127 C 
BRANCH  20  21
HETATM   21  C   UNL     1      45.123 -12.019   9.776  1.00  0.00     0.058 C 
BRANCH  21  22
HETATM   22  C   UNL     1      44.116 -11.061  10.370  1.00  0.00    -0.054 A 
HETATM   23  C   UNL     1      42.950 -10.727   9.659  1.00  0.00     0.046 A 
HETATM   24  C   UNL     1      41.972  -9.907  10.233  1.00  0.00     0.102 A 
HETATM   25  C   UNL     1      42.160  -9.438  11.542  1.00  0.00     0.101 A 
HETATM   26  C   UNL     1      43.334  -9.734  12.241  1.00  0.00     0.040 A 
HETATM   27  C   UNL     1      44.306 -10.548  11.659  1.00  0.00     0.010 A 
BRANCH  24  28
HETATM   28  O   UNL     1      40.798  -9.547   9.623  1.00  0.00    -0.353 OA
HETATM   29  C   UNL     1      39.821 -10.562   9.446  1.00  0.00     0.210 C 
ENDBRANCH  24  28
BRANCH  25  30
HETATM   30  O   UNL     1      41.193  -8.634  12.094  1.00  0.00    -0.353 OA
HETATM   31  C   UNL     1      40.528  -9.261  13.189  1.00  0.00     0.210 C 
ENDBRANCH  25  30
ENDBRANCH  21  22
ENDBRANCH  20  21
ENDBRANCH   1  20
TORSDOF 8
ENDMDL
MODEL 2
REMARK VINA RESULT:      -8.5      0.857      1.713
REMARK  8 active torsions:
REMARK  status: ('A' for Active; 'I' for Inactive)
REMARK    1  A    between atoms: O_2  and  C_3 
REMARK    2  A    between atoms: C_4  and  O_5 
REMARK    3  A    between atoms: C_8  and  C_9 
REMARK    4  A    between atoms: C_9  and  C_10 
REMARK    5  A    between atoms: C_10  and  N_11 
REMARK       I    between atoms: N_11  and  C_12 
REMARK    6  A    between atoms: C_12  and  C_13 
REMARK    7  A    between atoms: C_13  and  S_14 
REMARK    8  A    between atoms: S_14  and  C_15 
ROOT
HETATM    1  N   UNL     1      44.355 -13.769   8.160  1.00  0.00    -0.360 N 
HETATM    2  C   UNL     1      44.465 -14.295   6.893  1.00  0.00     0.227 C 
HETATM    3  O   UNL     1      44.731 -13.612   5.906  1.00  0.00    -0.273 OA
HETATM    4  H   UNL     1      43.971 -14.360   8.899  1.00  0.00     0.162 HD
ENDROOT
BRANCH   2   5
HETATM    5  C   UNL     1      44.298 -15.803   6.812  1.00  0.00     0.185 C 
BRANCH   5   6
HETATM    6  S   UNL     1      42.577 -16.279   6.498  1.00  0.00    -0.080 SA
BRANCH   6   7
HETATM    7  C   UNL     1      42.533 -16.307   4.766  1.00  0.00     0.197 A 
HETATM    8  N   UNL     1      43.076 -17.263   3.925  1.00  0.00    -0.271 N 
HETATM    9  C   UNL     1      42.899 -16.711   2.655  1.00  0.00     0.159 A 
HETATM   10  C   UNL     1      43.683 -18.537   4.124  1.00  0.00     0.053 A 
HETATM   11  C   UNL     1      43.398 -17.385   1.517  1.00  0.00     0.054 A 
HETATM   12  N   UNL     1      42.245 -15.573   2.741  1.00  0.00    -0.129 NA
HETATM   13  C   UNL     1      44.011 -18.568   1.644  1.00  0.00     0.017 A 
HETATM   14  C   UNL     1      44.158 -19.191   2.965  1.00  0.00    -0.009 A 
HETATM   15  C   UNL     1      44.762 -20.450   3.070  1.00  0.00     0.014 A 
HETATM   16  C   UNL     1      44.887 -21.064   4.314  1.00  0.00     0.001 A 
HETATM   17  C   UNL     1      44.405 -20.426   5.454  1.00  0.00     0.002 A 
HETATM   18  C   UNL     1      43.803 -19.167   5.365  1.00  0.00     0.031 A 
HETATM   19  N   UNL     1      42.009 -15.327   4.061  1.00  0.00    -0.122 NA
ENDBRANCH   6   7
ENDBRANCH   5   6
ENDBRANCH   2   5
BRANCH   1  20
HETATM   20  C   UNL     1      44.597 -12.374   8.455  1.00  0.00     0.127 C 
BRANCH  20  21
HETATM   21  C   UNL     1      44.932 -12.109   9.924  1.00  0.00     0.058 C 
BRANCH  21  22
HETATM   22  C   UNL     1      43.962 -11.110  10.513  1.00  0.00    -0.054 A 
HETATM   23  C   UNL     1      44.106 -10.680  11.844  1.00  0.00     0.046 A 
HETATM   24  C   UNL     1      43.266  -9.695  12.373  1.00  0.00     0.102 A 
HETATM   25  C   UNL     1      42.287  -9.121  11.547  1.00  0.00     0.101 A 
HETATM   26  C   UNL     1      42.112  -9.569  10.235  1.00  0.00     0.040 A 
HETATM   27  C   UNL     1      42.951 -10.556   9.718  1.00  0.00     0.010 A 
BRANCH  24  28
HETATM   28  O   UNL     1      43.347  -9.202  13.650  1.00  0.00    -0.353 OA
HETATM   29  C   UNL     1      42.533  -9.819  14.637  1.00  0.00     0.210 C 
ENDBRANCH  24  28
BRANCH  25  30
HETATM   30  O   UNL     1      41.468  -8.154  12.079  1.00  0.00    -0.353 OA
HETATM   31  C   UNL     1      40.403  -7.803  11.198  1.00  0.00     0.210 C 
ENDBRANCH  25  30
ENDBRANCH  21  22
ENDBRANCH  20  21
ENDBRANCH   1  20
TORSDOF 8
ENDMDL
MODEL 3
REMARK VINA RESULT:      -8.5      5.062      9.058
REMARK  8 active torsions:
REMARK  status: ('A' for Active; 'I' for Inactive)
REMARK    1  A    between atoms: O_2  and  C_3 
REMARK    2  A    between atoms: C_4  and  O_5 
REMARK    3  A    between atoms: C_8  and  C_9 
REMARK    4  A    between atoms: C_9  and  C_10 
REMARK    5  A    between atoms: C_10  and  N_11 
REMARK       I    between atoms: N_11  and  C_12 
REMARK    6  A    between atoms: C_12  and  C_13 
REMARK    7  A    between atoms: C_13  and  S_14 
REMARK    8  A    between atoms: S_14  and  C_15 
ROOT
HETATM    1  N   UNL     1      40.563 -16.312   3.314  1.00  0.00    -0.360 N 
HETATM    2  C   UNL     1      40.760 -15.166   4.050  1.00  0.00     0.227 C 
HETATM    3  O   UNL     1      40.602 -14.038   3.587  1.00  0.00    -0.273 OA
HETATM    4  H   UNL     1      40.871 -17.201   3.710  1.00  0.00     0.162 HD
ENDROOT
BRANCH   2   5
HETATM    5  C   UNL     1      41.127 -15.398   5.506  1.00  0.00     0.185 C 
BRANCH   5   6
HETATM    6  S   UNL     1      42.887 -15.098   5.819  1.00  0.00    -0.080 SA
BRANCH   6   7
HETATM    7  C   UNL     1      43.339 -16.537   6.672  1.00  0.00     0.197 A 
HETATM    8  N   UNL     1      43.637 -17.778   6.132  1.00  0.00    -0.271 N 
HETATM    9  C   UNL     1      43.763 -18.594   7.257  1.00  0.00     0.159 A 
HETATM   10  C   UNL     1      43.819 -18.271   4.808  1.00  0.00     0.053 A 
HETATM   11  C   UNL     1      44.007 -19.978   7.101  1.00  0.00     0.054 A 
HETATM   12  N   UNL     1      43.628 -17.882   8.355  1.00  0.00    -0.129 NA
HETATM   13  C   UNL     1      44.151 -20.508   5.879  1.00  0.00     0.017 A 
HETATM   14  C   UNL     1      44.076 -19.656   4.687  1.00  0.00    -0.009 A 
HETATM   15  C   UNL     1      44.273 -20.222   3.421  1.00  0.00     0.014 A 
HETATM   16  C   UNL     1      44.229 -19.422   2.282  1.00  0.00     0.001 A 
HETATM   17  C   UNL     1      43.992 -18.055   2.403  1.00  0.00     0.002 A 
HETATM   18  C   UNL     1      43.788 -17.477   3.660  1.00  0.00     0.031 A 
HETATM   19  N   UNL     1      43.373 -16.595   7.986  1.00  0.00    -0.122 NA
ENDBRANCH   6   7
ENDBRANCH   5   6
ENDBRANCH   2   5
BRANCH   1  20
HETATM   20  C   UNL     1      40.097 -16.296   1.946  1.00  0.00     0.127 C 
BRANCH  20  21
HETATM   21  C   UNL     1      41.182 -16.649   0.925  1.00  0.00     0.058 C 
BRANCH  21  22
HETATM   22  C   UNL     1      41.250 -15.596  -0.157  1.00  0.00    -0.054 A 
HETATM   23  C   UNL     1      40.892 -15.913  -1.479  1.00  0.00     0.046 A 
HETATM   24  C   UNL     1      40.872 -14.927  -2.471  1.00  0.00     0.102 A 
HETATM   25  C   UNL     1      41.193 -13.606  -2.123  1.00  0.00     0.101 A 
HETATM   26  C   UNL     1      41.588 -13.290  -0.820  1.00  0.00     0.040 A 
HETATM   27  C   UNL     1      41.609 -14.281   0.161  1.00  0.00     0.010 A 
BRANCH  24  28
HETATM   28  O   UNL     1      40.516 -15.141  -3.778  1.00  0.00    -0.353 OA
HETATM   29  C   UNL     1      39.337 -15.895  -4.015  1.00  0.00     0.210 C 
ENDBRANCH  24  28
BRANCH  25  30
HETATM   30  O   UNL     1      41.170 -12.647  -3.107  1.00  0.00    -0.353 OA
HETATM   31  C   UNL     1      42.469 -12.127  -3.387  1.00  0.00     0.210 C 
ENDBRANCH  25  30
ENDBRANCH  21  22
ENDBRANCH  20  21
ENDBRANCH   1  20
TORSDOF 8
ENDMDL
MODEL 4
REMARK VINA RESULT:      -8.5      1.497      2.596
REMARK  8 active torsions:
REMARK  status: ('A' for Active; 'I' for Inactive)
REMARK    1  A    between atoms: O_2  and  C_3 
REMARK    2  A    between atoms: C_4  and  O_5 
REMARK    3  A    between atoms: C_8  and  C_9 
REMARK    4  A    between atoms: C_9  and  C_10 
REMARK    5  A    between atoms: C_10  and  N_11 
REMARK       I    between atoms: N_11  and  C_12 
REMARK    6  A    between atoms: C_12  and  C_13 
REMARK    7  A    between atoms: C_13  and  S_14 
REMARK    8  A    between atoms: S_14  and  C_15 
ROOT
HETATM    1  N   UNL     1      43.871 -12.861   7.780  1.00  0.00    -0.360 N 
HETATM    2  C   UNL     1      44.351 -13.710   6.810  1.00  0.00     0.227 C 
HETATM    3  O   UNL     1      45.405 -14.333   6.929  1.00  0.00    -0.273 OA
HETATM    4  H   UNL     1      43.082 -12.255   7.547  1.00  0.00     0.162 HD
ENDROOT
BRANCH   2   5
HETATM    5  C   UNL     1      43.448 -13.873   5.600  1.00  0.00     0.185 C 
BRANCH   5   6
HETATM    6  S   UNL     1      42.026 -14.941   5.954  1.00  0.00    -0.080 SA
BRANCH   6   7
HETATM    7  C   UNL     1      42.805 -16.433   6.366  1.00  0.00     0.197 A 
HETATM    8  N   UNL     1      43.284 -17.401   5.499  1.00  0.00    -0.271 N 
HETATM    9  C   UNL     1      43.650 -18.443   6.353  1.00  0.00     0.159 A 
HETATM   10  C   UNL     1      43.447 -17.481   4.086  1.00  0.00     0.053 A 
HETATM   11  C   UNL     1      44.134 -19.658   5.816  1.00  0.00     0.054 A 
HETATM   12  N   UNL     1      43.474 -18.088   7.607  1.00  0.00    -0.129 NA
HETATM   13  C   UNL     1      44.275 -19.807   4.493  1.00  0.00     0.017 A 
HETATM   14  C   UNL     1      43.947 -18.703   3.582  1.00  0.00    -0.009 A 
HETATM   15  C   UNL     1      44.144 -18.864   2.205  1.00  0.00     0.014 A 
HETATM   16  C   UNL     1      43.860 -17.817   1.331  1.00  0.00     0.001 A 
HETATM   17  C   UNL     1      43.383 -16.607   1.830  1.00  0.00     0.002 A 
HETATM   18  C   UNL     1      43.176 -16.435   3.202  1.00  0.00     0.031 A 
HETATM   19  N   UNL     1      42.955 -16.827   7.613  1.00  0.00    -0.122 NA
ENDBRANCH   6   7
ENDBRANCH   5   6
ENDBRANCH   2   5
BRANCH   1  20
HETATM   20  C   UNL     1      44.531 -12.667   9.052  1.00  0.00     0.127 C 
BRANCH  20  21
HETATM   21  C   UNL     1      44.677 -11.196   9.448  1.00  0.00     0.058 C 
BRANCH  21  22
HETATM   22  C   UNL     1      43.689 -10.843  10.537  1.00  0.00    -0.054 A 
HETATM   23  C   UNL     1      42.308 -10.968  10.310  1.00  0.00     0.046 A 
HETATM   24  C   UNL     1      41.389 -10.724  11.336  1.00  0.00     0.102 A 
HETATM   25  C   UNL     1      41.867 -10.375  12.609  1.00  0.00     0.101 A 
HETATM   26  C   UNL     1      43.237 -10.212  12.833  1.00  0.00     0.040 A 
HETATM   27  C   UNL     1      44.145 -10.452  11.802  1.00  0.00     0.010 A 
BRANCH  24  28
HETATM   28  O   UNL     1      40.028 -10.840  11.210  1.00  0.00    -0.353 OA
HETATM   29  C   UNL     1      39.363  -9.862  10.424  1.00  0.00     0.210 C 
ENDBRANCH  24  28
BRANCH  25  30
HETATM   30  O   UNL     1      40.954 -10.138  13.608  1.00  0.00    -0.353 OA
HETATM   31  C   UNL     1      40.951  -8.774  14.025  1.00  0.00     0.210 C 
ENDBRANCH  25  30
ENDBRANCH  21  22
ENDBRANCH  20  21
ENDBRANCH   1  20
TORSDOF 8
ENDMDL
MODEL 5
REMARK VINA RESULT:      -8.3      2.297      3.541
REMARK  8 active torsions:
REMARK  status: ('A' for Active; 'I' for Inactive)
REMARK    1  A    between atoms: O_2  and  C_3 
REMARK    2  A    between atoms: C_4  and  O_5 
REMARK    3  A    between atoms: C_8  and  C_9 
REMARK    4  A    between atoms: C_9  and  C_10 
REMARK    5  A    between atoms: C_10  and  N_11 
REMARK       I    between atoms: N_11  and  C_12 
REMARK    6  A    between atoms: C_12  and  C_13 
REMARK    7  A    between atoms: C_13  and  S_14 
REMARK    8  A    between atoms: S_14  and  C_15 
ROOT
HETATM    1  N   UNL     1      40.924 -12.608   6.320  1.00  0.00    -0.360 N 
HETATM    2  C   UNL     1      39.948 -13.185   5.541  1.00  0.00     0.227 C 
HETATM    3  O   UNL     1      39.066 -12.534   4.983  1.00  0.00    -0.273 OA
HETATM    4  H   UNL     1      41.519 -13.218   6.882  1.00  0.00     0.162 HD
ENDROOT
BRANCH   2   5
HETATM    5  C   UNL     1      40.076 -14.688   5.365  1.00  0.00     0.185 C 
BRANCH   5   6
HETATM    6  S   UNL     1      41.352 -15.124   4.152  1.00  0.00    -0.080 SA
BRANCH   6   7
HETATM    7  C   UNL     1      42.628 -15.690   5.178  1.00  0.00     0.197 A 
HETATM    8  N   UNL     1      43.351 -16.866   5.053  1.00  0.00    -0.271 N 
HETATM    9  C   UNL     1      44.116 -16.896   6.220  1.00  0.00     0.159 A 
HETATM   10  C   UNL     1      43.429 -17.887   4.063  1.00  0.00     0.053 A 
HETATM   11  C   UNL     1      44.953 -18.005   6.486  1.00  0.00     0.054 A 
HETATM   12  N   UNL     1      43.918 -15.803   6.924  1.00  0.00    -0.129 NA
HETATM   13  C   UNL     1      45.040 -19.014   5.610  1.00  0.00     0.017 A 
HETATM   14  C   UNL     1      44.284 -18.974   4.352  1.00  0.00    -0.009 A 
HETATM   15  C   UNL     1      44.425 -20.018   3.430  1.00  0.00     0.014 A 
HETATM   16  C   UNL     1      43.733 -19.982   2.222  1.00  0.00     0.001 A 
HETATM   17  C   UNL     1      42.902 -18.903   1.930  1.00  0.00     0.002 A 
HETATM   18  C   UNL     1      42.748 -17.856   2.844  1.00  0.00     0.031 A 
HETATM   19  N   UNL     1      42.995 -15.046   6.266  1.00  0.00    -0.122 NA
ENDBRANCH   6   7
ENDBRANCH   5   6
ENDBRANCH   2   5
BRANCH   1  20
HETATM   20  C   UNL     1      41.037 -11.179   6.508  1.00  0.00     0.127 C 
BRANCH  20  21
HETATM   21  C   UNL     1      40.267 -10.659   7.724  1.00  0.00     0.058 C 
BRANCH  21  22
HETATM   22  C   UNL     1      41.142 -10.696   8.956  1.00  0.00    -0.054 A 
HETATM   23  C   UNL     1      42.535 -10.550   8.842  1.00  0.00     0.046 A 
HETATM   24  C   UNL     1      43.346 -10.500   9.981  1.00  0.00     0.102 A 
HETATM   25  C   UNL     1      42.744 -10.573  11.247  1.00  0.00     0.101 A 
HETATM   26  C   UNL     1      41.364 -10.756  11.369  1.00  0.00     0.040 A 
HETATM   27  C   UNL     1      40.565 -10.811  10.227  1.00  0.00     0.010 A 
BRANCH  24  28
HETATM   28  O   UNL     1      44.708 -10.340   9.965  1.00  0.00    -0.353 OA
HETATM   29  C   UNL     1      45.486 -11.446   9.532  1.00  0.00     0.210 C 
ENDBRANCH  24  28
BRANCH  25  30
HETATM   30  O   UNL     1      43.551 -10.523  12.358  1.00  0.00    -0.353 OA
HETATM   31  C   UNL     1      42.800 -10.469  13.570  1.00  0.00     0.210 C 
ENDBRANCH  25  30
ENDBRANCH  21  22
ENDBRANCH  20  21
ENDBRANCH   1  20
TORSDOF 8
ENDMDL
MODEL 6
REMARK VINA RESULT:      -8.2      6.179      9.591
REMARK  8 active torsions:
REMARK  status: ('A' for Active; 'I' for Inactive)
REMARK    1  A    between atoms: O_2  and  C_3 
REMARK    2  A    between atoms: C_4  and  O_5 
REMARK    3  A    between atoms: C_8  and  C_9 
REMARK    4  A    between atoms: C_9  and  C_10 
REMARK    5  A    between atoms: C_10  and  N_11 
REMARK       I    between atoms: N_11  and  C_12 
REMARK    6  A    between atoms: C_12  and  C_13 
REMARK    7  A    between atoms: C_13  and  S_14 
REMARK    8  A    between atoms: S_14  and  C_15 
ROOT
HETATM    1  N   UNL     1      38.916 -15.130   1.309  1.00  0.00    -0.360 N 
HETATM    2  C   UNL     1      39.778 -15.470   2.326  1.00  0.00     0.227 C 
HETATM    3  O   UNL     1      39.977 -14.749   3.302  1.00  0.00    -0.273 OA
HETATM    4  H   UNL     1      38.925 -15.694   0.457  1.00  0.00     0.162 HD
ENDROOT
BRANCH   2   5
HETATM    5  C   UNL     1      40.419 -16.840   2.188  1.00  0.00     0.185 C 
BRANCH   5   6
HETATM    6  S   UNL     1      42.157 -16.728   1.683  1.00  0.00    -0.080 SA
BRANCH   6   7
HETATM    7  C   UNL     1      42.971 -16.837   3.209  1.00  0.00     0.197 A 
HETATM    8  N   UNL     1      43.543 -17.961   3.781  1.00  0.00    -0.271 N 
HETATM    9  C   UNL     1      43.899 -17.525   5.058  1.00  0.00     0.159 A 
HETATM   10  C   UNL     1      43.797 -19.289   3.330  1.00  0.00     0.053 A 
HETATM   11  C   UNL     1      44.465 -18.434   5.982  1.00  0.00     0.054 A 
HETATM   12  N   UNL     1      43.630 -16.245   5.194  1.00  0.00    -0.129 NA
HETATM   13  C   UNL     1      44.694 -19.705   5.628  1.00  0.00     0.017 A 
HETATM   14  C   UNL     1      44.377 -20.168   4.272  1.00  0.00    -0.009 A 
HETATM   15  C   UNL     1      44.665 -21.490   3.911  1.00  0.00     0.014 A 
HETATM   16  C   UNL     1      44.392 -21.937   2.620  1.00  0.00     0.001 A 
HETATM   17  C   UNL     1      43.835 -21.065   1.687  1.00  0.00     0.002 A 
HETATM   18  C   UNL     1      43.537 -19.745   2.036  1.00  0.00     0.031 A 
HETATM   19  N   UNL     1      43.059 -15.814   4.033  1.00  0.00    -0.122 NA
ENDBRANCH   6   7
ENDBRANCH   5   6
ENDBRANCH   2   5
BRANCH   1  20
HETATM   20  C   UNL     1      38.124 -13.920   1.321  1.00  0.00     0.127 C 
BRANCH  20  21
HETATM   21  C   UNL     1      37.562 -13.543  -0.052  1.00  0.00     0.058 C 
BRANCH  21  22
HETATM   22  C   UNL     1      38.678 -13.426  -1.064  1.00  0.00    -0.054 A 
HETATM   23  C   UNL     1      38.855 -14.419  -2.043  1.00  0.00     0.046 A 
HETATM   24  C   UNL     1      39.832 -14.280  -3.035  1.00  0.00     0.102 A 
HETATM   25  C   UNL     1      40.620 -13.119  -3.055  1.00  0.00     0.101 A 
HETATM   26  C   UNL     1      40.477 -12.145  -2.063  1.00  0.00     0.040 A 
HETATM   27  C   UNL     1      39.504 -12.295  -1.075  1.00  0.00     0.010 A 
BRANCH  24  28
HETATM   28  O   UNL     1      40.061 -15.186  -4.039  1.00  0.00    -0.353 OA
HETATM   29  C   UNL     1      38.986 -16.042  -4.398  1.00  0.00     0.210 C 
ENDBRANCH  24  28
BRANCH  25  30
HETATM   30  O   UNL     1      41.576 -12.995  -4.035  1.00  0.00    -0.353 OA
HETATM   31  C   UNL     1      42.067 -11.660  -4.145  1.00  0.00     0.210 C 
ENDBRANCH  25  30
ENDBRANCH  21  22
ENDBRANCH  20  21
ENDBRANCH   1  20
TORSDOF 8
ENDMDL
MODEL 7
REMARK VINA RESULT:      -8.2      1.798      2.547
REMARK  8 active torsions:
REMARK  status: ('A' for Active; 'I' for Inactive)
REMARK    1  A    between atoms: O_2  and  C_3 
REMARK    2  A    between atoms: C_4  and  O_5 
REMARK    3  A    between atoms: C_8  and  C_9 
REMARK    4  A    between atoms: C_9  and  C_10 
REMARK    5  A    between atoms: C_10  and  N_11 
REMARK       I    between atoms: N_11  and  C_12 
REMARK    6  A    between atoms: C_12  and  C_13 
REMARK    7  A    between atoms: C_13  and  S_14 
REMARK    8  A    between atoms: S_14  and  C_15 
ROOT
HETATM    1  N   UNL     1      41.608 -13.123   6.226  1.00  0.00    -0.360 N 
HETATM    2  C   UNL     1      42.731 -13.574   5.571  1.00  0.00     0.227 C 
HETATM    3  O   UNL     1      43.206 -13.005   4.590  1.00  0.00    -0.273 OA
HETATM    4  H   UNL     1      41.178 -13.731   6.925  1.00  0.00     0.162 HD
ENDROOT
BRANCH   2   5
HETATM    5  C   UNL     1      43.385 -14.796   6.193  1.00  0.00     0.185 C 
BRANCH   5   6
HETATM    6  S   UNL     1      42.203 -16.150   6.434  1.00  0.00    -0.080 SA
BRANCH   6   7
HETATM    7  C   UNL     1      41.692 -16.460   4.808  1.00  0.00     0.197 A 
HETATM    8  N   UNL     1      42.219 -17.384   3.921  1.00  0.00    -0.271 N 
HETATM    9  C   UNL     1      41.556 -17.096   2.727  1.00  0.00     0.159 A 
HETATM   10  C   UNL     1      43.179 -18.431   4.026  1.00  0.00     0.053 A 
HETATM   11  C   UNL     1      41.884 -17.806   1.549  1.00  0.00     0.054 A 
HETATM   12  N   UNL     1      40.668 -16.145   2.917  1.00  0.00    -0.129 NA
HETATM   13  C   UNL     1      42.805 -18.777   1.577  1.00  0.00     0.017 A 
HETATM   14  C   UNL     1      43.474 -19.131   2.834  1.00  0.00    -0.009 A 
HETATM   15  C   UNL     1      44.402 -20.179   2.850  1.00  0.00     0.014 A 
HETATM   16  C   UNL     1      45.027 -20.543   4.041  1.00  0.00     0.001 A 
HETATM   17  C   UNL     1      44.724 -19.863   5.219  1.00  0.00     0.002 A 
HETATM   18  C   UNL     1      43.804 -18.811   5.217  1.00  0.00     0.031 A 
HETATM   19  N   UNL     1      40.748 -15.756   4.221  1.00  0.00    -0.122 NA
ENDBRANCH   6   7
ENDBRANCH   5   6
ENDBRANCH   2   5
BRANCH   1  20
HETATM   20  C   UNL     1      40.917 -11.909   5.855  1.00  0.00     0.127 C 
BRANCH  20  21
HETATM   21  C   UNL     1      41.481 -10.654   6.526  1.00  0.00     0.058 C 
BRANCH  21  22
HETATM   22  C   UNL     1      41.438 -10.796   8.030  1.00  0.00    -0.054 A 
HETATM   23  C   UNL     1      42.631 -10.866   8.770  1.00  0.00     0.046 A 
HETATM   24  C   UNL     1      42.604 -10.914  10.168  1.00  0.00     0.102 A 
HETATM   25  C   UNL     1      41.365 -10.867  10.827  1.00  0.00     0.101 A 
HETATM   26  C   UNL     1      40.173 -10.836  10.097  1.00  0.00     0.040 A 
HETATM   27  C   UNL     1      40.210 -10.793   8.704  1.00  0.00     0.010 A 
BRANCH  24  28
HETATM   28  O   UNL     1      43.715 -10.963  10.970  1.00  0.00    -0.353 OA
HETATM   29  C   UNL     1      44.376 -12.215  11.088  1.00  0.00     0.210 C 
ENDBRANCH  24  28
BRANCH  25  30
HETATM   30  O   UNL     1      41.353 -10.915  12.200  1.00  0.00    -0.353 OA
HETATM   31  C   UNL     1      40.295 -11.729  12.703  1.00  0.00     0.210 C 
ENDBRANCH  25  30
ENDBRANCH  21  22
ENDBRANCH  20  21
ENDBRANCH   1  20
TORSDOF 8
ENDMDL
MODEL 8
REMARK VINA RESULT:      -8.2      5.029      8.932
REMARK  8 active torsions:
REMARK  status: ('A' for Active; 'I' for Inactive)
REMARK    1  A    between atoms: O_2  and  C_3 
REMARK    2  A    between atoms: C_4  and  O_5 
REMARK    3  A    between atoms: C_8  and  C_9 
REMARK    4  A    between atoms: C_9  and  C_10 
REMARK    5  A    between atoms: C_10  and  N_11 
REMARK       I    between atoms: N_11  and  C_12 
REMARK    6  A    between atoms: C_12  and  C_13 
REMARK    7  A    between atoms: C_13  and  S_14 
REMARK    8  A    between atoms: S_14  and  C_15 
ROOT
HETATM    1  N   UNL     1      41.065 -14.665   3.714  1.00  0.00    -0.360 N 
HETATM    2  C   UNL     1      40.469 -14.734   4.952  1.00  0.00     0.227 C 
HETATM    3  O   UNL     1      39.497 -14.049   5.264  1.00  0.00    -0.273 OA
HETATM    4  H   UNL     1      41.961 -15.137   3.580  1.00  0.00     0.162 HD
ENDROOT
BRANCH   2   5
HETATM    5  C   UNL     1      41.061 -15.773   5.888  1.00  0.00     0.185 C 
BRANCH   5   6
HETATM    6  S   UNL     1      42.789 -15.409   6.299  1.00  0.00    -0.080 SA
BRANCH   6   7
HETATM    7  C   UNL     1      43.417 -16.996   6.598  1.00  0.00     0.197 A 
HETATM    8  N   UNL     1      43.720 -17.973   5.664  1.00  0.00    -0.271 N 
HETATM    9  C   UNL     1      44.021 -19.086   6.450  1.00  0.00     0.159 A 
HETATM   10  C   UNL     1      43.775 -18.007   4.240  1.00  0.00     0.053 A 
HETATM   11  C   UNL     1      44.323 -20.323   5.835  1.00  0.00     0.054 A 
HETATM   12  N   UNL     1      43.973 -18.770   7.725  1.00  0.00    -0.129 NA
HETATM   13  C   UNL     1      44.354 -20.427   4.500  1.00  0.00     0.017 A 
HETATM   14  C   UNL     1      44.094 -19.254   3.657  1.00  0.00    -0.009 A 
HETATM   15  C   UNL     1      44.176 -19.375   2.264  1.00  0.00     0.014 A 
HETATM   16  C   UNL     1      43.956 -18.265   1.452  1.00  0.00     0.001 A 
HETATM   17  C   UNL     1      43.657 -17.032   2.028  1.00  0.00     0.002 A 
HETATM   18  C   UNL     1      43.567 -16.898   3.417  1.00  0.00     0.031 A 
HETATM   19  N   UNL     1      43.605 -17.460   7.816  1.00  0.00    -0.122 NA
ENDBRANCH   6   7
ENDBRANCH   5   6
ENDBRANCH   2   5
BRANCH   1  20
HETATM   20  C   UNL     1      40.570 -13.822   2.649  1.00  0.00     0.127 C 
BRANCH  20  21
HETATM   21  C   UNL     1      41.656 -13.369   1.671  1.00  0.00     0.058 C 
BRANCH  21  22
HETATM   22  C   UNL     1      41.382 -13.915   0.288  1.00  0.00    -0.054 A 
HETATM   23  C   UNL     1      41.397 -13.061  -0.828  1.00  0.00     0.046 A 
HETATM   24  C   UNL     1      41.227 -13.569  -2.120  1.00  0.00     0.102 A 
HETATM   25  C   UNL     1      41.065 -14.953  -2.291  1.00  0.00     0.101 A 
HETATM   26  C   UNL     1      41.011 -15.804  -1.184  1.00  0.00     0.040 A 
HETATM   27  C   UNL     1      41.176 -15.287   0.101  1.00  0.00     0.010 A 
BRANCH  24  28
HETATM   28  O   UNL     1      41.247 -12.815  -3.266  1.00  0.00    -0.353 OA
HETATM   29  C   UNL     1      42.386 -11.994  -3.482  1.00  0.00     0.210 C 
ENDBRANCH  24  28
BRANCH  25  30
HETATM   30  O   UNL     1      40.898 -15.439  -3.566  1.00  0.00    -0.353 OA
HETATM   31  C   UNL     1      39.557 -15.857  -3.814  1.00  0.00     0.210 C 
ENDBRANCH  25  30
ENDBRANCH  21  22
ENDBRANCH  20  21
ENDBRANCH   1  20
TORSDOF 8
ENDMDL
MODEL 9
REMARK VINA RESULT:      -8.1      1.586      2.368
REMARK  8 active torsions:
REMARK  status: ('A' for Active; 'I' for Inactive)
REMARK    1  A    between atoms: O_2  and  C_3 
REMARK    2  A    between atoms: C_4  and  O_5 
REMARK    3  A    between atoms: C_8  and  C_9 
REMARK    4  A    between atoms: C_9  and  C_10 
REMARK    5  A    between atoms: C_10  and  N_11 
REMARK       I    between atoms: N_11  and  C_12 
REMARK    6  A    between atoms: C_12  and  C_13 
REMARK    7  A    between atoms: C_13  and  S_14 
REMARK    8  A    between atoms: S_14  and  C_15 
ROOT
HETATM    1  N   UNL     1      44.410 -14.410   6.232  1.00  0.00    -0.360 N 
HETATM    2  C   UNL     1      43.459 -13.829   5.425  1.00  0.00     0.227 C 
HETATM    3  O   UNL     1      42.616 -13.040   5.847  1.00  0.00    -0.273 OA
HETATM    4  H   UNL     1      44.968 -15.176   5.851  1.00  0.00     0.162 HD
ENDROOT
BRANCH   2   5
HETATM    5  C   UNL     1      43.567 -14.186   3.953  1.00  0.00     0.185 C 
BRANCH   5   6
HETATM    6  S   UNL     1      42.060 -14.981   3.334  1.00  0.00    -0.080 SA
BRANCH   6   7
HETATM    7  C   UNL     1      42.701 -16.402   2.577  1.00  0.00     0.197 A 
HETATM    8  N   UNL     1      43.218 -17.527   3.199  1.00  0.00    -0.271 N 
HETATM    9  C   UNL     1      43.735 -18.271   2.137  1.00  0.00     0.159 A 
HETATM   10  C   UNL     1      43.282 -17.979   4.549  1.00  0.00     0.053 A 
HETATM   11  C   UNL     1      44.416 -19.484   2.390  1.00  0.00     0.054 A 
HETATM   12  N   UNL     1      43.476 -17.673   0.994  1.00  0.00    -0.129 NA
HETATM   13  C   UNL     1      44.541 -19.942   3.642  1.00  0.00     0.017 A 
HETATM   14  C   UNL     1      43.957 -19.202   4.767  1.00  0.00    -0.009 A 
HETATM   15  C   UNL     1      44.061 -19.722   6.063  1.00  0.00     0.014 A 
HETATM   16  C   UNL     1      43.490 -19.043   7.137  1.00  0.00     0.001 A 
HETATM   17  C   UNL     1      42.812 -17.846   6.919  1.00  0.00     0.002 A 
HETATM   18  C   UNL     1      42.705 -17.312   5.631  1.00  0.00     0.031 A 
HETATM   19  N   UNL     1      42.821 -16.510   1.271  1.00  0.00    -0.122 NA
ENDBRANCH   6   7
ENDBRANCH   5   6
ENDBRANCH   2   5
BRANCH   1  20
HETATM   20  C   UNL     1      44.541 -14.102   7.639  1.00  0.00     0.127 C 
BRANCH  20  21
HETATM   21  C   UNL     1      45.493 -12.938   7.924  1.00  0.00     0.058 C 
BRANCH  21  22
HETATM   22  C   UNL     1      44.887 -12.000   8.943  1.00  0.00    -0.054 A 
HETATM   23  C   UNL     1      43.662 -11.363   8.680  1.00  0.00     0.046 A 
HETATM   24  C   UNL     1      43.051 -10.558   9.648  1.00  0.00     0.102 A 
HETATM   25  C   UNL     1      43.669 -10.412  10.900  1.00  0.00     0.101 A 
HETATM   26  C   UNL     1      44.906 -11.011  11.156  1.00  0.00     0.040 A 
HETATM   27  C   UNL     1      45.510 -11.807  10.182  1.00  0.00     0.010 A 
BRANCH  24  28
HETATM   28  O   UNL     1      41.850  -9.917   9.487  1.00  0.00    -0.353 OA
HETATM   29  C   UNL     1      41.406  -9.695   8.156  1.00  0.00     0.210 C 
ENDBRANCH  24  28
BRANCH  25  30
HETATM   30  O   UNL     1      43.059  -9.619  11.842  1.00  0.00    -0.353 OA
HETATM   31  C   UNL     1      42.967 -10.261  13.112  1.00  0.00     0.210 C 
ENDBRANCH  25  30
ENDBRANCH  21  22
ENDBRANCH  20  21
ENDBRANCH   1  20
TORSDOF 8
ENDMDL
MODEL 10
REMARK VINA RESULT:      -8.1      6.562      9.445
REMARK  8 active torsions:
REMARK  status: ('A' for Active; 'I' for Inactive)
REMARK    1  A    between atoms: O_2  and  C_3 
REMARK    2  A    between atoms: C_4  and  O_5 
REMARK    3  A    between atoms: C_8  and  C_9 
REMARK    4  A    between atoms: C_9  and  C_10 
REMARK    5  A    between atoms: C_10  and  N_11 
REMARK       I    between atoms: N_11  and  C_12 
REMARK    6  A    between atoms: C_12  and  C_13 
REMARK    7  A    between atoms: C_13  and  S_14 
REMARK    8  A    between atoms: S_14  and  C_15 
ROOT
HETATM    1  N   UNL     1      40.603 -15.588  -0.956  1.00  0.00    -0.360 N 
HETATM    2  C   UNL     1      40.602 -15.212   0.367  1.00  0.00     0.227 C 
HETATM    3  O   UNL     1      40.412 -14.053   0.733  1.00  0.00    -0.273 OA
HETATM    4  H   UNL     1      40.929 -16.526  -1.194  1.00  0.00     0.162 HD
ENDROOT
BRANCH   2   5
HETATM    5  C   UNL     1      40.788 -16.351   1.354  1.00  0.00     0.185 C 
BRANCH   5   6
HETATM    6  S   UNL     1      42.375 -17.197   1.123  1.00  0.00    -0.080 SA
BRANCH   6   7
HETATM    7  C   UNL     1      43.055 -17.103   2.714  1.00  0.00     0.197 A 
HETATM    8  N   UNL     1      43.579 -18.139   3.469  1.00  0.00    -0.271 N 
HETATM    9  C   UNL     1      43.822 -17.543   4.707  1.00  0.00     0.159 A 
HETATM   10  C   UNL     1      43.874 -19.510   3.212  1.00  0.00     0.053 A 
HETATM   11  C   UNL     1      44.310 -18.321   5.782  1.00  0.00     0.054 A 
HETATM   12  N   UNL     1      43.539 -16.259   4.658  1.00  0.00    -0.129 NA
HETATM   13  C   UNL     1      44.571 -19.623   5.612  1.00  0.00     0.017 A 
HETATM   14  C   UNL     1      44.374 -20.256   4.303  1.00  0.00    -0.009 A 
HETATM   15  C   UNL     1      44.696 -21.609   4.136  1.00  0.00     0.014 A 
HETATM   16  C   UNL     1      44.537 -22.217   2.893  1.00  0.00     0.001 A 
HETATM   17  C   UNL     1      44.059 -21.477   1.814  1.00  0.00     0.002 A 
HETATM   18  C   UNL     1      43.728 -20.127   1.968  1.00  0.00     0.031 A 
HETATM   19  N   UNL     1      43.069 -15.985   3.408  1.00  0.00    -0.122 NA
ENDBRANCH   6   7
ENDBRANCH   5   6
ENDBRANCH   2   5
BRANCH   1  20
HETATM   20  C   UNL     1      40.325 -14.666  -2.035  1.00  0.00     0.127 C 
BRANCH  20  21
HETATM   21  C   UNL     1      41.514 -14.444  -2.973  1.00  0.00     0.058 C 
BRANCH  21  22
HETATM   22  C   UNL     1      42.052 -13.040  -2.818  1.00  0.00    -0.054 A 
HETATM   23  C   UNL     1      41.976 -12.130  -3.887  1.00  0.00     0.046 A 
HETATM   24  C   UNL     1      42.396 -10.804  -3.729  1.00  0.00     0.102 A 
HETATM   25  C   UNL     1      42.873 -10.387  -2.477  1.00  0.00     0.101 A 
HETATM   26  C   UNL     1      42.988 -11.295  -1.421  1.00  0.00     0.040 A 
HETATM   27  C   UNL     1      42.572 -12.616  -1.589  1.00  0.00     0.010 A 
BRANCH  24  28
HETATM   28  O   UNL     1      42.339  -9.845  -4.707  1.00  0.00    -0.353 OA
HETATM   29  C   UNL     1      41.107  -9.693  -5.396  1.00  0.00     0.210 C 
ENDBRANCH  24  28
BRANCH  25  30
HETATM   30  O   UNL     1      43.282  -9.082  -2.335  1.00  0.00    -0.353 OA
HETATM   31  C   UNL     1      43.907  -8.846  -1.075  1.00  0.00     0.210 C 
ENDBRANCH  25  30
ENDBRANCH  21  22
ENDBRANCH  20  21
ENDBRANCH   1  20
TORSDOF 8
ENDMDL
