MODEL 1
REMARK VINA RESULT:      -9.1      0.000      0.000
REMARK  3 active torsions:
REMARK  status: ('A' for Active; 'I' for Inactive)
REMARK    1  A    between atoms: C_4  and  C_5 
REMARK    2  A    between atoms: C_9  and  C_10 
REMARK       I    between atoms: C_10  and  N_11 
REMARK    3  A    between atoms: N_11  and  N_12 
ROOT
HETATM    1  C   UNL     1      43.304 -14.428   2.900  1.00  0.00     0.289 C 
HETATM    2  N   UNL     1      42.416 -14.124   1.880  1.00  0.00    -0.241 N 
HETATM    3  O   UNL     1      43.971 -13.607   3.519  1.00  0.00    -0.264 OA
HETATM    4  H   UNL     1      42.011 -14.873   1.340  1.00  0.00     0.192 HD
ENDROOT
BRANCH   1   5
HETATM    5  C   UNL     1      43.348 -15.834   3.228  1.00  0.00     0.121 A 
HETATM    6  N   UNL     1      42.701 -16.334   4.324  1.00  0.00    -0.272 N 
HETATM    7  N   UNL     1      42.769 -17.670   4.438  1.00  0.00    -0.174 NA
HETATM    8  H   UNL     1      42.168 -15.805   5.008  1.00  0.00     0.189 HD
HETATM    9  C   UNL     1      43.531 -18.062   3.406  1.00  0.00     0.089 A 
HETATM   10  C   UNL     1      43.929 -16.937   2.632  1.00  0.00     0.071 A 
BRANCH   9  11
HETATM   11  C   UNL     1      43.835 -19.471   3.149  1.00  0.00    -0.006 A 
HETATM   12  C   UNL     1      44.547 -20.226   4.092  1.00  0.00     0.014 A 
HETATM   13  C   UNL     1      44.802 -21.582   3.875  1.00  0.00     0.001 A 
HETATM   14  C   UNL     1      44.355 -22.197   2.708  1.00  0.00     0.000 A 
HETATM   15  C   UNL     1      43.658 -21.456   1.755  1.00  0.00     0.001 A 
HETATM   16  C   UNL     1      43.398 -20.101   1.974  1.00  0.00     0.014 A 
ENDBRANCH   9  11
ENDBRANCH   1   5
BRANCH   2  17
HETATM   17  N   UNL     1      42.287 -12.856   1.405  1.00  0.00    -0.165 NA
HETATM   18  C   UNL     1      41.989 -12.697   0.153  1.00  0.00     0.157 A 
HETATM   19  C   UNL     1      42.034 -11.307  -0.516  1.00  0.00     0.277 A 
HETATM   20  C   UNL     1      41.589 -13.634  -0.911  1.00  0.00     0.027 A 
HETATM   21  O   UNL     1      42.275 -10.250   0.022  1.00  0.00    -0.266 OA
HETATM   22  N   UNL     1      41.771 -11.535  -1.848  1.00  0.00    -0.321 N 
HETATM   23  C   UNL     1      41.504 -12.878  -2.082  1.00  0.00     0.048 A 
HETATM   24  H   UNL     1      41.735 -10.791  -2.529  1.00  0.00     0.169 HD
HETATM   25  C   UNL     1      41.153 -13.441  -3.293  1.00  0.00     0.030 A 
HETATM   26  C   UNL     1      40.861 -14.807  -3.309  1.00  0.00     0.002 A 
HETATM   27  C   UNL     1      40.905 -15.567  -2.126  1.00  0.00     0.001 A 
HETATM   28  C   UNL     1      41.260 -14.978  -0.908  1.00  0.00     0.016 A 
ENDBRANCH   2  17
TORSDOF 3
ENDMDL
MODEL 2
REMARK VINA RESULT:      -8.9      2.680      7.889
REMARK  3 active torsions:
REMARK  status: ('A' for Active; 'I' for Inactive)
REMARK    1  A    between atoms: C_4  and  C_5 
REMARK    2  A    between atoms: C_9  and  C_10 
REMARK       I    between atoms: C_10  and  N_11 
REMARK    3  A    between atoms: N_11  and  N_12 
ROOT
HETATM    1  C   UNL     1      41.473 -15.926   3.945  1.00  0.00     0.289 C 
HETATM    2  N   UNL     1      42.768 -16.384   3.761  1.00  0.00    -0.241 N 
HETATM    3  O   UNL     1      40.921 -15.797   5.031  1.00  0.00    -0.264 OA
HETATM    4  H   UNL     1      43.093 -16.581   2.826  1.00  0.00     0.192 HD
ENDROOT
BRANCH   1   5
HETATM    5  C   UNL     1      40.815 -15.545   2.718  1.00  0.00     0.121 A 
HETATM    6  N   UNL     1      39.482 -15.242   2.684  1.00  0.00    -0.272 N 
HETATM    7  N   UNL     1      39.044 -14.824   1.486  1.00  0.00    -0.174 NA
HETATM    8  H   UNL     1      38.832 -15.273   3.465  1.00  0.00     0.189 HD
HETATM    9  C   UNL     1      40.118 -14.900   0.685  1.00  0.00     0.089 A 
HETATM   10  C   UNL     1      41.246 -15.365   1.417  1.00  0.00     0.071 A 
BRANCH   9  11
HETATM   11  C   UNL     1      40.073 -14.505  -0.723  1.00  0.00    -0.006 A 
HETATM   12  C   UNL     1      40.945 -15.090  -1.652  1.00  0.00     0.014 A 
HETATM   13  C   UNL     1      40.879 -14.750  -3.006  1.00  0.00     0.001 A 
HETATM   14  C   UNL     1      39.945 -13.815  -3.444  1.00  0.00     0.000 A 
HETATM   15  C   UNL     1      39.080 -13.215  -2.531  1.00  0.00     0.001 A 
HETATM   16  C   UNL     1      39.143 -13.557  -1.178  1.00  0.00     0.014 A 
ENDBRANCH   9  11
ENDBRANCH   1   5
BRANCH   2  17
HETATM   17  N   UNL     1      43.517 -16.837   4.802  1.00  0.00    -0.165 NA
HETATM   18  C   UNL     1      43.943 -18.061   4.765  1.00  0.00     0.157 A 
HETATM   19  C   UNL     1      44.611 -18.719   5.991  1.00  0.00     0.277 A 
HETATM   20  C   UNL     1      43.926 -19.099   3.721  1.00  0.00     0.027 A 
HETATM   21  O   UNL     1      44.862 -18.191   7.050  1.00  0.00    -0.266 OA
HETATM   22  N   UNL     1      44.829 -20.029   5.627  1.00  0.00    -0.321 N 
HETATM   23  C   UNL     1      44.444 -20.253   4.312  1.00  0.00     0.048 A 
HETATM   24  H   UNL     1      45.263 -20.698   6.245  1.00  0.00     0.169 HD
HETATM   25  C   UNL     1      44.572 -21.438   3.616  1.00  0.00     0.030 A 
HETATM   26  C   UNL     1      44.181 -21.444   2.274  1.00  0.00     0.002 A 
HETATM   27  C   UNL     1      43.697 -20.275   1.659  1.00  0.00     0.001 A 
HETATM   28  C   UNL     1      43.578 -19.082   2.381  1.00  0.00     0.016 A 
ENDBRANCH   2  17
TORSDOF 3
ENDMDL
MODEL 3
REMARK VINA RESULT:      -8.8      1.814      7.675
REMARK  3 active torsions:
REMARK  status: ('A' for Active; 'I' for Inactive)
REMARK    1  A    between atoms: C_4  and  C_5 
REMARK    2  A    between atoms: C_9  and  C_10 
REMARK       I    between atoms: C_10  and  N_11 
REMARK    3  A    between atoms: N_11  and  N_12 
ROOT
HETATM    1  C   UNL     1      43.075 -14.648   2.920  1.00  0.00     0.289 C 
HETATM    2  N   UNL     1      42.689 -15.795   3.595  1.00  0.00    -0.241 N 
HETATM    3  O   UNL     1      44.036 -13.948   3.216  1.00  0.00    -0.264 OA
HETATM    4  H   UNL     1      41.811 -16.232   3.362  1.00  0.00     0.192 HD
ENDROOT
BRANCH   1   5
HETATM    5  C   UNL     1      42.260 -14.356   1.764  1.00  0.00     0.121 A 
HETATM    6  N   UNL     1      42.034 -13.072   1.352  1.00  0.00    -0.272 N 
HETATM    7  N   UNL     1      41.330 -12.977   0.213  1.00  0.00    -0.174 NA
HETATM    8  H   UNL     1      42.370 -12.223   1.799  1.00  0.00     0.189 HD
HETATM    9  C   UNL     1      41.038 -14.245  -0.114  1.00  0.00     0.089 A 
HETATM   10  C   UNL     1      41.590 -15.140   0.845  1.00  0.00     0.071 A 
BRANCH   9  11
HETATM   11  C   UNL     1      40.289 -14.588  -1.324  1.00  0.00    -0.006 A 
HETATM   12  C   UNL     1      39.050 -13.985  -1.584  1.00  0.00     0.014 A 
HETATM   13  C   UNL     1      38.349 -14.273  -2.758  1.00  0.00     0.001 A 
HETATM   14  C   UNL     1      38.876 -15.174  -3.681  1.00  0.00     0.000 A 
HETATM   15  C   UNL     1      40.100 -15.792  -3.429  1.00  0.00     0.001 A 
HETATM   16  C   UNL     1      40.803 -15.500  -2.257  1.00  0.00     0.014 A 
ENDBRANCH   9  11
ENDBRANCH   1   5
BRANCH   2  17
HETATM   17  N   UNL     1      43.311 -16.190   4.739  1.00  0.00    -0.165 NA
HETATM   18  C   UNL     1      43.755 -17.406   4.808  1.00  0.00     0.157 A 
HETATM   19  C   UNL     1      44.276 -17.999   6.135  1.00  0.00     0.277 A 
HETATM   20  C   UNL     1      43.880 -18.487   3.816  1.00  0.00     0.027 A 
HETATM   21  O   UNL     1      44.388 -17.423   7.192  1.00  0.00    -0.266 OA
HETATM   22  N   UNL     1      44.554 -19.319   5.858  1.00  0.00    -0.321 N 
HETATM   23  C   UNL     1      44.336 -19.606   4.517  1.00  0.00     0.048 A 
HETATM   24  H   UNL     1      44.918 -19.953   6.553  1.00  0.00     0.169 HD
HETATM   25  C   UNL     1      44.564 -20.817   3.894  1.00  0.00     0.030 A 
HETATM   26  C   UNL     1      44.341 -20.886   2.516  1.00  0.00     0.002 A 
HETATM   27  C   UNL     1      43.921 -19.753   1.796  1.00  0.00     0.001 A 
HETATM   28  C   UNL     1      43.698 -18.533   2.445  1.00  0.00     0.016 A 
ENDBRANCH   2  17
TORSDOF 3
ENDMDL
MODEL 4
REMARK VINA RESULT:      -8.7      3.383      4.091
REMARK  3 active torsions:
REMARK  status: ('A' for Active; 'I' for Inactive)
REMARK    1  A    between atoms: C_4  and  C_5 
REMARK    2  A    between atoms: C_9  and  C_10 
REMARK       I    between atoms: C_10  and  N_11 
REMARK    3  A    between atoms: N_11  and  N_12 
ROOT
HETATM    1  C   UNL     1      42.597 -15.408   5.819  1.00  0.00     0.289 C 
HETATM    2  N   UNL     1      41.213 -15.478   5.780  1.00  0.00    -0.241 N 
HETATM    3  O   UNL     1      43.241 -14.435   6.194  1.00  0.00    -0.264 OA
HETATM    4  H   UNL     1      40.772 -16.268   5.334  1.00  0.00     0.192 HD
ENDROOT
BRANCH   1   5
HETATM    5  C   UNL     1      43.249 -16.633   5.421  1.00  0.00     0.121 A 
HETATM    6  N   UNL     1      44.331 -17.122   6.100  1.00  0.00    -0.272 N 
HETATM    7  N   UNL     1      44.765 -18.312   5.656  1.00  0.00    -0.174 NA
HETATM    8  H   UNL     1      44.791 -16.693   6.899  1.00  0.00     0.189 HD
HETATM    9  C   UNL     1      43.970 -18.598   4.614  1.00  0.00     0.089 A 
HETATM   10  C   UNL     1      43.016 -17.560   4.423  1.00  0.00     0.071 A 
BRANCH   9  11
HETATM   11  C   UNL     1      44.097 -19.841   3.851  1.00  0.00    -0.006 A 
HETATM   12  C   UNL     1      43.683 -19.897   2.512  1.00  0.00     0.014 A 
HETATM   13  C   UNL     1      43.841 -21.066   1.764  1.00  0.00     0.001 A 
HETATM   14  C   UNL     1      44.408 -22.196   2.350  1.00  0.00     0.000 A 
HETATM   15  C   UNL     1      44.812 -22.160   3.683  1.00  0.00     0.001 A 
HETATM   16  C   UNL     1      44.658 -20.989   4.430  1.00  0.00     0.014 A 
ENDBRANCH   9  11
ENDBRANCH   1   5
BRANCH   2  17
HETATM   17  N   UNL     1      40.438 -14.399   6.070  1.00  0.00    -0.165 NA
HETATM   18  C   UNL     1      39.915 -13.736   5.086  1.00  0.00     0.157 A 
HETATM   19  C   UNL     1      39.205 -12.384   5.312  1.00  0.00     0.277 A 
HETATM   20  C   UNL     1      39.841 -13.984   3.636  1.00  0.00     0.027 A 
HETATM   21  O   UNL     1      39.005 -11.839   6.372  1.00  0.00    -0.266 OA
HETATM   22  N   UNL     1      38.881 -11.930   4.053  1.00  0.00    -0.321 N 
HETATM   23  C   UNL     1      39.237 -12.854   3.080  1.00  0.00     0.048 A 
HETATM   24  H   UNL     1      38.399 -11.057   3.900  1.00  0.00     0.169 HD
HETATM   25  C   UNL     1      39.010 -12.739   1.723  1.00  0.00     0.030 A 
HETATM   26  C   UNL     1      39.389 -13.811   0.911  1.00  0.00     0.002 A 
HETATM   27  C   UNL     1      39.961 -14.970   1.468  1.00  0.00     0.001 A 
HETATM   28  C   UNL     1      40.180 -15.069   2.847  1.00  0.00     0.016 A 
ENDBRANCH   2  17
TORSDOF 3
ENDMDL
MODEL 5
REMARK VINA RESULT:      -8.6      5.249      7.703
REMARK  3 active torsions:
REMARK  status: ('A' for Active; 'I' for Inactive)
REMARK    1  A    between atoms: C_4  and  C_5 
REMARK    2  A    between atoms: C_9  and  C_10 
REMARK       I    between atoms: C_10  and  N_11 
REMARK    3  A    between atoms: N_11  and  N_12 
ROOT
HETATM    1  C   UNL     1      41.470 -13.805   5.872  1.00  0.00     0.289 C 
HETATM    2  N   UNL     1      42.223 -12.796   6.451  1.00  0.00    -0.241 N 
HETATM    3  O   UNL     1      40.297 -13.699   5.531  1.00  0.00    -0.264 OA
HETATM    4  H   UNL     1      43.137 -13.013   6.818  1.00  0.00     0.192 HD
ENDROOT
BRANCH   1   5
HETATM    5  C   UNL     1      42.212 -15.022   5.641  1.00  0.00     0.121 A 
HETATM    6  N   UNL     1      42.919 -15.630   6.641  1.00  0.00    -0.272 N 
HETATM    7  N   UNL     1      43.481 -16.796   6.284  1.00  0.00    -0.174 NA
HETATM    8  H   UNL     1      43.021 -15.304   7.598  1.00  0.00     0.189 HD
HETATM    9  C   UNL     1      43.174 -16.939   4.986  1.00  0.00     0.089 A 
HETATM   10  C   UNL     1      42.393 -15.837   4.540  1.00  0.00     0.071 A 
BRANCH   9  11
HETATM   11  C   UNL     1      43.584 -18.111   4.210  1.00  0.00    -0.006 A 
HETATM   12  C   UNL     1      43.173 -18.258   2.878  1.00  0.00     0.014 A 
HETATM   13  C   UNL     1      43.596 -19.351   2.117  1.00  0.00     0.001 A 
HETATM   14  C   UNL     1      44.429 -20.313   2.683  1.00  0.00     0.000 A 
HETATM   15  C   UNL     1      44.835 -20.188   4.011  1.00  0.00     0.001 A 
HETATM   16  C   UNL     1      44.415 -19.092   4.770  1.00  0.00     0.014 A 
ENDBRANCH   9  11
ENDBRANCH   1   5
BRANCH   2  17
HETATM   17  N   UNL     1      41.671 -11.600   6.789  1.00  0.00    -0.165 NA
HETATM   18  C   UNL     1      42.110 -10.999   7.851  1.00  0.00     0.157 A 
HETATM   19  C   UNL     1      41.398  -9.755   8.424  1.00  0.00     0.277 A 
HETATM   20  C   UNL     1      43.243 -11.258   8.755  1.00  0.00     0.027 A 
HETATM   21  O   UNL     1      40.443  -9.183   7.952  1.00  0.00    -0.266 OA
HETATM   22  N   UNL     1      42.066  -9.461   9.592  1.00  0.00    -0.321 N 
HETATM   23  C   UNL     1      43.140 -10.320   9.785  1.00  0.00     0.048 A 
HETATM   24  H   UNL     1      41.812  -8.682  10.180  1.00  0.00     0.169 HD
HETATM   25  C   UNL     1      44.047 -10.273  10.825  1.00  0.00     0.030 A 
HETATM   26  C   UNL     1      45.100 -11.192  10.806  1.00  0.00     0.002 A 
HETATM   27  C   UNL     1      45.234 -12.112   9.750  1.00  0.00     0.001 A 
HETATM   28  C   UNL     1      44.306 -12.143   8.703  1.00  0.00     0.016 A 
ENDBRANCH   2  17
TORSDOF 3
ENDMDL
MODEL 6
REMARK VINA RESULT:      -8.5      3.803      8.341
REMARK  3 active torsions:
REMARK  status: ('A' for Active; 'I' for Inactive)
REMARK    1  A    between atoms: C_4  and  C_5 
REMARK    2  A    between atoms: C_9  and  C_10 
REMARK       I    between atoms: C_10  and  N_11 
REMARK    3  A    between atoms: N_11  and  N_12 
ROOT
HETATM    1  C   UNL     1      41.323 -15.897   4.810  1.00  0.00     0.289 C 
HETATM    2  N   UNL     1      42.656 -16.016   4.447  1.00  0.00    -0.241 N 
HETATM    3  O   UNL     1      40.861 -16.215   5.900  1.00  0.00    -0.264 OA
HETATM    4  H   UNL     1      42.921 -15.852   3.488  1.00  0.00     0.192 HD
ENDROOT
BRANCH   1   5
HETATM    5  C   UNL     1      40.497 -15.298   3.789  1.00  0.00     0.121 A 
HETATM    6  N   UNL     1      40.018 -16.026   2.736  1.00  0.00    -0.272 N 
HETATM    7  N   UNL     1      39.195 -15.342   1.925  1.00  0.00    -0.174 NA
HETATM    8  H   UNL     1      40.197 -17.009   2.546  1.00  0.00     0.189 HD
HETATM    9  C   UNL     1      39.170 -14.101   2.434  1.00  0.00     0.089 A 
HETATM   10  C   UNL     1      39.988 -14.028   3.595  1.00  0.00     0.071 A 
BRANCH   9  11
HETATM   11  C   UNL     1      38.358 -13.032   1.848  1.00  0.00    -0.006 A 
HETATM   12  C   UNL     1      38.429 -11.728   2.358  1.00  0.00     0.014 A 
HETATM   13  C   UNL     1      37.692 -10.694   1.777  1.00  0.00     0.001 A 
HETATM   14  C   UNL     1      36.868 -10.954   0.684  1.00  0.00     0.000 A 
HETATM   15  C   UNL     1      36.777 -12.248   0.174  1.00  0.00     0.001 A 
HETATM   16  C   UNL     1      37.518 -13.282   0.753  1.00  0.00     0.014 A 
ENDBRANCH   9  11
ENDBRANCH   1   5
BRANCH   2  17
HETATM   17  N   UNL     1      43.566 -16.608   5.266  1.00  0.00    -0.165 NA
HETATM   18  C   UNL     1      43.982 -17.798   4.962  1.00  0.00     0.157 A 
HETATM   19  C   UNL     1      44.843 -18.625   5.941  1.00  0.00     0.277 A 
HETATM   20  C   UNL     1      43.794 -18.656   3.780  1.00  0.00     0.027 A 
HETATM   21  O   UNL     1      45.264 -18.267   7.017  1.00  0.00    -0.266 OA
HETATM   22  N   UNL     1      44.999 -19.853   5.339  1.00  0.00    -0.321 N 
HETATM   23  C   UNL     1      44.403 -19.875   4.085  1.00  0.00     0.048 A 
HETATM   24  H   UNL     1      45.529 -20.601   5.762  1.00  0.00     0.169 HD
HETATM   25  C   UNL     1      44.416 -20.930   3.194  1.00  0.00     0.030 A 
HETATM   26  C   UNL     1      43.809 -20.733   1.951  1.00  0.00     0.002 A 
HETATM   27  C   UNL     1      43.230 -19.494   1.620  1.00  0.00     0.001 A 
HETATM   28  C   UNL     1      43.230 -18.436   2.536  1.00  0.00     0.016 A 
ENDBRANCH   2  17
TORSDOF 3
ENDMDL
MODEL 7
REMARK VINA RESULT:      -8.3      5.532      8.199
REMARK  3 active torsions:
REMARK  status: ('A' for Active; 'I' for Inactive)
REMARK    1  A    between atoms: C_4  and  C_5 
REMARK    2  A    between atoms: C_9  and  C_10 
REMARK       I    between atoms: C_10  and  N_11 
REMARK    3  A    between atoms: N_11  and  N_12 
ROOT
HETATM    1  C   UNL     1      41.240 -12.061   5.337  1.00  0.00     0.289 C 
HETATM    2  N   UNL     1      41.753 -11.892   6.614  1.00  0.00    -0.241 N 
HETATM    3  O   UNL     1      40.337 -11.391   4.849  1.00  0.00    -0.264 OA
HETATM    4  H   UNL     1      42.403 -12.572   6.977  1.00  0.00     0.192 HD
ENDROOT
BRANCH   1   5
HETATM    5  C   UNL     1      41.911 -13.087   4.575  1.00  0.00     0.121 A 
HETATM    6  N   UNL     1      42.812 -12.778   3.594  1.00  0.00    -0.272 N 
HETATM    7  N   UNL     1      43.410 -13.845   3.042  1.00  0.00    -0.174 NA
HETATM    8  H   UNL     1      43.079 -11.846   3.286  1.00  0.00     0.189 HD
HETATM    9  C   UNL     1      42.847 -14.902   3.648  1.00  0.00     0.089 A 
HETATM   10  C   UNL     1      41.889 -14.468   4.605  1.00  0.00     0.071 A 
BRANCH   9  11
HETATM   11  C   UNL     1      43.243 -16.279   3.346  1.00  0.00    -0.006 A 
HETATM   12  C   UNL     1      43.149 -17.275   4.328  1.00  0.00     0.014 A 
HETATM   13  C   UNL     1      43.483 -18.600   4.035  1.00  0.00     0.001 A 
HETATM   14  C   UNL     1      43.923 -18.941   2.758  1.00  0.00     0.000 A 
HETATM   15  C   UNL     1      44.035 -17.959   1.775  1.00  0.00     0.001 A 
HETATM   16  C   UNL     1      43.696 -16.635   2.067  1.00  0.00     0.014 A 
ENDBRANCH   9  11
ENDBRANCH   1   5
BRANCH   2  17
HETATM   17  N   UNL     1      41.205 -11.006   7.489  1.00  0.00    -0.165 NA
HETATM   18  C   UNL     1      41.827 -10.780   8.604  1.00  0.00     0.157 A 
HETATM   19  C   UNL     1      41.175  -9.961   9.738  1.00  0.00     0.277 A 
HETATM   20  C   UNL     1      43.151 -11.176   9.113  1.00  0.00     0.027 A 
HETATM   21  O   UNL     1      40.099  -9.410   9.709  1.00  0.00    -0.266 OA
HETATM   22  N   UNL     1      42.065 -10.021  10.787  1.00  0.00    -0.321 N 
HETATM   23  C   UNL     1      43.214 -10.714  10.429  1.00  0.00     0.048 A 
HETATM   24  H   UNL     1      41.894  -9.563  11.670  1.00  0.00     0.169 HD
HETATM   25  C   UNL     1      44.326 -10.915  11.223  1.00  0.00     0.030 A 
HETATM   26  C   UNL     1      45.411 -11.588  10.655  1.00  0.00     0.002 A 
HETATM   27  C   UNL     1      45.371 -12.020   9.317  1.00  0.00     0.001 A 
HETATM   28  C   UNL     1      44.236 -11.805   8.528  1.00  0.00     0.016 A 
ENDBRANCH   2  17
TORSDOF 3
ENDMDL
MODEL 8
REMARK VINA RESULT:      -8.3      3.219      3.416
REMARK  3 active torsions:
REMARK  status: ('A' for Active; 'I' for Inactive)
REMARK    1  A    between atoms: C_4  and  C_5 
REMARK    2  A    between atoms: C_9  and  C_10 
REMARK       I    between atoms: C_10  and  N_11 
REMARK    3  A    between atoms: N_11  and  N_12 
ROOT
HETATM    1  C   UNL     1      39.502 -15.009   2.222  1.00  0.00     0.289 C 
HETATM    2  N   UNL     1      38.504 -15.067   1.262  1.00  0.00    -0.241 N 
HETATM    3  O   UNL     1      39.613 -14.128   3.067  1.00  0.00    -0.264 OA
HETATM    4  H   UNL     1      38.568 -15.755   0.527  1.00  0.00     0.192 HD
ENDROOT
BRANCH   1   5
HETATM    5  C   UNL     1      40.405 -16.135   2.187  1.00  0.00     0.121 A 
HETATM    6  N   UNL     1      40.632 -16.835   1.035  1.00  0.00    -0.272 N 
HETATM    7  N   UNL     1      41.563 -17.796   1.152  1.00  0.00    -0.174 NA
HETATM    8  H   UNL     1      40.200 -16.672   0.130  1.00  0.00     0.189 HD
HETATM    9  C   UNL     1      41.928 -17.762   2.443  1.00  0.00     0.089 A 
HETATM   10  C   UNL     1      41.211 -16.743   3.130  1.00  0.00     0.071 A 
BRANCH   9  11
HETATM   11  C   UNL     1      42.956 -18.650   2.988  1.00  0.00    -0.006 A 
HETATM   12  C   UNL     1      43.272 -18.614   4.354  1.00  0.00     0.014 A 
HETATM   13  C   UNL     1      44.220 -19.488   4.891  1.00  0.00     0.001 A 
HETATM   14  C   UNL     1      44.870 -20.403   4.065  1.00  0.00     0.000 A 
HETATM   15  C   UNL     1      44.576 -20.441   2.703  1.00  0.00     0.001 A 
HETATM   16  C   UNL     1      43.624 -19.570   2.167  1.00  0.00     0.014 A 
ENDBRANCH   9  11
ENDBRANCH   1   5
BRANCH   2  17
HETATM   17  N   UNL     1      37.599 -14.063   1.114  1.00  0.00    -0.165 NA
HETATM   18  C   UNL     1      37.724 -13.267   0.098  1.00  0.00     0.157 A 
HETATM   19  C   UNL     1      36.879 -11.982  -0.028  1.00  0.00     0.277 A 
HETATM   20  C   UNL     1      38.591 -13.288  -1.093  1.00  0.00     0.027 A 
HETATM   21  O   UNL     1      36.006 -11.611   0.722  1.00  0.00    -0.266 OA
HETATM   22  N   UNL     1      37.352 -11.345  -1.154  1.00  0.00    -0.321 N 
HETATM   23  C   UNL     1      38.335 -12.100  -1.780  1.00  0.00     0.048 A 
HETATM   24  H   UNL     1      36.972 -10.469  -1.481  1.00  0.00     0.169 HD
HETATM   25  C   UNL     1      38.983 -11.780  -2.956  1.00  0.00     0.030 A 
HETATM   26  C   UNL     1      39.902 -12.706  -3.459  1.00  0.00     0.002 A 
HETATM   27  C   UNL     1      40.134 -13.924  -2.795  1.00  0.00     0.001 A 
HETATM   28  C   UNL     1      39.466 -14.231  -1.605  1.00  0.00     0.016 A 
ENDBRANCH   2  17
TORSDOF 3
ENDMDL
MODEL 9
REMARK VINA RESULT:      -8.2      2.147      2.376
REMARK  3 active torsions:
REMARK  status: ('A' for Active; 'I' for Inactive)
REMARK    1  A    between atoms: C_4  and  C_5 
REMARK    2  A    between atoms: C_9  and  C_10 
REMARK       I    between atoms: C_10  and  N_11 
REMARK    3  A    between atoms: N_11  and  N_12 
ROOT
HETATM    1  C   UNL     1      40.831 -15.356   1.617  1.00  0.00     0.289 C 
HETATM    2  N   UNL     1      41.465 -14.130   1.487  1.00  0.00    -0.241 N 
HETATM    3  O   UNL     1      39.618 -15.514   1.692  1.00  0.00    -0.264 OA
HETATM    4  H   UNL     1      42.470 -14.085   1.566  1.00  0.00     0.192 HD
ENDROOT
BRANCH   1   5
HETATM    5  C   UNL     1      41.736 -16.480   1.602  1.00  0.00     0.121 A 
HETATM    6  N   UNL     1      42.745 -16.575   0.684  1.00  0.00    -0.272 N 
HETATM    7  N   UNL     1      43.549 -17.635   0.861  1.00  0.00    -0.174 NA
HETATM    8  H   UNL     1      42.948 -15.919  -0.066  1.00  0.00     0.189 HD
HETATM    9  C   UNL     1      43.022 -18.292   1.905  1.00  0.00     0.089 A 
HETATM   10  C   UNL     1      41.872 -17.608   2.389  1.00  0.00     0.071 A 
BRANCH   9  11
HETATM   11  C   UNL     1      43.623 -19.513   2.445  1.00  0.00    -0.006 A 
HETATM   12  C   UNL     1      44.262 -19.497   3.693  1.00  0.00     0.014 A 
HETATM   13  C   UNL     1      44.800 -20.667   4.235  1.00  0.00     0.001 A 
HETATM   14  C   UNL     1      44.710 -21.866   3.530  1.00  0.00     0.000 A 
HETATM   15  C   UNL     1      44.090 -21.895   2.283  1.00  0.00     0.001 A 
HETATM   16  C   UNL     1      43.549 -20.726   1.743  1.00  0.00     0.014 A 
ENDBRANCH   9  11
ENDBRANCH   1   5
BRANCH   2  17
HETATM   17  N   UNL     1      40.771 -12.961   1.537  1.00  0.00    -0.165 NA
HETATM   18  C   UNL     1      40.876 -12.142   0.537  1.00  0.00     0.157 A 
HETATM   19  C   UNL     1      40.301 -10.711   0.604  1.00  0.00     0.277 A 
HETATM   20  C   UNL     1      41.499 -12.255  -0.792  1.00  0.00     0.027 A 
HETATM   21  O   UNL     1      39.665 -10.227   1.512  1.00  0.00    -0.266 OA
HETATM   22  N   UNL     1      40.689 -10.108  -0.571  1.00  0.00    -0.321 N 
HETATM   23  C   UNL     1      41.375 -10.998  -1.388  1.00  0.00     0.048 A 
HETATM   24  H   UNL     1      40.445  -9.156  -0.799  1.00  0.00     0.169 HD
HETATM   25  C   UNL     1      41.859 -10.736  -2.654  1.00  0.00     0.030 A 
HETATM   26  C   UNL     1      42.469 -11.789  -3.342  1.00  0.00     0.002 A 
HETATM   27  C   UNL     1      42.561 -13.069  -2.766  1.00  0.00     0.001 A 
HETATM   28  C   UNL     1      42.062 -13.315  -1.482  1.00  0.00     0.016 A 
ENDBRANCH   2  17
TORSDOF 3
ENDMDL
MODEL 10
REMARK VINA RESULT:      -8.1      2.000      2.373
REMARK  3 active torsions:
REMARK  status: ('A' for Active; 'I' for Inactive)
REMARK    1  A    between atoms: C_4  and  C_5 
REMARK    2  A    between atoms: C_9  and  C_10 
REMARK       I    between atoms: C_10  and  N_11 
REMARK    3  A    between atoms: N_11  and  N_12 
ROOT
HETATM    1  C   UNL     1      42.739 -14.277   3.227  1.00  0.00     0.289 C 
HETATM    2  N   UNL     1      42.468 -13.947   1.909  1.00  0.00    -0.241 N 
HETATM    3  O   UNL     1      42.857 -13.470   4.143  1.00  0.00    -0.264 OA
HETATM    4  H   UNL     1      42.519 -14.664   1.201  1.00  0.00     0.192 HD
ENDROOT
BRANCH   1   5
HETATM    5  C   UNL     1      42.823 -15.699   3.462  1.00  0.00     0.121 A 
HETATM    6  N   UNL     1      42.035 -16.318   4.393  1.00  0.00    -0.272 N 
HETATM    7  N   UNL     1      42.173 -17.653   4.427  1.00  0.00    -0.174 NA
HETATM    8  H   UNL     1      41.359 -15.874   5.009  1.00  0.00     0.189 HD
HETATM    9  C   UNL     1      43.124 -17.920   3.518  1.00  0.00     0.089 A 
HETATM   10  C   UNL     1      43.569 -16.718   2.903  1.00  0.00     0.071 A 
BRANCH   9  11
HETATM   11  C   UNL     1      43.562 -19.286   3.223  1.00  0.00    -0.006 A 
HETATM   12  C   UNL     1      43.158 -19.920   2.040  1.00  0.00     0.014 A 
HETATM   13  C   UNL     1      43.607 -21.206   1.730  1.00  0.00     0.001 A 
HETATM   14  C   UNL     1      44.459 -21.876   2.605  1.00  0.00     0.000 A 
HETATM   15  C   UNL     1      44.858 -21.264   3.792  1.00  0.00     0.001 A 
HETATM   16  C   UNL     1      44.412 -19.976   4.100  1.00  0.00     0.014 A 
ENDBRANCH   9  11
ENDBRANCH   1   5
BRANCH   2  17
HETATM   17  N   UNL     1      42.410 -12.652   1.497  1.00  0.00    -0.165 NA
HETATM   18  C   UNL     1      41.291 -12.211   1.013  1.00  0.00     0.157 A 
HETATM   19  C   UNL     1      41.197 -10.831   0.329  1.00  0.00     0.277 A 
HETATM   20  C   UNL     1      39.936 -12.784   0.934  1.00  0.00     0.027 A 
HETATM   21  O   UNL     1      42.081 -10.013   0.221  1.00  0.00    -0.266 OA
HETATM   22  N   UNL     1      39.908 -10.750  -0.150  1.00  0.00    -0.321 N 
HETATM   23  C   UNL     1      39.171 -11.871   0.204  1.00  0.00     0.048 A 
HETATM   24  H   UNL     1      39.564  -9.941  -0.646  1.00  0.00     0.169 HD
HETATM   25  C   UNL     1      37.836 -12.090  -0.070  1.00  0.00     0.030 A 
HETATM   26  C   UNL     1      37.257 -13.260   0.429  1.00  0.00     0.002 A 
HETATM   27  C   UNL     1      38.011 -14.164   1.201  1.00  0.00     0.001 A 
HETATM   28  C   UNL     1      39.362 -13.923   1.471  1.00  0.00     0.016 A 
ENDBRANCH   2  17
TORSDOF 3
ENDMDL
