MODEL 1
REMARK VINA RESULT:      -9.2      0.000      0.000
REMARK  9 active torsions:
REMARK  status: ('A' for Active; 'I' for Inactive)
REMARK    1  A    between atoms: C_4  and  C_5 
REMARK    2  A    between atoms: C_8  and  C_9 
REMARK       I    between atoms: C_9  and  N_10 
REMARK    3  A    between atoms: N_10  and  C_11 
REMARK    4  A    between atoms: N_10  and  C_26 
REMARK    5  A    between atoms: C_11  and  C_12 
REMARK    6  A    between atoms: C_11  and  C_21 
REMARK       I    between atoms: C_12  and  N_13 
REMARK    7  A    between atoms: N_13  and  C_14 
REMARK    8  A    between atoms: C_14  and  C_15 
REMARK    9  A    between atoms: C_26  and  C_27 
ROOT
HETATM    1  C   UNL     1      43.414 -16.652   7.132  1.00  0.00     0.271 C 
HETATM    2  N   UNL     1      42.813 -15.775   6.226  1.00  0.00    -0.324 N 
HETATM    3  O   UNL     1      43.768 -16.279   8.249  1.00  0.00    -0.266 OA
ENDROOT
BRANCH   2   4
HETATM    4  C   UNL     1      42.813 -14.313   6.470  1.00  0.00     0.220 C 
BRANCH   4   5
HETATM    5  C   UNL     1      44.179 -13.663   6.817  1.00  0.00     0.245 C 
HETATM    6  N   UNL     1      44.306 -13.116   8.071  1.00  0.00    -0.357 N 
HETATM    7  H   UNL     1      43.461 -13.030   8.638  1.00  0.00     0.162 HD
HETATM    8  O   UNL     1      45.099 -13.634   5.997  1.00  0.00    -0.271 OA
BRANCH   6   9
HETATM    9  C   UNL     1      45.510 -12.453   8.526  1.00  0.00     0.154 C 
BRANCH   9  10
HETATM   10  C   UNL     1      45.583 -12.248  10.049  1.00  0.00     0.139 C 
HETATM   11  O   UNL     1      44.405 -12.839  10.641  1.00  0.00    -0.384 OA
HETATM   12  C   UNL     1      43.572 -11.796  11.165  1.00  0.00     0.168 C 
HETATM   13  C   UNL     1      44.104 -10.490  10.620  1.00  0.00     0.029 C 
HETATM   14  C   UNL     1      45.576 -10.787  10.481  1.00  0.00     0.035 C 
ENDBRANCH   9  10
ENDBRANCH   6   9
ENDBRANCH   4   5
BRANCH   4  15
HETATM   15  C   UNL     1      42.051 -13.510   5.426  1.00  0.00     0.014 A 
HETATM   16  S   UNL     1      40.376 -13.177   5.707  1.00  0.00    -0.104 SA
HETATM   17  C   UNL     1      40.219 -12.307   4.250  1.00  0.00     0.050 A 
HETATM   18  C   UNL     1      41.404 -12.242   3.560  1.00  0.00     0.008 A 
HETATM   19  C   UNL     1      42.457 -12.923   4.239  1.00  0.00     0.017 A 
ENDBRANCH   4  15
ENDBRANCH   2   4
BRANCH   2  20
HETATM   20  C   UNL     1      41.732 -16.259   5.356  1.00  0.00     0.173 C 
BRANCH  20  21
HETATM   21  C   UNL     1      42.195 -16.423   3.935  1.00  0.00     0.000 A 
HETATM   22  S   UNL     1      41.060 -16.949   2.754  1.00  0.00    -0.105 SA
HETATM   23  C   UNL     1      42.231 -16.923   1.512  1.00  0.00     0.050 A 
HETATM   24  C   UNL     1      43.458 -16.505   1.969  1.00  0.00     0.008 A 
HETATM   25  C   UNL     1      43.437 -16.212   3.364  1.00  0.00     0.017 A 
ENDBRANCH  20  21
ENDBRANCH   2  20
BRANCH   1  26
HETATM   26  C   UNL     1      43.592 -18.037   6.741  1.00  0.00     0.101 A 
HETATM   27  N   UNL     1      43.822 -18.495   5.464  1.00  0.00    -0.351 N 
HETATM   28  C   UNL     1      43.964 -19.866   5.441  1.00  0.00     0.043 A 
HETATM   29  H   UNL     1      43.864 -17.906   4.644  1.00  0.00     0.166 HD
HETATM   30  C   UNL     1      43.869 -20.284   6.758  1.00  0.00     0.033 A 
HETATM   31  C   UNL     1      43.666 -19.144   7.569  1.00  0.00     0.037 A 
BRANCH  28  32
HETATM   32  C   UNL     1      44.173 -20.633   4.209  1.00  0.00    -0.009 A 
HETATM   33  C   UNL     1      44.640 -21.956   4.240  1.00  0.00     0.013 A 
HETATM   34  C   UNL     1      44.826 -22.676   3.057  1.00  0.00     0.001 A 
HETATM   35  C   UNL     1      44.548 -22.085   1.826  1.00  0.00     0.000 A 
HETATM   36  C   UNL     1      44.084 -20.773   1.778  1.00  0.00     0.001 A 
HETATM   37  C   UNL     1      43.898 -20.054   2.962  1.00  0.00     0.013 A 
ENDBRANCH  28  32
ENDBRANCH   1  26
TORSDOF 9
ENDMDL
MODEL 2
REMARK VINA RESULT:      -9.1      2.839      4.368
REMARK  9 active torsions:
REMARK  status: ('A' for Active; 'I' for Inactive)
REMARK    1  A    between atoms: C_4  and  C_5 
REMARK    2  A    between atoms: C_8  and  C_9 
REMARK       I    between atoms: C_9  and  N_10 
REMARK    3  A    between atoms: N_10  and  C_11 
REMARK    4  A    between atoms: N_10  and  C_26 
REMARK    5  A    between atoms: C_11  and  C_12 
REMARK    6  A    between atoms: C_11  and  C_21 
REMARK       I    between atoms: C_12  and  N_13 
REMARK    7  A    between atoms: N_13  and  C_14 
REMARK    8  A    between atoms: C_14  and  C_15 
REMARK    9  A    between atoms: C_26  and  C_27 
ROOT
HETATM    1  C   UNL     1      41.048 -15.790   2.370  1.00  0.00     0.271 C 
HETATM    2  N   UNL     1      41.263 -14.859   3.390  1.00  0.00    -0.324 N 
HETATM    3  O   UNL     1      40.013 -15.785   1.705  1.00  0.00    -0.266 OA
ENDROOT
BRANCH   2   4
HETATM    4  C   UNL     1      40.159 -14.002   3.883  1.00  0.00     0.220 C 
BRANCH   4   5
HETATM    5  C   UNL     1      39.984 -13.905   5.423  1.00  0.00     0.245 C 
HETATM    6  N   UNL     1      39.574 -12.695   5.926  1.00  0.00    -0.357 N 
HETATM    7  H   UNL     1      39.558 -11.898   5.288  1.00  0.00     0.162 HD
HETATM    8  O   UNL     1      40.215 -14.871   6.153  1.00  0.00    -0.271 OA
BRANCH   6   9
HETATM    9  C   UNL     1      39.393 -12.447   7.341  1.00  0.00     0.154 C 
BRANCH   9  10
HETATM   10  C   UNL     1      39.622 -10.986   7.764  1.00  0.00     0.139 C 
HETATM   11  O   UNL     1      41.040 -10.790   7.959  1.00  0.00    -0.384 OA
HETATM   12  C   UNL     1      41.295 -10.583   9.355  1.00  0.00     0.168 C 
HETATM   13  C   UNL     1      40.031 -10.958  10.096  1.00  0.00     0.029 C 
HETATM   14  C   UNL     1      38.966 -10.611   9.087  1.00  0.00     0.035 C 
ENDBRANCH   9  10
ENDBRANCH   6   9
ENDBRANCH   4   5
BRANCH   4  15
HETATM   15  C   UNL     1      40.088 -12.636   3.217  1.00  0.00     0.014 A 
HETATM   16  S   UNL     1      38.715 -12.276   2.227  1.00  0.00    -0.104 SA
HETATM   17  C   UNL     1      39.281 -10.709   1.866  1.00  0.00     0.050 A 
HETATM   18  C   UNL     1      40.475 -10.439   2.489  1.00  0.00     0.008 A 
HETATM   19  C   UNL     1      40.932 -11.540   3.271  1.00  0.00     0.017 A 
ENDBRANCH   4  15
ENDBRANCH   2   4
BRANCH   2  20
HETATM   20  C   UNL     1      42.612 -14.317   3.604  1.00  0.00     0.173 C 
BRANCH  20  21
HETATM   21  C   UNL     1      43.230 -14.849   4.867  1.00  0.00     0.000 A 
HETATM   22  S   UNL     1      43.696 -13.732   6.091  1.00  0.00    -0.105 SA
HETATM   23  C   UNL     1      44.284 -14.975   7.103  1.00  0.00     0.050 A 
HETATM   24  C   UNL     1      44.115 -16.219   6.542  1.00  0.00     0.008 A 
HETATM   25  C   UNL     1      43.504 -16.147   5.257  1.00  0.00     0.017 A 
ENDBRANCH  20  21
ENDBRANCH   2  20
BRANCH   1  26
HETATM   26  C   UNL     1      42.089 -16.757   2.084  1.00  0.00     0.101 A 
HETATM   27  N   UNL     1      42.309 -17.935   2.762  1.00  0.00    -0.351 N 
HETATM   28  C   UNL     1      43.368 -18.633   2.222  1.00  0.00     0.043 A 
HETATM   29  H   UNL     1      41.776 -18.241   3.564  1.00  0.00     0.166 HD
HETATM   30  C   UNL     1      43.800 -17.894   1.134  1.00  0.00     0.033 A 
HETATM   31  C   UNL     1      42.987 -16.743   1.032  1.00  0.00     0.037 A 
BRANCH  28  32
HETATM   32  C   UNL     1      43.857 -19.903   2.770  1.00  0.00    -0.009 A 
HETATM   33  C   UNL     1      43.844 -21.082   2.010  1.00  0.00     0.013 A 
HETATM   34  C   UNL     1      44.323 -22.282   2.543  1.00  0.00     0.001 A 
HETATM   35  C   UNL     1      44.820 -22.320   3.843  1.00  0.00     0.000 A 
HETATM   36  C   UNL     1      44.840 -21.158   4.611  1.00  0.00     0.001 A 
HETATM   37  C   UNL     1      44.362 -19.959   4.077  1.00  0.00     0.013 A 
ENDBRANCH  28  32
ENDBRANCH   1  26
TORSDOF 9
ENDMDL
MODEL 3
REMARK VINA RESULT:      -9.0      3.008      8.635
REMARK  9 active torsions:
REMARK  status: ('A' for Active; 'I' for Inactive)
REMARK    1  A    between atoms: C_4  and  C_5 
REMARK    2  A    between atoms: C_8  and  C_9 
REMARK       I    between atoms: C_9  and  N_10 
REMARK    3  A    between atoms: N_10  and  C_11 
REMARK    4  A    between atoms: N_10  and  C_26 
REMARK    5  A    between atoms: C_11  and  C_12 
REMARK    6  A    between atoms: C_11  and  C_21 
REMARK       I    between atoms: C_12  and  N_13 
REMARK    7  A    between atoms: N_13  and  C_14 
REMARK    8  A    between atoms: C_14  and  C_15 
REMARK    9  A    between atoms: C_26  and  C_27 
ROOT
HETATM    1  C   UNL     1      42.704 -14.092   4.949  1.00  0.00     0.271 C 
HETATM    2  N   UNL     1      42.150 -15.375   4.953  1.00  0.00    -0.324 N 
HETATM    3  O   UNL     1      42.478 -13.298   4.037  1.00  0.00    -0.266 OA
ENDROOT
BRANCH   2   4
HETATM    4  C   UNL     1      41.488 -15.921   3.744  1.00  0.00     0.220 C 
BRANCH   4   5
HETATM    5  C   UNL     1      40.464 -14.997   3.032  1.00  0.00     0.245 C 
HETATM    6  N   UNL     1      40.721 -14.678   1.721  1.00  0.00    -0.357 N 
HETATM    7  H   UNL     1      41.635 -14.933   1.342  1.00  0.00     0.162 HD
HETATM    8  O   UNL     1      39.472 -14.567   3.625  1.00  0.00    -0.271 OA
BRANCH   6   9
HETATM    9  C   UNL     1      39.871 -13.808   0.937  1.00  0.00     0.154 C 
BRANCH   9  10
HETATM   10  C   UNL     1      40.492 -13.341  -0.390  1.00  0.00     0.139 C 
HETATM   11  O   UNL     1      39.480 -13.427  -1.418  1.00  0.00    -0.384 OA
HETATM   12  C   UNL     1      39.832 -14.470  -2.336  1.00  0.00     0.168 C 
HETATM   13  C   UNL     1      40.949 -15.263  -1.696  1.00  0.00     0.029 C 
HETATM   14  C   UNL     1      41.648 -14.209  -0.875  1.00  0.00     0.035 C 
ENDBRANCH   9  10
ENDBRANCH   6   9
ENDBRANCH   4   5
BRANCH   4  15
HETATM   15  C   UNL     1      42.441 -16.579   2.758  1.00  0.00     0.014 A 
HETATM   16  S   UNL     1      41.821 -17.814   1.716  1.00  0.00    -0.104 SA
HETATM   17  C   UNL     1      43.329 -18.047   0.956  1.00  0.00     0.050 A 
HETATM   18  C   UNL     1      44.290 -17.202   1.454  1.00  0.00     0.008 A 
HETATM   19  C   UNL     1      43.779 -16.354   2.479  1.00  0.00     0.017 A 
ENDBRANCH   4  15
ENDBRANCH   2   4
BRANCH   2  20
HETATM   20  C   UNL     1      41.716 -15.974   6.222  1.00  0.00     0.173 C 
BRANCH  20  21
HETATM   21  C   UNL     1      42.554 -17.168   6.588  1.00  0.00     0.000 A 
HETATM   22  S   UNL     1      43.355 -17.177   8.111  1.00  0.00    -0.105 SA
HETATM   23  C   UNL     1      44.057 -18.704   7.813  1.00  0.00     0.050 A 
HETATM   24  C   UNL     1      43.680 -19.216   6.594  1.00  0.00     0.008 A 
HETATM   25  C   UNL     1      42.810 -18.333   5.890  1.00  0.00     0.017 A 
ENDBRANCH  20  21
ENDBRANCH   2  20
BRANCH   1  26
HETATM   26  C   UNL     1      43.537 -13.694   6.066  1.00  0.00     0.101 A 
HETATM   27  N   UNL     1      43.169 -12.854   7.093  1.00  0.00    -0.351 N 
HETATM   28  C   UNL     1      44.191 -12.698   8.004  1.00  0.00     0.043 A 
HETATM   29  H   UNL     1      42.271 -12.394   7.161  1.00  0.00     0.166 HD
HETATM   30  C   UNL     1      45.224 -13.508   7.564  1.00  0.00     0.033 A 
HETATM   31  C   UNL     1      44.807 -14.148   6.375  1.00  0.00     0.037 A 
BRANCH  28  32
HETATM   32  C   UNL     1      44.097 -11.824   9.177  1.00  0.00    -0.009 A 
HETATM   33  C   UNL     1      42.995 -10.978   9.374  1.00  0.00     0.013 A 
HETATM   34  C   UNL     1      42.916 -10.157  10.503  1.00  0.00     0.001 A 
HETATM   35  C   UNL     1      43.937 -10.170  11.450  1.00  0.00     0.000 A 
HETATM   36  C   UNL     1      45.038 -11.004  11.270  1.00  0.00     0.001 A 
HETATM   37  C   UNL     1      45.116 -11.825  10.141  1.00  0.00     0.013 A 
ENDBRANCH  28  32
ENDBRANCH   1  26
TORSDOF 9
ENDMDL
MODEL 4
REMARK VINA RESULT:      -8.9      2.562      5.002
REMARK  9 active torsions:
REMARK  status: ('A' for Active; 'I' for Inactive)
REMARK    1  A    between atoms: C_4  and  C_5 
REMARK    2  A    between atoms: C_8  and  C_9 
REMARK       I    between atoms: C_9  and  N_10 
REMARK    3  A    between atoms: N_10  and  C_11 
REMARK    4  A    between atoms: N_10  and  C_26 
REMARK    5  A    between atoms: C_11  and  C_12 
REMARK    6  A    between atoms: C_11  and  C_21 
REMARK       I    between atoms: C_12  and  N_13 
REMARK    7  A    between atoms: N_13  and  C_14 
REMARK    8  A    between atoms: C_14  and  C_15 
REMARK    9  A    between atoms: C_26  and  C_27 
ROOT
HETATM    1  C   UNL     1      43.554 -15.549   6.392  1.00  0.00     0.271 C 
HETATM    2  N   UNL     1      42.616 -15.075   5.471  1.00  0.00    -0.324 N 
HETATM    3  O   UNL     1      44.201 -14.782   7.103  1.00  0.00    -0.266 OA
ENDROOT
BRANCH   2   4
HETATM    4  C   UNL     1      42.549 -13.635   5.128  1.00  0.00     0.220 C 
BRANCH   4   5
HETATM    5  C   UNL     1      42.763 -13.260   3.637  1.00  0.00     0.245 C 
HETATM    6  N   UNL     1      41.902 -12.335   3.099  1.00  0.00    -0.357 N 
HETATM    7  H   UNL     1      41.087 -12.068   3.654  1.00  0.00     0.162 HD
HETATM    8  O   UNL     1      43.661 -13.780   2.972  1.00  0.00    -0.271 OA
BRANCH   6   9
HETATM    9  C   UNL     1      41.963 -11.908   1.717  1.00  0.00     0.154 C 
BRANCH   9  10
HETATM   10  C   UNL     1      41.047 -12.698   0.768  1.00  0.00     0.139 C 
HETATM   11  O   UNL     1      41.851 -13.682   0.079  1.00  0.00    -0.384 OA
HETATM   12  C   UNL     1      41.941 -13.326  -1.307  1.00  0.00     0.168 C 
HETATM   13  C   UNL     1      41.424 -11.910  -1.433  1.00  0.00     0.029 C 
HETATM   14  C   UNL     1      40.403 -11.852  -0.325  1.00  0.00     0.035 C 
ENDBRANCH   9  10
ENDBRANCH   6   9
ENDBRANCH   4   5
BRANCH   4  15
HETATM   15  C   UNL     1      41.354 -12.909   5.729  1.00  0.00     0.014 A 
HETATM   16  S   UNL     1      41.645 -11.488   6.674  1.00  0.00    -0.104 SA
HETATM   17  C   UNL     1      39.985 -11.245   6.973  1.00  0.00     0.050 A 
HETATM   18  C   UNL     1      39.209 -12.199   6.363  1.00  0.00     0.008 A 
HETATM   19  C   UNL     1      39.992 -13.146   5.642  1.00  0.00     0.017 A 
ENDBRANCH   4  15
ENDBRANCH   2   4
BRANCH   2  20
HETATM   20  C   UNL     1      41.371 -15.823   5.252  1.00  0.00     0.173 C 
BRANCH  20  21
HETATM   21  C   UNL     1      41.261 -16.317   3.836  1.00  0.00     0.000 A 
HETATM   22  S   UNL     1      40.061 -15.626   2.814  1.00  0.00    -0.105 SA
HETATM   23  C   UNL     1      40.502 -16.625   1.501  1.00  0.00     0.050 A 
HETATM   24  C   UNL     1      41.552 -17.454   1.815  1.00  0.00     0.008 A 
HETATM   25  C   UNL     1      41.993 -17.274   3.158  1.00  0.00     0.017 A 
ENDBRANCH  20  21
ENDBRANCH   2  20
BRANCH   1  26
HETATM   26  C   UNL     1      43.736 -16.982   6.519  1.00  0.00     0.101 A 
HETATM   27  N   UNL     1      43.981 -17.862   5.490  1.00  0.00    -0.351 N 
HETATM   28  C   UNL     1      44.123 -19.152   5.957  1.00  0.00     0.043 A 
HETATM   29  H   UNL     1      44.033 -17.602   4.515  1.00  0.00     0.166 HD
HETATM   30  C   UNL     1      44.012 -19.076   7.335  1.00  0.00     0.033 A 
HETATM   31  C   UNL     1      43.800 -17.723   7.686  1.00  0.00     0.037 A 
BRANCH  28  32
HETATM   32  C   UNL     1      44.347 -20.305   5.079  1.00  0.00    -0.009 A 
HETATM   33  C   UNL     1      44.566 -21.589   5.599  1.00  0.00     0.013 A 
HETATM   34  C   UNL     1      44.769 -22.680   4.749  1.00  0.00     0.001 A 
HETATM   35  C   UNL     1      44.756 -22.502   3.367  1.00  0.00     0.000 A 
HETATM   36  C   UNL     1      44.539 -21.233   2.835  1.00  0.00     0.001 A 
HETATM   37  C   UNL     1      44.335 -20.144   3.686  1.00  0.00     0.013 A 
ENDBRANCH  28  32
ENDBRANCH   1  26
TORSDOF 9
ENDMDL
MODEL 5
REMARK VINA RESULT:      -8.9      3.761      6.500
REMARK  9 active torsions:
REMARK  status: ('A' for Active; 'I' for Inactive)
REMARK    1  A    between atoms: C_4  and  C_5 
REMARK    2  A    between atoms: C_8  and  C_9 
REMARK       I    between atoms: C_9  and  N_10 
REMARK    3  A    between atoms: N_10  and  C_11 
REMARK    4  A    between atoms: N_10  and  C_26 
REMARK    5  A    between atoms: C_11  and  C_12 
REMARK    6  A    between atoms: C_11  and  C_21 
REMARK       I    between atoms: C_12  and  N_13 
REMARK    7  A    between atoms: N_13  and  C_14 
REMARK    8  A    between atoms: C_14  and  C_15 
REMARK    9  A    between atoms: C_26  and  C_27 
ROOT
HETATM    1  C   UNL     1      43.137 -14.865   3.229  1.00  0.00     0.271 C 
HETATM    2  N   UNL     1      41.970 -14.202   2.841  1.00  0.00    -0.324 N 
HETATM    3  O   UNL     1      43.907 -14.378   4.055  1.00  0.00    -0.266 OA
ENDROOT
BRANCH   2   4
HETATM    4  C   UNL     1      41.744 -12.783   3.205  1.00  0.00     0.220 C 
BRANCH   4   5
HETATM    5  C   UNL     1      41.384 -11.813   2.047  1.00  0.00     0.245 C 
HETATM    6  N   UNL     1      42.275 -11.732   1.005  1.00  0.00    -0.357 N 
HETATM    7  H   UNL     1      43.182 -12.188   1.121  1.00  0.00     0.162 HD
HETATM    8  O   UNL     1      40.350 -11.144   2.075  1.00  0.00    -0.271 OA
BRANCH   6   9
HETATM    9  C   UNL     1      42.086 -10.853  -0.130  1.00  0.00     0.154 C 
BRANCH   9  10
HETATM   10  C   UNL     1      43.101 -11.059  -1.267  1.00  0.00     0.139 C 
HETATM   11  O   UNL     1      43.027  -9.918  -2.151  1.00  0.00    -0.384 OA
HETATM   12  C   UNL     1      42.473 -10.334  -3.406  1.00  0.00     0.168 C 
HETATM   13  C   UNL     1      41.905 -11.720  -3.200  1.00  0.00     0.029 C 
HETATM   14  C   UNL     1      42.820 -12.277  -2.139  1.00  0.00     0.035 C 
ENDBRANCH   9  10
ENDBRANCH   6   9
ENDBRANCH   4   5
BRANCH   4  15
HETATM   15  C   UNL     1      40.837 -12.588   4.411  1.00  0.00     0.014 A 
HETATM   16  S   UNL     1      41.340 -11.486   5.648  1.00  0.00    -0.104 SA
HETATM   17  C   UNL     1      39.940 -11.762   6.579  1.00  0.00     0.050 A 
HETATM   18  C   UNL     1      39.087 -12.652   5.973  1.00  0.00     0.008 A 
HETATM   19  C   UNL     1      39.597 -13.118   4.726  1.00  0.00     0.017 A 
ENDBRANCH   4  15
ENDBRANCH   2   4
BRANCH   2  20
HETATM   20  C   UNL     1      40.749 -14.976   2.578  1.00  0.00     0.173 C 
BRANCH  20  21
HETATM   21  C   UNL     1      40.146 -14.625   1.246  1.00  0.00     0.000 A 
HETATM   22  S   UNL     1      38.498 -14.131   1.192  1.00  0.00    -0.105 SA
HETATM   23  C   UNL     1      38.534 -13.948  -0.506  1.00  0.00     0.050 A 
HETATM   24  C   UNL     1      39.773 -14.232  -1.029  1.00  0.00     0.008 A 
HETATM   25  C   UNL     1      40.703 -14.618  -0.020  1.00  0.00     0.017 A 
ENDBRANCH  20  21
ENDBRANCH   2  20
BRANCH   1  26
HETATM   26  C   UNL     1      43.416 -16.168   2.658  1.00  0.00     0.101 A 
HETATM   27  N   UNL     1      43.622 -17.333   3.361  1.00  0.00    -0.351 N 
HETATM   28  C   UNL     1      43.843 -18.397   2.513  1.00  0.00     0.043 A 
HETATM   29  H   UNL     1      43.629 -17.399   4.369  1.00  0.00     0.166 HD
HETATM   30  C   UNL     1      43.723 -17.896   1.228  1.00  0.00     0.033 A 
HETATM   31  C   UNL     1      43.429 -16.516   1.319  1.00  0.00     0.037 A 
BRANCH  28  32
HETATM   32  C   UNL     1      44.136 -19.755   2.984  1.00  0.00    -0.009 A 
HETATM   33  C   UNL     1      44.014 -20.867   2.138  1.00  0.00     0.013 A 
HETATM   34  C   UNL     1      44.306 -22.153   2.600  1.00  0.00     0.001 A 
HETATM   35  C   UNL     1      44.724 -22.346   3.915  1.00  0.00     0.000 A 
HETATM   36  C   UNL     1      44.851 -21.252   4.768  1.00  0.00     0.001 A 
HETATM   37  C   UNL     1      44.559 -19.966   4.305  1.00  0.00     0.013 A 
ENDBRANCH  28  32
ENDBRANCH   1  26
TORSDOF 9
ENDMDL
MODEL 6
REMARK VINA RESULT:      -8.9      1.608      1.996
REMARK  9 active torsions:
REMARK  status: ('A' for Active; 'I' for Inactive)
REMARK    1  A    between atoms: C_4  and  C_5 
REMARK    2  A    between atoms: C_8  and  C_9 
REMARK       I    between atoms: C_9  and  N_10 
REMARK    3  A    between atoms: N_10  and  C_11 
REMARK    4  A    between atoms: N_10  and  C_26 
REMARK    5  A    between atoms: C_11  and  C_12 
REMARK    6  A    between atoms: C_11  and  C_21 
REMARK       I    between atoms: C_12  and  N_13 
REMARK    7  A    between atoms: N_13  and  C_14 
REMARK    8  A    between atoms: C_14  and  C_15 
REMARK    9  A    between atoms: C_26  and  C_27 
ROOT
HETATM    1  C   UNL     1      42.106 -15.873   5.847  1.00  0.00     0.271 C 
HETATM    2  N   UNL     1      42.317 -14.718   5.090  1.00  0.00    -0.324 N 
HETATM    3  O   UNL     1      41.083 -16.027   6.512  1.00  0.00    -0.266 OA
ENDROOT
BRANCH   2   4
HETATM    4  C   UNL     1      41.449 -13.529   5.260  1.00  0.00     0.220 C 
BRANCH   4   5
HETATM    5  C   UNL     1      41.864 -12.512   6.358  1.00  0.00     0.245 C 
HETATM    6  N   UNL     1      43.048 -12.752   7.011  1.00  0.00    -0.357 N 
HETATM    7  H   UNL     1      43.504 -13.652   6.851  1.00  0.00     0.162 HD
HETATM    8  O   UNL     1      41.153 -11.543   6.631  1.00  0.00    -0.271 OA
BRANCH   6   9
HETATM    9  C   UNL     1      43.551 -11.906   8.074  1.00  0.00     0.154 C 
BRANCH   9  10
HETATM   10  C   UNL     1      44.800 -12.454   8.783  1.00  0.00     0.139 C 
HETATM   11  O   UNL     1      44.379 -13.099  10.006  1.00  0.00    -0.384 OA
HETATM   12  C   UNL     1      44.843 -12.329  11.124  1.00  0.00     0.168 C 
HETATM   13  C   UNL     1      45.315 -11.000  10.579  1.00  0.00     0.029 C 
HETATM   14  C   UNL     1      45.798 -11.382   9.203  1.00  0.00     0.035 C 
ENDBRANCH   9  10
ENDBRANCH   6   9
ENDBRANCH   4   5
BRANCH   4  15
HETATM   15  C   UNL     1      41.081 -12.837   3.956  1.00  0.00     0.014 A 
HETATM   16  S   UNL     1      39.435 -12.909   3.424  1.00  0.00    -0.104 SA
HETATM   17  C   UNL     1      39.758 -11.985   2.029  1.00  0.00     0.050 A 
HETATM   18  C   UNL     1      41.076 -11.604   1.959  1.00  0.00     0.008 A 
HETATM   19  C   UNL     1      41.831 -12.084   3.069  1.00  0.00     0.017 A 
ENDBRANCH   4  15
ENDBRANCH   2   4
BRANCH   2  20
HETATM   20  C   UNL     1      42.983 -14.817   3.784  1.00  0.00     0.173 C 
BRANCH  20  21
HETATM   21  C   UNL     1      42.293 -15.804   2.884  1.00  0.00     0.000 A 
HETATM   22  S   UNL     1      43.236 -16.669   1.733  1.00  0.00    -0.105 SA
HETATM   23  C   UNL     1      41.870 -17.495   1.127  1.00  0.00     0.050 A 
HETATM   24  C   UNL     1      40.719 -17.145   1.792  1.00  0.00     0.008 A 
HETATM   25  C   UNL     1      40.963 -16.174   2.807  1.00  0.00     0.017 A 
ENDBRANCH  20  21
ENDBRANCH   2  20
BRANCH   1  26
HETATM   26  C   UNL     1      43.112 -16.916   5.813  1.00  0.00     0.101 A 
HETATM   27  N   UNL     1      43.059 -18.070   5.064  1.00  0.00    -0.351 N 
HETATM   28  C   UNL     1      44.188 -18.840   5.248  1.00  0.00     0.043 A 
HETATM   29  H   UNL     1      42.284 -18.331   4.470  1.00  0.00     0.166 HD
HETATM   30  C   UNL     1      45.006 -18.123   6.104  1.00  0.00     0.033 A 
HETATM   31  C   UNL     1      44.349 -16.914   6.433  1.00  0.00     0.037 A 
BRANCH  28  32
HETATM   32  C   UNL     1      44.383 -20.146   4.611  1.00  0.00    -0.009 A 
HETATM   33  C   UNL     1      44.642 -21.299   5.367  1.00  0.00     0.013 A 
HETATM   34  C   UNL     1      44.818 -22.538   4.745  1.00  0.00     0.001 A 
HETATM   35  C   UNL     1      44.737 -22.642   3.358  1.00  0.00     0.000 A 
HETATM   36  C   UNL     1      44.480 -21.507   2.593  1.00  0.00     0.001 A 
HETATM   37  C   UNL     1      44.305 -20.268   3.216  1.00  0.00     0.013 A 
ENDBRANCH  28  32
ENDBRANCH   1  26
TORSDOF 9
ENDMDL
MODEL 7
REMARK VINA RESULT:      -8.5      2.401      8.317
REMARK  9 active torsions:
REMARK  status: ('A' for Active; 'I' for Inactive)
REMARK    1  A    between atoms: C_4  and  C_5 
REMARK    2  A    between atoms: C_8  and  C_9 
REMARK       I    between atoms: C_9  and  N_10 
REMARK    3  A    between atoms: N_10  and  C_11 
REMARK    4  A    between atoms: N_10  and  C_26 
REMARK    5  A    between atoms: C_11  and  C_12 
REMARK    6  A    between atoms: C_11  and  C_21 
REMARK       I    between atoms: C_12  and  N_13 
REMARK    7  A    between atoms: N_13  and  C_14 
REMARK    8  A    between atoms: C_14  and  C_15 
REMARK    9  A    between atoms: C_26  and  C_27 
ROOT
HETATM    1  C   UNL     1      43.536 -14.076   4.859  1.00  0.00     0.271 C 
HETATM    2  N   UNL     1      42.965 -15.350   4.805  1.00  0.00    -0.324 N 
HETATM    3  O   UNL     1      43.533 -13.329   3.883  1.00  0.00    -0.266 OA
ENDROOT
BRANCH   2   4
HETATM    4  C   UNL     1      42.568 -15.950   3.509  1.00  0.00     0.220 C 
BRANCH   4   5
HETATM    5  C   UNL     1      42.375 -17.490   3.482  1.00  0.00     0.245 C 
HETATM    6  N   UNL     1      43.350 -18.228   2.854  1.00  0.00    -0.357 N 
HETATM    7  H   UNL     1      44.054 -17.720   2.315  1.00  0.00     0.162 HD
HETATM    8  O   UNL     1      41.385 -18.018   3.993  1.00  0.00    -0.271 OA
BRANCH   6   9
HETATM    9  C   UNL     1      43.293 -19.669   2.728  1.00  0.00     0.154 C 
BRANCH   9  10
HETATM   10  C   UNL     1      44.660 -20.368   2.819  1.00  0.00     0.139 C 
HETATM   11  O   UNL     1      44.493 -21.742   2.403  1.00  0.00    -0.384 OA
HETATM   12  C   UNL     1      44.674 -22.599   3.538  1.00  0.00     0.168 C 
HETATM   13  C   UNL     1      44.659 -21.717   4.765  1.00  0.00     0.029 C 
HETATM   14  C   UNL     1      45.233 -20.430   4.230  1.00  0.00     0.035 C 
ENDBRANCH   9  10
ENDBRANCH   6   9
ENDBRANCH   4   5
BRANCH   4  15
HETATM   15  C   UNL     1      41.427 -15.223   2.812  1.00  0.00     0.014 A 
HETATM   16  S   UNL     1      41.564 -14.917   1.113  1.00  0.00    -0.104 SA
HETATM   17  C   UNL     1      40.043 -14.151   1.044  1.00  0.00     0.050 A 
HETATM   18  C   UNL     1      39.420 -14.135   2.268  1.00  0.00     0.008 A 
HETATM   19  C   UNL     1      40.209 -14.758   3.279  1.00  0.00     0.017 A 
ENDBRANCH   4  15
ENDBRANCH   2   4
BRANCH   2  20
HETATM   20  C   UNL     1      42.250 -15.876   5.976  1.00  0.00     0.173 C 
BRANCH  20  21
HETATM   21  C   UNL     1      43.109 -16.819   6.772  1.00  0.00     0.000 A 
HETATM   22  S   UNL     1      44.556 -17.418   6.058  1.00  0.00    -0.105 SA
HETATM   23  C   UNL     1      44.931 -18.358   7.434  1.00  0.00     0.050 A 
HETATM   24  C   UNL     1      43.994 -18.211   8.429  1.00  0.00     0.008 A 
HETATM   25  C   UNL     1      42.947 -17.321   8.050  1.00  0.00     0.017 A 
ENDBRANCH  20  21
ENDBRANCH   2  20
BRANCH   1  26
HETATM   26  C   UNL     1      44.116 -13.631   6.111  1.00  0.00     0.101 A 
HETATM   27  N   UNL     1      43.470 -12.917   7.094  1.00  0.00    -0.351 N 
HETATM   28  C   UNL     1      44.303 -12.671   8.165  1.00  0.00     0.043 A 
HETATM   29  H   UNL     1      42.513 -12.597   7.034  1.00  0.00     0.166 HD
HETATM   30  C   UNL     1      45.503 -13.295   7.868  1.00  0.00     0.033 A 
HETATM   31  C   UNL     1      45.377 -13.916   6.604  1.00  0.00     0.037 A 
BRANCH  28  32
HETATM   32  C   UNL     1      43.896 -11.892   9.339  1.00  0.00    -0.009 A 
HETATM   33  C   UNL     1      43.009 -10.811   9.229  1.00  0.00     0.013 A 
HETATM   34  C   UNL     1      42.624 -10.084  10.359  1.00  0.00     0.001 A 
HETATM   35  C   UNL     1      43.121 -10.427  11.614  1.00  0.00     0.000 A 
HETATM   36  C   UNL     1      44.002 -11.498  11.741  1.00  0.00     0.001 A 
HETATM   37  C   UNL     1      44.386 -12.225  10.610  1.00  0.00     0.013 A 
ENDBRANCH  28  32
ENDBRANCH   1  26
TORSDOF 9
ENDMDL
MODEL 8
REMARK VINA RESULT:      -8.5      2.661      8.450
REMARK  9 active torsions:
REMARK  status: ('A' for Active; 'I' for Inactive)
REMARK    1  A    between atoms: C_4  and  C_5 
REMARK    2  A    between atoms: C_8  and  C_9 
REMARK       I    between atoms: C_9  and  N_10 
REMARK    3  A    between atoms: N_10  and  C_11 
REMARK    4  A    between atoms: N_10  and  C_26 
REMARK    5  A    between atoms: C_11  and  C_12 
REMARK    6  A    between atoms: C_11  and  C_21 
REMARK       I    between atoms: C_12  and  N_13 
REMARK    7  A    between atoms: N_13  and  C_14 
REMARK    8  A    between atoms: C_14  and  C_15 
REMARK    9  A    between atoms: C_26  and  C_27 
ROOT
HETATM    1  C   UNL     1      41.168 -11.826   4.839  1.00  0.00     0.271 C 
HETATM    2  N   UNL     1      41.477 -13.150   4.520  1.00  0.00    -0.324 N 
HETATM    3  O   UNL     1      40.987 -10.980   3.965  1.00  0.00    -0.266 OA
ENDROOT
BRANCH   2   4
HETATM    4  C   UNL     1      41.854 -13.531   3.138  1.00  0.00     0.220 C 
BRANCH   4   5
HETATM    5  C   UNL     1      42.969 -14.600   2.987  1.00  0.00     0.245 C 
HETATM    6  N   UNL     1      42.564 -15.892   2.751  1.00  0.00    -0.357 N 
HETATM    7  H   UNL     1      41.569 -16.100   2.842  1.00  0.00     0.162 HD
HETATM    8  O   UNL     1      44.160 -14.297   3.085  1.00  0.00    -0.271 OA
BRANCH   6   9
HETATM    9  C   UNL     1      43.489 -16.997   2.614  1.00  0.00     0.154 C 
BRANCH   9  10
HETATM   10  C   UNL     1      42.959 -18.337   3.153  1.00  0.00     0.139 C 
HETATM   11  O   UNL     1      43.737 -18.695   4.317  1.00  0.00    -0.384 OA
HETATM   12  C   UNL     1      44.536 -19.845   4.009  1.00  0.00     0.168 C 
HETATM   13  C   UNL     1      44.480 -20.034   2.510  1.00  0.00     0.029 C 
HETATM   14  C   UNL     1      43.108 -19.501   2.181  1.00  0.00     0.035 C 
ENDBRANCH   9  10
ENDBRANCH   6   9
ENDBRANCH   4   5
BRANCH   4  15
HETATM   15  C   UNL     1      40.668 -13.816   2.227  1.00  0.00     0.014 A 
HETATM   16  S   UNL     1      40.861 -13.567   0.525  1.00  0.00    -0.104 SA
HETATM   17  C   UNL     1      39.264 -14.060   0.188  1.00  0.00     0.050 A 
HETATM   18  C   UNL     1      38.589 -14.427   1.326  1.00  0.00     0.008 A 
HETATM   19  C   UNL     1      39.397 -14.297   2.493  1.00  0.00     0.017 A 
ENDBRANCH   4  15
ENDBRANCH   2   4
BRANCH   2  20
HETATM   20  C   UNL     1      40.924 -14.241   5.335  1.00  0.00     0.173 C 
BRANCH  20  21
HETATM   21  C   UNL     1      42.004 -14.991   6.063  1.00  0.00     0.000 A 
HETATM   22  S   UNL     1      41.725 -16.636   6.485  1.00  0.00    -0.105 SA
HETATM   23  C   UNL     1      43.251 -16.777   7.238  1.00  0.00     0.050 A 
HETATM   24  C   UNL     1      43.975 -15.612   7.158  1.00  0.00     0.008 A 
HETATM   25  C   UNL     1      43.259 -14.584   6.477  1.00  0.00     0.017 A 
ENDBRANCH  20  21
ENDBRANCH   2  20
BRANCH   1  26
HETATM   26  C   UNL     1      41.034 -11.464   6.236  1.00  0.00     0.101 A 
HETATM   27  N   UNL     1      42.065 -11.290   7.131  1.00  0.00    -0.351 N 
HETATM   28  C   UNL     1      41.594 -10.929   8.375  1.00  0.00     0.043 A 
HETATM   29  H   UNL     1      43.042 -11.427   6.912  1.00  0.00     0.166 HD
HETATM   30  C   UNL     1      40.219 -10.821   8.249  1.00  0.00     0.033 A 
HETATM   31  C   UNL     1      39.874 -11.127   6.912  1.00  0.00     0.037 A 
BRANCH  28  32
HETATM   32  C   UNL     1      42.465 -10.720   9.536  1.00  0.00    -0.009 A 
HETATM   33  C   UNL     1      43.773 -11.225   9.570  1.00  0.00     0.013 A 
HETATM   34  C   UNL     1      44.594 -11.010  10.681  1.00  0.00     0.001 A 
HETATM   35  C   UNL     1      44.118 -10.288  11.773  1.00  0.00     0.000 A 
HETATM   36  C   UNL     1      42.822  -9.780  11.755  1.00  0.00     0.001 A 
HETATM   37  C   UNL     1      42.002  -9.995  10.644  1.00  0.00     0.013 A 
ENDBRANCH  28  32
ENDBRANCH   1  26
TORSDOF 9
ENDMDL
MODEL 9
REMARK VINA RESULT:      -8.4      3.280      6.175
REMARK  9 active torsions:
REMARK  status: ('A' for Active; 'I' for Inactive)
REMARK    1  A    between atoms: C_4  and  C_5 
REMARK    2  A    between atoms: C_8  and  C_9 
REMARK       I    between atoms: C_9  and  N_10 
REMARK    3  A    between atoms: N_10  and  C_11 
REMARK    4  A    between atoms: N_10  and  C_26 
REMARK    5  A    between atoms: C_11  and  C_12 
REMARK    6  A    between atoms: C_11  and  C_21 
REMARK       I    between atoms: C_12  and  N_13 
REMARK    7  A    between atoms: N_13  and  C_14 
REMARK    8  A    between atoms: C_14  and  C_15 
REMARK    9  A    between atoms: C_26  and  C_27 
ROOT
HETATM    1  C   UNL     1      42.168 -14.103   3.017  1.00  0.00     0.271 C 
HETATM    2  N   UNL     1      41.331 -13.619   4.025  1.00  0.00    -0.324 N 
HETATM    3  O   UNL     1      43.010 -13.384   2.481  1.00  0.00    -0.266 OA
ENDROOT
BRANCH   2   4
HETATM    4  C   UNL     1      41.241 -12.167   4.307  1.00  0.00     0.220 C 
BRANCH   4   5
HETATM    5  C   UNL     1      40.601 -11.279   3.207  1.00  0.00     0.245 C 
HETATM    6  N   UNL     1      41.454 -10.711   2.292  1.00  0.00    -0.357 N 
HETATM    7  H   UNL     1      42.456 -10.776   2.476  1.00  0.00     0.162 HD
HETATM    8  O   UNL     1      39.383 -11.090   3.169  1.00  0.00    -0.271 OA
BRANCH   6   9
HETATM    9  C   UNL     1      41.004  -9.840   1.227  1.00  0.00     0.154 C 
BRANCH   9  10
HETATM   10  C   UNL     1      40.805 -10.544  -0.126  1.00  0.00     0.139 C 
HETATM   11  O   UNL     1      41.444 -11.838  -0.060  1.00  0.00    -0.384 OA
HETATM   12  C   UNL     1      42.585 -11.842  -0.929  1.00  0.00     0.168 C 
HETATM   13  C   UNL     1      42.841 -10.406  -1.327  1.00  0.00     0.029 C 
HETATM   14  C   UNL     1      41.451  -9.823  -1.304  1.00  0.00     0.035 C 
ENDBRANCH   9  10
ENDBRANCH   6   9
ENDBRANCH   4   5
BRANCH   4  15
HETATM   15  C   UNL     1      40.700 -11.835   5.690  1.00  0.00     0.014 A 
HETATM   16  S   UNL     1      41.682 -10.881   6.750  1.00  0.00    -0.104 SA
HETATM   17  C   UNL     1      40.516 -10.910   7.992  1.00  0.00     0.050 A 
HETATM   18  C   UNL     1      39.391 -11.607   7.624  1.00  0.00     0.008 A 
HETATM   19  C   UNL     1      39.493 -12.129   6.302  1.00  0.00     0.017 A 
ENDBRANCH   4  15
ENDBRANCH   2   4
BRANCH   2  20
HETATM   20  C   UNL     1      40.970 -14.493   5.150  1.00  0.00     0.173 C 
BRANCH  20  21
HETATM   21  C   UNL     1      42.185 -14.951   5.909  1.00  0.00     0.000 A 
HETATM   22  S   UNL     1      42.187 -16.534   6.582  1.00  0.00    -0.105 SA
HETATM   23  C   UNL     1      43.747 -16.327   7.247  1.00  0.00     0.050 A 
HETATM   24  C   UNL     1      44.273 -15.092   6.951  1.00  0.00     0.008 A 
HETATM   25  C   UNL     1      43.375 -14.301   6.176  1.00  0.00     0.017 A 
ENDBRANCH  20  21
ENDBRANCH   2  20
BRANCH   1  26
HETATM   26  C   UNL     1      42.048 -15.494   2.626  1.00  0.00     0.101 A 
HETATM   27  N   UNL     1      42.892 -16.516   2.997  1.00  0.00    -0.351 N 
HETATM   28  C   UNL     1      42.484 -17.721   2.468  1.00  0.00     0.043 A 
HETATM   29  H   UNL     1      43.717 -16.397   3.570  1.00  0.00     0.166 HD
HETATM   30  C   UNL     1      41.312 -17.460   1.778  1.00  0.00     0.033 A 
HETATM   31  C   UNL     1      41.026 -16.081   1.901  1.00  0.00     0.037 A 
BRANCH  28  32
HETATM   32  C   UNL     1      43.218 -18.976   2.661  1.00  0.00    -0.009 A 
HETATM   33  C   UNL     1      43.121 -20.031   1.743  1.00  0.00     0.013 A 
HETATM   34  C   UNL     1      43.835 -21.217   1.937  1.00  0.00     0.001 A 
HETATM   35  C   UNL     1      44.656 -21.364   3.052  1.00  0.00     0.000 A 
HETATM   36  C   UNL     1      44.765 -20.326   3.973  1.00  0.00     0.001 A 
HETATM   37  C   UNL     1      44.051 -19.140   3.778  1.00  0.00     0.013 A 
ENDBRANCH  28  32
ENDBRANCH   1  26
TORSDOF 9
ENDMDL
MODEL 10
REMARK VINA RESULT:      -8.4      2.990      4.074
REMARK  9 active torsions:
REMARK  status: ('A' for Active; 'I' for Inactive)
REMARK    1  A    between atoms: C_4  and  C_5 
REMARK    2  A    between atoms: C_8  and  C_9 
REMARK       I    between atoms: C_9  and  N_10 
REMARK    3  A    between atoms: N_10  and  C_11 
REMARK    4  A    between atoms: N_10  and  C_26 
REMARK    5  A    between atoms: C_11  and  C_12 
REMARK    6  A    between atoms: C_11  and  C_21 
REMARK       I    between atoms: C_12  and  N_13 
REMARK    7  A    between atoms: N_13  and  C_14 
REMARK    8  A    between atoms: C_14  and  C_15 
REMARK    9  A    between atoms: C_26  and  C_27 
ROOT
HETATM    1  C   UNL     1      41.964 -15.036   3.709  1.00  0.00     0.271 C 
HETATM    2  N   UNL     1      40.800 -14.497   3.155  1.00  0.00    -0.324 N 
HETATM    3  O   UNL     1      42.402 -14.644   4.790  1.00  0.00    -0.266 OA
ENDROOT
BRANCH   2   4
HETATM    4  C   UNL     1      40.195 -13.263   3.709  1.00  0.00     0.220 C 
BRANCH   4   5
HETATM    5  C   UNL     1      40.485 -12.952   5.202  1.00  0.00     0.245 C 
HETATM    6  N   UNL     1      41.486 -12.050   5.467  1.00  0.00    -0.357 N 
HETATM    7  H   UNL     1      42.077 -11.757   4.687  1.00  0.00     0.162 HD
HETATM    8  O   UNL     1      39.848 -13.502   6.103  1.00  0.00    -0.271 OA
BRANCH   6   9
HETATM    9  C   UNL     1      41.885 -11.682   6.809  1.00  0.00     0.154 C 
BRANCH   9  10
HETATM   10  C   UNL     1      41.338 -10.326   7.284  1.00  0.00     0.139 C 
HETATM   11  O   UNL     1      42.300  -9.743   8.191  1.00  0.00    -0.384 OA
HETATM   12  C   UNL     1      41.747  -9.729   9.514  1.00  0.00     0.168 C 
HETATM   13  C   UNL     1      40.514 -10.603   9.487  1.00  0.00     0.029 C 
HETATM   14  C   UNL     1      40.035 -10.421   8.069  1.00  0.00     0.035 C 
ENDBRANCH   9  10
ENDBRANCH   6   9
ENDBRANCH   4   5
BRANCH   4  15
HETATM   15  C   UNL     1      40.374 -12.034   2.829  1.00  0.00     0.014 A 
HETATM   16  S   UNL     1      39.234 -10.741   2.982  1.00  0.00    -0.104 SA
HETATM   17  C   UNL     1      40.018  -9.798   1.799  1.00  0.00     0.050 A 
HETATM   18  C   UNL     1      41.133 -10.425   1.299  1.00  0.00     0.008 A 
HETATM   19  C   UNL     1      41.343 -11.702   1.898  1.00  0.00     0.017 A 
ENDBRANCH   4  15
ENDBRANCH   2   4
BRANCH   2  20
HETATM   20  C   UNL     1      39.869 -15.372   2.429  1.00  0.00     0.173 C 
BRANCH  20  21
HETATM   21  C   UNL     1      39.462 -14.776   1.110  1.00  0.00     0.000 A 
HETATM   22  S   UNL     1      37.845 -14.217   0.922  1.00  0.00    -0.105 SA
HETATM   23  C   UNL     1      38.119 -13.748  -0.697  1.00  0.00     0.050 A 
HETATM   24  C   UNL     1      39.415 -13.987  -1.090  1.00  0.00     0.008 A 
HETATM   25  C   UNL     1      40.190 -14.575  -0.048  1.00  0.00     0.017 A 
ENDBRANCH  20  21
ENDBRANCH   2  20
BRANCH   1  26
HETATM   26  C   UNL     1      42.641 -16.101   2.996  1.00  0.00     0.101 A 
HETATM   27  N   UNL     1      42.816 -17.391   3.441  1.00  0.00    -0.351 N 
HETATM   28  C   UNL     1      43.486 -18.156   2.511  1.00  0.00     0.043 A 
HETATM   29  H   UNL     1      42.510 -17.731   4.343  1.00  0.00     0.166 HD
HETATM   30  C   UNL     1      43.698 -17.333   1.418  1.00  0.00     0.033 A 
HETATM   31  C   UNL     1      43.147 -16.064   1.709  1.00  0.00     0.037 A 
BRANCH  28  32
HETATM   32  C   UNL     1      43.851 -19.559   2.735  1.00  0.00    -0.009 A 
HETATM   33  C   UNL     1      44.454 -19.977   3.931  1.00  0.00     0.013 A 
HETATM   34  C   UNL     1      44.788 -21.319   4.132  1.00  0.00     0.001 A 
HETATM   35  C   UNL     1      44.524 -22.262   3.142  1.00  0.00     0.000 A 
HETATM   36  C   UNL     1      43.926 -21.864   1.949  1.00  0.00     0.001 A 
HETATM   37  C   UNL     1      43.592 -20.521   1.748  1.00  0.00     0.013 A 
ENDBRANCH  28  32
ENDBRANCH   1  26
TORSDOF 9
ENDMDL
