MODEL 1
REMARK VINA RESULT:      -8.2      0.000      0.000
REMARK  6 active torsions:
REMARK  status: ('A' for Active; 'I' for Inactive)
REMARK    1  A    between atoms: C_2  and  O_3 
REMARK    2  A    between atoms: O_3  and  C_4 
REMARK    3  A    between atoms: C_4  and  C_5 
REMARK    4  A    between atoms: C_6  and  O_7 
REMARK    5  A    between atoms: C_12  and  O_13 
REMARK    6  A    between atoms: C_17  and  C_18 
ROOT
HETATM    1  C   UNL     1      42.704 -16.525   4.757  1.00  0.00     0.133 C 
HETATM    2  C   UNL     1      41.141 -16.455   4.802  1.00  0.00     0.073 C 
HETATM    3  C   UNL     1      40.617 -15.747   6.063  1.00  0.00     0.047 C 
HETATM    4  C   UNL     1      40.501 -15.797   3.547  1.00  0.00     0.097 C 
HETATM    5  C   UNL     1      41.219 -16.221   2.320  1.00  0.00     0.042 A 
HETATM    6  C   UNL     1      42.481 -16.768   2.237  1.00  0.00     0.030 A 
HETATM    7  C   UNL     1      42.665 -16.943   0.857  1.00  0.00     0.190 A 
HETATM    8  N   UNL     1      41.632 -16.543   0.125  1.00  0.00    -0.149 NA
HETATM    9  N   UNL     1      40.746 -16.120   1.044  1.00  0.00    -0.279 N 
HETATM   10  H   UNL     1      39.849 -15.772   0.723  1.00  0.00     0.189 HD
HETATM   11  C   UNL     1      43.348 -17.012   3.425  1.00  0.00     0.074 C 
ENDROOT
BRANCH  11  12
HETATM   12  C   UNL     1      43.709 -18.494   3.424  1.00  0.00    -0.048 A 
HETATM   13  C   UNL     1      44.439 -19.013   4.511  1.00  0.00     0.009 A 
HETATM   14  C   UNL     1      44.792 -20.365   4.557  1.00  0.00     0.024 A 
HETATM   15  C   UNL     1      44.412 -21.216   3.525  1.00  0.00     0.034 A 
HETATM   16 CL   UNL     1      44.847 -22.879   3.583  1.00  0.00    -0.084 Cl
HETATM   17  C   UNL     1      43.682 -20.728   2.446  1.00  0.00     0.024 A 
HETATM   18  C   UNL     1      43.332 -19.376   2.397  1.00  0.00     0.009 A 
ENDBRANCH  11  12
BRANCH   1  19
HETATM   19  C   UNL     1      43.314 -15.189   5.136  1.00  0.00     0.267 C 
HETATM   20  O   UNL     1      43.442 -14.268   4.341  1.00  0.00    -0.265 OA
BRANCH  19  21
HETATM   21  O   UNL     1      43.715 -15.158   6.433  1.00  0.00    -0.321 OA
BRANCH  21  22
HETATM   22  C   UNL     1      44.290 -16.368   6.949  1.00  0.00     0.174 C 
HETATM   23  C   UNL     1      43.470 -16.886   8.117  1.00  0.00     0.034 C 
ENDBRANCH  21  22
ENDBRANCH  19  21
ENDBRANCH   1  19
BRANCH   2  24
HETATM   24  O   UNL     1      40.626 -17.801   4.886  1.00  0.00    -0.389 OA
HETATM   25  H   UNL     1      39.734 -17.816   4.496  1.00  0.00     0.210 HD
ENDBRANCH   2  24
BRANCH   7  26
HETATM   26  O   UNL     1      43.704 -17.451   0.193  1.00  0.00    -0.343 OA
HETATM   27  H   UNL     1      43.716 -17.092  -0.707  1.00  0.00     0.219 HD
ENDBRANCH   7  26
TORSDOF 6
ENDMDL
MODEL 2
REMARK VINA RESULT:      -8.1      1.137      1.303
REMARK  6 active torsions:
REMARK  status: ('A' for Active; 'I' for Inactive)
REMARK    1  A    between atoms: C_2  and  O_3 
REMARK    2  A    between atoms: O_3  and  C_4 
REMARK    3  A    between atoms: C_4  and  C_5 
REMARK    4  A    between atoms: C_6  and  O_7 
REMARK    5  A    between atoms: C_12  and  O_13 
REMARK    6  A    between atoms: C_17  and  C_18 
ROOT
HETATM    1  C   UNL     1      42.590 -15.582   4.654  1.00  0.00     0.133 C 
HETATM    2  C   UNL     1      41.026 -15.618   4.700  1.00  0.00     0.073 C 
HETATM    3  C   UNL     1      40.444 -14.662   5.755  1.00  0.00     0.047 C 
HETATM    4  C   UNL     1      40.345 -15.338   3.331  1.00  0.00     0.097 C 
HETATM    5  C   UNL     1      41.100 -15.997   2.236  1.00  0.00     0.042 A 
HETATM    6  C   UNL     1      42.399 -16.454   2.274  1.00  0.00     0.030 A 
HETATM    7  C   UNL     1      42.603 -16.949   0.977  1.00  0.00     0.190 A 
HETATM    8  N   UNL     1      41.547 -16.818   0.183  1.00  0.00    -0.149 NA
HETATM    9  N   UNL     1      40.628 -16.249   0.980  1.00  0.00    -0.279 N 
HETATM   10  H   UNL     1      39.709 -16.057   0.595  1.00  0.00     0.189 HD
HETATM   11  C   UNL     1      43.276 -16.334   3.474  1.00  0.00     0.074 C 
ENDROOT
BRANCH  11  12
HETATM   12  C   UNL     1      43.746 -17.740   3.832  1.00  0.00    -0.048 A 
HETATM   13  C   UNL     1      44.030 -18.035   5.179  1.00  0.00     0.009 A 
HETATM   14  C   UNL     1      44.461 -19.309   5.559  1.00  0.00     0.024 A 
HETATM   15  C   UNL     1      44.605 -20.306   4.600  1.00  0.00     0.034 A 
HETATM   16 CL   UNL     1      45.136 -21.874   5.068  1.00  0.00    -0.084 Cl
HETATM   17  C   UNL     1      44.320 -20.041   3.264  1.00  0.00     0.024 A 
HETATM   18  C   UNL     1      43.892 -18.766   2.884  1.00  0.00     0.009 A 
ENDBRANCH  11  12
BRANCH   1  19
HETATM   19  C   UNL     1      43.097 -14.153   4.685  1.00  0.00     0.267 C 
HETATM   20  O   UNL     1      43.256 -13.483   3.673  1.00  0.00    -0.265 OA
BRANCH  19  21
HETATM   21  O   UNL     1      43.371 -13.733   5.946  1.00  0.00    -0.321 OA
BRANCH  21  22
HETATM   22  C   UNL     1      44.343 -14.500   6.673  1.00  0.00     0.174 C 
HETATM   23  C   UNL     1      45.373 -13.582   7.306  1.00  0.00     0.034 C 
ENDBRANCH  21  22
ENDBRANCH  19  21
ENDBRANCH   1  19
BRANCH   2  24
HETATM   24  O   UNL     1      40.612 -16.936   5.120  1.00  0.00    -0.389 OA
HETATM   25  H   UNL     1      40.748 -17.012   6.081  1.00  0.00     0.210 HD
ENDBRANCH   2  24
BRANCH   7  26
HETATM   26  O   UNL     1      43.681 -17.528   0.444  1.00  0.00    -0.343 OA
HETATM   27  H   UNL     1      44.476 -17.181   0.873  1.00  0.00     0.219 HD
ENDBRANCH   7  26
TORSDOF 6
ENDMDL
MODEL 3
REMARK VINA RESULT:      -7.7      1.185      2.124
REMARK  6 active torsions:
REMARK  status: ('A' for Active; 'I' for Inactive)
REMARK    1  A    between atoms: C_2  and  O_3 
REMARK    2  A    between atoms: O_3  and  C_4 
REMARK    3  A    between atoms: C_4  and  C_5 
REMARK    4  A    between atoms: C_6  and  O_7 
REMARK    5  A    between atoms: C_12  and  O_13 
REMARK    6  A    between atoms: C_17  and  C_18 
ROOT
HETATM    1  C   UNL     1      42.651 -15.938   4.785  1.00  0.00     0.133 C 
HETATM    2  C   UNL     1      41.088 -15.986   4.841  1.00  0.00     0.073 C 
HETATM    3  C   UNL     1      40.508 -15.098   5.954  1.00  0.00     0.047 C 
HETATM    4  C   UNL     1      40.396 -15.630   3.495  1.00  0.00     0.097 C 
HETATM    5  C   UNL     1      41.146 -16.220   2.358  1.00  0.00     0.042 A 
HETATM    6  C   UNL     1      42.448 -16.670   2.360  1.00  0.00     0.030 A 
HETATM    7  C   UNL     1      42.645 -17.087   1.034  1.00  0.00     0.190 A 
HETATM    8  N   UNL     1      41.582 -16.916   0.257  1.00  0.00    -0.149 NA
HETATM    9  N   UNL     1      40.666 -16.400   1.093  1.00  0.00    -0.279 N 
HETATM   10  H   UNL     1      39.743 -16.191   0.726  1.00  0.00     0.189 HD
HETATM   11  C   UNL     1      43.333 -16.616   3.558  1.00  0.00     0.074 C 
ENDROOT
BRANCH  11  12
HETATM   12  C   UNL     1      43.813 -18.038   3.830  1.00  0.00    -0.048 A 
HETATM   13  C   UNL     1      44.106 -18.410   5.156  1.00  0.00     0.009 A 
HETATM   14  C   UNL     1      44.548 -19.702   5.458  1.00  0.00     0.024 A 
HETATM   15  C   UNL     1      44.692 -20.640   4.440  1.00  0.00     0.034 A 
HETATM   16 CL   UNL     1      45.234 -22.229   4.811  1.00  0.00    -0.084 Cl
HETATM   17  C   UNL     1      44.398 -20.298   3.124  1.00  0.00     0.024 A 
HETATM   18  C   UNL     1      43.960 -19.005   2.822  1.00  0.00     0.009 A 
ENDBRANCH  11  12
BRANCH   1  19
HETATM   19  C   UNL     1      43.151 -14.511   4.896  1.00  0.00     0.267 C 
HETATM   20  O   UNL     1      43.362 -13.963   5.970  1.00  0.00    -0.265 OA
BRANCH  19  21
HETATM   21  O   UNL     1      43.302 -13.924   3.681  1.00  0.00    -0.321 OA
BRANCH  21  22
HETATM   22  C   UNL     1      42.436 -12.814   3.400  1.00  0.00     0.174 C 
HETATM   23  C   UNL     1      42.116 -12.755   1.918  1.00  0.00     0.034 C 
ENDBRANCH  21  22
ENDBRANCH  19  21
ENDBRANCH   1  19
BRANCH   2  24
HETATM   24  O   UNL     1      40.684 -17.329   5.185  1.00  0.00    -0.389 OA
HETATM   25  H   UNL     1      40.733 -17.882   4.385  1.00  0.00     0.210 HD
ENDBRANCH   2  24
BRANCH   7  26
HETATM   26  O   UNL     1      43.722 -17.628   0.461  1.00  0.00    -0.343 OA
HETATM   27  H   UNL     1      43.761 -18.571   0.677  1.00  0.00     0.219 HD
ENDBRANCH   7  26
TORSDOF 6
ENDMDL
MODEL 4
REMARK VINA RESULT:      -7.5      2.823      4.724
REMARK  6 active torsions:
REMARK  status: ('A' for Active; 'I' for Inactive)
REMARK    1  A    between atoms: C_2  and  O_3 
REMARK    2  A    between atoms: O_3  and  C_4 
REMARK    3  A    between atoms: C_4  and  C_5 
REMARK    4  A    between atoms: C_6  and  O_7 
REMARK    5  A    between atoms: C_12  and  O_13 
REMARK    6  A    between atoms: C_17  and  C_18 
ROOT
HETATM    1  C   UNL     1      41.692 -15.329   3.850  1.00  0.00     0.133 C 
HETATM    2  C   UNL     1      42.732 -14.161   3.878  1.00  0.00     0.073 C 
HETATM    3  C   UNL     1      42.269 -12.938   3.070  1.00  0.00     0.047 C 
HETATM    4  C   UNL     1      43.130 -13.702   5.310  1.00  0.00     0.097 C 
HETATM    5  C   UNL     1      43.263 -14.875   6.208  1.00  0.00     0.042 A 
HETATM    6  C   UNL     1      42.754 -16.141   6.012  1.00  0.00     0.030 A 
HETATM    7  C   UNL     1      43.147 -16.829   7.170  1.00  0.00     0.190 A 
HETATM    8  N   UNL     1      43.832 -16.082   8.028  1.00  0.00    -0.149 NA
HETATM    9  N   UNL     1      43.909 -14.891   7.410  1.00  0.00    -0.279 N 
HETATM   10  H   UNL     1      44.410 -14.140   7.874  1.00  0.00     0.189 HD
HETATM   11  C   UNL     1      41.950 -16.524   4.816  1.00  0.00     0.074 C 
ENDROOT
BRANCH  11  12
HETATM   12  C   UNL     1      42.654 -17.706   4.158  1.00  0.00    -0.048 A 
HETATM   13  C   UNL     1      42.228 -18.121   2.882  1.00  0.00     0.009 A 
HETATM   14  C   UNL     1      42.842 -19.198   2.235  1.00  0.00     0.024 A 
HETATM   15  C   UNL     1      43.896 -19.866   2.851  1.00  0.00     0.034 A 
HETATM   16 CL   UNL     1      44.651 -21.190   2.055  1.00  0.00    -0.084 Cl
HETATM   17  C   UNL     1      44.341 -19.467   4.107  1.00  0.00     0.024 A 
HETATM   18  C   UNL     1      43.724 -18.393   4.756  1.00  0.00     0.009 A 
ENDBRANCH  11  12
BRANCH   1  19
HETATM   19  C   UNL     1      40.288 -14.807   4.081  1.00  0.00     0.267 C 
HETATM   20  O   UNL     1      39.831 -14.602   5.197  1.00  0.00    -0.265 OA
BRANCH  19  21
HETATM   21  O   UNL     1      39.610 -14.625   2.919  1.00  0.00    -0.321 OA
BRANCH  21  22
HETATM   22  C   UNL     1      39.855 -15.590   1.884  1.00  0.00     0.174 C 
HETATM   23  C   UNL     1      40.217 -14.891   0.585  1.00  0.00     0.034 C 
ENDBRANCH  21  22
ENDBRANCH  19  21
ENDBRANCH   1  19
BRANCH   2  24
HETATM   24  O   UNL     1      43.939 -14.608   3.224  1.00  0.00    -0.389 OA
HETATM   25  H   UNL     1      44.257 -13.896   2.640  1.00  0.00     0.210 HD
ENDBRANCH   2  24
BRANCH   7  26
HETATM   26  O   UNL     1      42.943 -18.100   7.518  1.00  0.00    -0.343 OA
HETATM   27  H   UNL     1      42.220 -18.466   6.987  1.00  0.00     0.219 HD
ENDBRANCH   7  26
TORSDOF 6
ENDMDL
MODEL 5
REMARK VINA RESULT:      -7.4      2.796      5.092
REMARK  6 active torsions:
REMARK  status: ('A' for Active; 'I' for Inactive)
REMARK    1  A    between atoms: C_2  and  O_3 
REMARK    2  A    between atoms: O_3  and  C_4 
REMARK    3  A    between atoms: C_4  and  C_5 
REMARK    4  A    between atoms: C_6  and  O_7 
REMARK    5  A    between atoms: C_12  and  O_13 
REMARK    6  A    between atoms: C_17  and  C_18 
ROOT
HETATM    1  C   UNL     1      41.355 -14.871   1.784  1.00  0.00     0.133 C 
HETATM    2  C   UNL     1      42.081 -13.594   2.322  1.00  0.00     0.073 C 
HETATM    3  C   UNL     1      42.139 -12.464   1.281  1.00  0.00     0.047 C 
HETATM    4  C   UNL     1      41.483 -13.035   3.644  1.00  0.00     0.097 C 
HETATM    5  C   UNL     1      41.107 -14.148   4.551  1.00  0.00     0.042 A 
HETATM    6  C   UNL     1      40.907 -15.469   4.214  1.00  0.00     0.030 A 
HETATM    7  C   UNL     1      40.546 -16.061   5.434  1.00  0.00     0.190 A 
HETATM    8  N   UNL     1      40.509 -15.208   6.451  1.00  0.00    -0.149 NA
HETATM    9  N   UNL     1      40.875 -14.043   5.892  1.00  0.00    -0.279 N 
HETATM   10  H   UNL     1      40.936 -13.222   6.486  1.00  0.00     0.189 HD
HETATM   11  C   UNL     1      41.036 -15.989   2.822  1.00  0.00     0.074 C 
ENDROOT
BRANCH  11  12
HETATM   12  C   UNL     1      42.069 -17.111   2.852  1.00  0.00    -0.048 A 
HETATM   13  C   UNL     1      41.997 -18.121   1.874  1.00  0.00     0.009 A 
HETATM   14  C   UNL     1      42.922 -19.170   1.857  1.00  0.00     0.024 A 
HETATM   15  C   UNL     1      43.934 -19.217   2.811  1.00  0.00     0.034 A 
HETATM   16 CL   UNL     1      45.070 -20.507   2.790  1.00  0.00    -0.084 Cl
HETATM   17  C   UNL     1      44.030 -18.224   3.780  1.00  0.00     0.024 A 
HETATM   18  C   UNL     1      43.104 -17.177   3.800  1.00  0.00     0.009 A 
ENDBRANCH  11  12
BRANCH   1  19
HETATM   19  C   UNL     1      40.077 -14.498   1.058  1.00  0.00     0.267 C 
HETATM   20  O   UNL     1      39.029 -14.252   1.641  1.00  0.00    -0.265 OA
BRANCH  19  21
HETATM   21  O   UNL     1      40.234 -14.501  -0.291  1.00  0.00    -0.321 OA
BRANCH  21  22
HETATM   22  C   UNL     1      41.132 -15.486  -0.824  1.00  0.00     0.174 C 
HETATM   23  C   UNL     1      40.920 -15.640  -2.319  1.00  0.00     0.034 C 
ENDBRANCH  21  22
ENDBRANCH  19  21
ENDBRANCH   1  19
BRANCH   2  24
HETATM   24  O   UNL     1      43.459 -13.930   2.588  1.00  0.00    -0.389 OA
HETATM   25  H   UNL     1      43.630 -13.809   3.539  1.00  0.00     0.210 HD
ENDBRANCH   2  24
BRANCH   7  26
HETATM   26  O   UNL     1      40.250 -17.332   5.711  1.00  0.00    -0.343 OA
HETATM   27  H   UNL     1      39.301 -17.476   5.583  1.00  0.00     0.219 HD
ENDBRANCH   7  26
TORSDOF 6
ENDMDL
MODEL 6
REMARK VINA RESULT:      -7.4      1.810      2.300
REMARK  6 active torsions:
REMARK  status: ('A' for Active; 'I' for Inactive)
REMARK    1  A    between atoms: C_2  and  O_3 
REMARK    2  A    between atoms: O_3  and  C_4 
REMARK    3  A    between atoms: C_4  and  C_5 
REMARK    4  A    between atoms: C_6  and  O_7 
REMARK    5  A    between atoms: C_12  and  O_13 
REMARK    6  A    between atoms: C_17  and  C_18 
ROOT
HETATM    1  C   UNL     1      42.306 -14.843   4.329  1.00  0.00     0.133 C 
HETATM    2  C   UNL     1      40.811 -14.829   4.789  1.00  0.00     0.073 C 
HETATM    3  C   UNL     1      40.623 -14.183   6.171  1.00  0.00     0.047 C 
HETATM    4  C   UNL     1      39.843 -14.153   3.777  1.00  0.00     0.097 C 
HETATM    5  C   UNL     1      40.219 -14.511   2.387  1.00  0.00     0.042 A 
HETATM    6  C   UNL     1      41.427 -15.010   1.950  1.00  0.00     0.030 A 
HETATM    7  C   UNL     1      41.241 -15.133   0.565  1.00  0.00     0.190 A 
HETATM    8  N   UNL     1      40.041 -14.745   0.150  1.00  0.00    -0.149 NA
HETATM    9  N   UNL     1      39.422 -14.385   1.287  1.00  0.00    -0.279 N 
HETATM   10  H   UNL     1      38.463 -14.057   1.229  1.00  0.00     0.189 HD
HETATM   11  C   UNL     1      42.585 -15.263   2.855  1.00  0.00     0.074 C 
ENDROOT
BRANCH  11  12
HETATM   12  C   UNL     1      42.970 -16.730   2.697  1.00  0.00    -0.048 A 
HETATM   13  C   UNL     1      43.808 -17.098   1.626  1.00  0.00     0.009 A 
HETATM   14  C   UNL     1      44.191 -18.430   1.440  1.00  0.00     0.024 A 
HETATM   15  C   UNL     1      43.750 -19.408   2.326  1.00  0.00     0.034 A 
HETATM   16 CL   UNL     1      44.221 -21.045   2.096  1.00  0.00    -0.084 Cl
HETATM   17  C   UNL     1      42.930 -19.067   3.396  1.00  0.00     0.024 A 
HETATM   18  C   UNL     1      42.543 -17.736   3.581  1.00  0.00     0.009 A 
ENDBRANCH  11  12
BRANCH   1  19
HETATM   19  C   UNL     1      42.961 -13.500   4.587  1.00  0.00     0.267 C 
HETATM   20  O   UNL     1      42.443 -12.437   4.273  1.00  0.00    -0.265 OA
BRANCH  19  21
HETATM   21  O   UNL     1      44.180 -13.628   5.173  1.00  0.00    -0.321 OA
BRANCH  21  22
HETATM   22  C   UNL     1      44.245 -14.484   6.324  1.00  0.00     0.174 C 
HETATM   23  C   UNL     1      44.681 -13.694   7.545  1.00  0.00     0.034 C 
ENDBRANCH  21  22
ENDBRANCH  19  21
ENDBRANCH   1  19
BRANCH   2  24
HETATM   24  O   UNL     1      40.371 -16.195   4.951  1.00  0.00    -0.389 OA
HETATM   25  H   UNL     1      39.736 -16.230   5.688  1.00  0.00     0.210 HD
ENDBRANCH   2  24
BRANCH   7  26
HETATM   26  O   UNL     1      42.079 -15.582  -0.372  1.00  0.00    -0.343 OA
HETATM   27  H   UNL     1      41.674 -16.333  -0.830  1.00  0.00     0.219 HD
ENDBRANCH   7  26
TORSDOF 6
ENDMDL
MODEL 7
REMARK VINA RESULT:      -7.0      3.169      5.342
REMARK  6 active torsions:
REMARK  status: ('A' for Active; 'I' for Inactive)
REMARK    1  A    between atoms: C_2  and  O_3 
REMARK    2  A    between atoms: O_3  and  C_4 
REMARK    3  A    between atoms: C_4  and  C_5 
REMARK    4  A    between atoms: C_6  and  O_7 
REMARK    5  A    between atoms: C_12  and  O_13 
REMARK    6  A    between atoms: C_17  and  C_18 
ROOT
HETATM    1  C   UNL     1      41.251 -14.759   1.813  1.00  0.00     0.133 C 
HETATM    2  C   UNL     1      41.851 -13.321   1.953  1.00  0.00     0.073 C 
HETATM    3  C   UNL     1      41.995 -12.605   0.600  1.00  0.00     0.047 C 
HETATM    4  C   UNL     1      41.070 -12.401   2.934  1.00  0.00     0.097 C 
HETATM    5  C   UNL     1      40.628 -13.173   4.122  1.00  0.00     0.042 A 
HETATM    6  C   UNL     1      40.526 -14.542   4.239  1.00  0.00     0.030 A 
HETATM    7  C   UNL     1      40.038 -14.717   5.543  1.00  0.00     0.190 A 
HETATM    8  N   UNL     1      39.838 -13.579   6.196  1.00  0.00    -0.149 NA
HETATM    9  N   UNL     1      40.225 -12.642   5.313  1.00  0.00    -0.279 N 
HETATM   10  H   UNL     1      40.178 -11.668   5.593  1.00  0.00     0.189 HD
HETATM   11  C   UNL     1      40.849 -15.486   3.131  1.00  0.00     0.074 C 
ENDROOT
BRANCH  11  12
HETATM   12  C   UNL     1      41.914 -16.446   3.652  1.00  0.00    -0.048 A 
HETATM   13  C   UNL     1      42.785 -16.004   4.667  1.00  0.00     0.009 A 
HETATM   14  C   UNL     1      43.776 -16.847   5.179  1.00  0.00     0.024 A 
HETATM   15  C   UNL     1      43.902 -18.143   4.691  1.00  0.00     0.034 A 
HETATM   16 CL   UNL     1      45.121 -19.179   5.322  1.00  0.00    -0.084 Cl
HETATM   17  C   UNL     1      43.047 -18.605   3.696  1.00  0.00     0.024 A 
HETATM   18  C   UNL     1      42.058 -17.762   3.181  1.00  0.00     0.009 A 
ENDBRANCH  11  12
BRANCH   1  19
HETATM   19  C   UNL     1      40.061 -14.756   0.873  1.00  0.00     0.267 C 
HETATM   20  O   UNL     1      40.176 -14.790  -0.344  1.00  0.00    -0.265 OA
BRANCH  19  21
HETATM   21  O   UNL     1      38.880 -14.685   1.541  1.00  0.00    -0.321 OA
BRANCH  21  22
HETATM   22  C   UNL     1      37.804 -14.025   0.858  1.00  0.00     0.174 C 
HETATM   23  C   UNL     1      37.777 -12.549   1.214  1.00  0.00     0.034 C 
ENDBRANCH  21  22
ENDBRANCH  19  21
ENDBRANCH   1  19
BRANCH   2  24
HETATM   24  O   UNL     1      43.198 -13.436   2.461  1.00  0.00    -0.389 OA
HETATM   25  H   UNL     1      43.513 -12.549   2.708  1.00  0.00     0.210 HD
ENDBRANCH   2  24
BRANCH   7  26
HETATM   26  O   UNL     1      39.761 -15.841   6.206  1.00  0.00    -0.343 OA
HETATM   27  H   UNL     1      38.832 -15.831   6.480  1.00  0.00     0.219 HD
ENDBRANCH   7  26
TORSDOF 6
ENDMDL
MODEL 8
REMARK VINA RESULT:      -6.9      3.893      6.094
REMARK  6 active torsions:
REMARK  status: ('A' for Active; 'I' for Inactive)
REMARK    1  A    between atoms: C_2  and  O_3 
REMARK    2  A    between atoms: O_3  and  C_4 
REMARK    3  A    between atoms: C_4  and  C_5 
REMARK    4  A    between atoms: C_6  and  O_7 
REMARK    5  A    between atoms: C_12  and  O_13 
REMARK    6  A    between atoms: C_17  and  C_18 
ROOT
HETATM    1  C   UNL     1      40.819 -14.117   2.984  1.00  0.00     0.133 C 
HETATM    2  C   UNL     1      41.629 -12.837   2.594  1.00  0.00     0.073 C 
HETATM    3  C   UNL     1      41.893 -12.742   1.082  1.00  0.00     0.047 C 
HETATM    4  C   UNL     1      40.985 -11.507   3.080  1.00  0.00     0.097 C 
HETATM    5  C   UNL     1      40.419 -11.677   4.441  1.00  0.00     0.042 A 
HETATM    6  C   UNL     1      40.109 -12.860   5.076  1.00  0.00     0.030 A 
HETATM    7  C   UNL     1      39.586 -12.437   6.308  1.00  0.00     0.190 A 
HETATM    8  N   UNL     1      39.555 -11.117   6.449  1.00  0.00    -0.149 NA
HETATM    9  N   UNL     1      40.088 -10.669   5.300  1.00  0.00    -0.279 N 
HETATM   10  H   UNL     1      40.186  -9.667   5.173  1.00  0.00     0.189 HD
HETATM   11  C   UNL     1      40.298 -14.200   4.450  1.00  0.00     0.074 C 
ENDROOT
BRANCH  11  12
HETATM   12  C   UNL     1      41.199 -15.009   5.377  1.00  0.00    -0.048 A 
HETATM   13  C   UNL     1      40.710 -16.217   5.911  1.00  0.00     0.009 A 
HETATM   14  C   UNL     1      41.498 -16.996   6.764  1.00  0.00     0.024 A 
HETATM   15  C   UNL     1      42.787 -16.583   7.085  1.00  0.00     0.034 A 
HETATM   16 CL   UNL     1      43.756 -17.541   8.134  1.00  0.00    -0.084 Cl
HETATM   17  C   UNL     1      43.295 -15.399   6.561  1.00  0.00     0.024 A 
HETATM   18  C   UNL     1      42.506 -14.618   5.712  1.00  0.00     0.009 A 
ENDBRANCH  11  12
BRANCH   1  19
HETATM   19  C   UNL     1      39.653 -14.326   2.038  1.00  0.00     0.267 C 
HETATM   20  O   UNL     1      38.681 -13.584   2.007  1.00  0.00    -0.265 OA
BRANCH  19  21
HETATM   21  O   UNL     1      39.810 -15.433   1.267  1.00  0.00    -0.321 OA
BRANCH  21  22
HETATM   22  C   UNL     1      40.338 -16.595   1.925  1.00  0.00     0.174 C 
HETATM   23  C   UNL     1      41.393 -17.259   1.058  1.00  0.00     0.034 C 
ENDBRANCH  21  22
ENDBRANCH  19  21
ENDBRANCH   1  19
BRANCH   2  24
HETATM   24  O   UNL     1      42.937 -12.922   3.199  1.00  0.00    -0.389 OA
HETATM   25  H   UNL     1      43.119 -12.085   3.661  1.00  0.00     0.210 HD
ENDBRANCH   2  24
BRANCH   7  26
HETATM   26  O   UNL     1      39.135 -13.157   7.336  1.00  0.00    -0.343 OA
HETATM   27  H   UNL     1      39.532 -12.829   8.156  1.00  0.00     0.219 HD
ENDBRANCH   7  26
TORSDOF 6
ENDMDL
MODEL 9
REMARK VINA RESULT:      -6.9      3.406      5.578
REMARK  6 active torsions:
REMARK  status: ('A' for Active; 'I' for Inactive)
REMARK    1  A    between atoms: C_2  and  O_3 
REMARK    2  A    between atoms: O_3  and  C_4 
REMARK    3  A    between atoms: C_4  and  C_5 
REMARK    4  A    between atoms: C_6  and  O_7 
REMARK    5  A    between atoms: C_12  and  O_13 
REMARK    6  A    between atoms: C_17  and  C_18 
ROOT
HETATM    1  C   UNL     1      43.133 -17.927   4.907  1.00  0.00     0.133 C 
HETATM    2  C   UNL     1      42.788 -18.030   6.429  1.00  0.00     0.073 C 
HETATM    3  C   UNL     1      42.936 -19.460   6.974  1.00  0.00     0.047 C 
HETATM    4  C   UNL     1      43.600 -17.057   7.331  1.00  0.00     0.097 C 
HETATM    5  C   UNL     1      43.753 -15.742   6.662  1.00  0.00     0.042 A 
HETATM    6  C   UNL     1      43.593 -15.462   5.322  1.00  0.00     0.030 A 
HETATM    7  C   UNL     1      43.885 -14.091   5.244  1.00  0.00     0.190 A 
HETATM    8  N   UNL     1      44.206 -13.546   6.411  1.00  0.00    -0.149 NA
HETATM    9  N   UNL     1      44.100 -14.572   7.272  1.00  0.00    -0.279 N 
HETATM   10  H   UNL     1      44.288 -14.397   8.254  1.00  0.00     0.189 HD
HETATM   11  C   UNL     1      43.239 -16.493   4.305  1.00  0.00     0.074 C 
ENDROOT
BRANCH  11  12
HETATM   12  C   UNL     1      41.966 -16.023   3.610  1.00  0.00    -0.048 A 
HETATM   13  C   UNL     1      41.721 -16.447   2.290  1.00  0.00     0.009 A 
HETATM   14  C   UNL     1      40.567 -16.046   1.609  1.00  0.00     0.024 A 
HETATM   15  C   UNL     1      39.640 -15.225   2.243  1.00  0.00     0.034 A 
HETATM   16 CL   UNL     1      38.221 -14.732   1.406  1.00  0.00    -0.084 Cl
HETATM   17  C   UNL     1      39.855 -14.802   3.551  1.00  0.00     0.024 A 
HETATM   18  C   UNL     1      41.011 -15.200   4.230  1.00  0.00     0.009 A 
ENDBRANCH  11  12
BRANCH   1  19
HETATM   19  C   UNL     1      44.407 -18.685   4.591  1.00  0.00     0.267 C 
HETATM   20  O   UNL     1      45.368 -18.715   5.348  1.00  0.00    -0.265 OA
BRANCH  19  21
HETATM   21  O   UNL     1      44.356 -19.291   3.377  1.00  0.00    -0.321 OA
BRANCH  21  22
HETATM   22  C   UNL     1      44.628 -20.700   3.358  1.00  0.00     0.174 C 
HETATM   23  C   UNL     1      44.053 -21.333   2.103  1.00  0.00     0.034 C 
ENDBRANCH  21  22
ENDBRANCH  19  21
ENDBRANCH   1  19
BRANCH   2  24
HETATM   24  O   UNL     1      41.392 -17.705   6.604  1.00  0.00    -0.389 OA
HETATM   25  H   UNL     1      40.936 -18.485   6.968  1.00  0.00     0.210 HD
ENDBRANCH   2  24
BRANCH   7  26
HETATM   26  O   UNL     1      43.875 -13.276   4.188  1.00  0.00    -0.343 OA
HETATM   27  H   UNL     1      44.357 -13.692   3.457  1.00  0.00     0.219 HD
ENDBRANCH   7  26
TORSDOF 6
ENDMDL
MODEL 10
REMARK VINA RESULT:      -6.8      3.781      5.729
REMARK  6 active torsions:
REMARK  status: ('A' for Active; 'I' for Inactive)
REMARK    1  A    between atoms: C_2  and  O_3 
REMARK    2  A    between atoms: O_3  and  C_4 
REMARK    3  A    between atoms: C_4  and  C_5 
REMARK    4  A    between atoms: C_6  and  O_7 
REMARK    5  A    between atoms: C_12  and  O_13 
REMARK    6  A    between atoms: C_17  and  C_18 
ROOT
HETATM    1  C   UNL     1      40.924 -14.247   3.698  1.00  0.00     0.133 C 
HETATM    2  C   UNL     1      42.418 -13.785   3.642  1.00  0.00     0.073 C 
HETATM    3  C   UNL     1      42.825 -12.947   4.865  1.00  0.00     0.047 C 
HETATM    4  C   UNL     1      43.434 -14.948   3.463  1.00  0.00     0.097 C 
HETATM    5  C   UNL     1      42.902 -15.956   2.513  1.00  0.00     0.042 A 
HETATM    6  C   UNL     1      41.592 -16.126   2.122  1.00  0.00     0.030 A 
HETATM    7  C   UNL     1      41.656 -17.224   1.251  1.00  0.00     0.190 A 
HETATM    8  N   UNL     1      42.880 -17.716   1.101  1.00  0.00    -0.149 NA
HETATM    9  N   UNL     1      43.634 -16.912   1.869  1.00  0.00    -0.279 N 
HETATM   10  H   UNL     1      44.634 -17.083   1.909  1.00  0.00     0.189 HD
HETATM   11  C   UNL     1      40.469 -15.288   2.632  1.00  0.00     0.074 C 
ENDROOT
BRANCH  11  12
HETATM   12  C   UNL     1      39.783 -14.665   1.420  1.00  0.00    -0.048 A 
HETATM   13  C   UNL     1      38.381 -14.537   1.429  1.00  0.00     0.009 A 
HETATM   14  C   UNL     1      37.705 -13.971   0.343  1.00  0.00     0.024 A 
HETATM   15  C   UNL     1      38.423 -13.517  -0.759  1.00  0.00     0.034 A 
HETATM   16 CL   UNL     1      37.592 -12.821  -2.093  1.00  0.00    -0.084 Cl
HETATM   17  C   UNL     1      39.810 -13.624  -0.785  1.00  0.00     0.024 A 
HETATM   18  C   UNL     1      40.485 -14.193   0.298  1.00  0.00     0.009 A 
ENDBRANCH  11  12
BRANCH   1  19
HETATM   19  C   UNL     1      40.576 -14.775   5.077  1.00  0.00     0.267 C 
HETATM   20  O   UNL     1      40.189 -14.053   5.986  1.00  0.00    -0.265 OA
BRANCH  19  21
HETATM   21  O   UNL     1      40.770 -16.115   5.178  1.00  0.00    -0.321 OA
BRANCH  21  22
HETATM   22  C   UNL     1      41.625 -16.553   6.245  1.00  0.00     0.174 C 
HETATM   23  C   UNL     1      42.474 -17.728   5.793  1.00  0.00     0.034 C 
ENDBRANCH  21  22
ENDBRANCH  19  21
ENDBRANCH   1  19
BRANCH   2  24
HETATM   24  O   UNL     1      42.580 -12.902   2.511  1.00  0.00    -0.389 OA
HETATM   25  H   UNL     1      42.969 -13.407   1.776  1.00  0.00     0.210 HD
ENDBRANCH   2  24
BRANCH   7  26
HETATM   26  O   UNL     1      40.685 -17.824   0.560  1.00  0.00    -0.343 OA
HETATM   27  H   UNL     1      40.999 -18.014  -0.336  1.00  0.00     0.219 HD
ENDBRANCH   7  26
TORSDOF 6
ENDMDL
