MODEL 1
REMARK VINA RESULT:      -9.3      0.000      0.000
REMARK  6 active torsions:
REMARK  status: ('A' for Active; 'I' for Inactive)
REMARK    1  A    between atoms: C_3  and  C_4 
REMARK    2  A    between atoms: C_4  and  N_5 
REMARK    3  A    between atoms: C_4  and  C_9 
REMARK       I    between atoms: N_5  and  C_6 
REMARK       I    between atoms: C_6  and  N_7 
REMARK    4  A    between atoms: C_9  and  C_10 
REMARK       I    between atoms: C_10  and  N_11 
REMARK    5  A    between atoms: N_11  and  N_12 
REMARK       I    between atoms: N_12  and  C_13 
REMARK    6  A    between atoms: C_13  and  C_14 
ROOT
HETATM    1  C   UNL     1      44.139 -16.428   6.976  1.00  0.00     0.238 C 
HETATM    2  N   UNL     1      44.433 -15.104   6.746  1.00  0.00    -0.267 N 
HETATM    3  O   UNL     1      43.629 -16.806   8.029  1.00  0.00    -0.272 OA
HETATM    4  H   UNL     1      44.900 -14.737   5.918  1.00  0.00     0.190 HD
ENDROOT
BRANCH   1   5
HETATM    5  C   UNL     1      44.509 -17.373   5.857  1.00  0.00     0.134 C 
BRANCH   5   6
HETATM    6  C   UNL     1      43.315 -17.724   4.957  1.00  0.00     0.129 C 
BRANCH   6   7
HETATM    7  C   UNL     1      43.605 -18.917   4.051  1.00  0.00    -0.013 A 
HETATM    8  C   UNL     1      44.430 -19.972   4.492  1.00  0.00     0.011 A 
HETATM    9  C   UNL     1      44.728 -21.056   3.662  1.00  0.00     0.001 A 
HETATM   10  C   UNL     1      44.210 -21.113   2.373  1.00  0.00     0.002 A 
HETATM   11  C   UNL     1      43.402 -20.079   1.910  1.00  0.00     0.024 A 
HETATM   12  C   UNL     1      43.107 -18.987   2.735  1.00  0.00     0.042 A 
HETATM   13 CL   UNL     1      42.131 -17.736   2.044  1.00  0.00    -0.084 Cl
ENDBRANCH   6   7
BRANCH   6  14
HETATM   14  N   UNL     1      42.063 -17.875   5.700  1.00  0.00    -0.339 N 
HETATM   15  C   UNL     1      41.005 -17.032   5.705  1.00  0.00     0.292 C 
HETATM   16  N   UNL     1      40.918 -16.145   4.695  1.00  0.00    -0.254 NA
HETATM   17  O   UNL     1      40.161 -17.065   6.591  1.00  0.00    -0.254 OA
HETATM   18  H   UNL     1      41.113 -16.500   3.771  1.00  0.00     0.128 HD
HETATM   19  H   UNL     1      40.061 -15.606   4.741  1.00  0.00     0.128 HD
HETATM   20  H   UNL     1      42.095 -18.388   6.572  1.00  0.00     0.164 HD
ENDBRANCH   6  14
ENDBRANCH   5   6
ENDBRANCH   1   5
BRANCH   2  21
HETATM   21  N   UNL     1      44.069 -14.181   7.729  1.00  0.00    -0.263 N 
HETATM   22  C   UNL     1      44.934 -13.147   8.018  1.00  0.00     0.270 C 
HETATM   23  O   UNL     1      46.045 -13.058   7.499  1.00  0.00    -0.266 OA
HETATM   24  H   UNL     1      43.166 -14.336   8.171  1.00  0.00     0.190 HD
BRANCH  22  25
HETATM   25  C   UNL     1      44.467 -12.130   9.006  1.00  0.00     0.036 A 
HETATM   26  C   UNL     1      43.305 -11.368   8.808  1.00  0.00     0.057 A 
HETATM   27  C   UNL     1      42.976 -10.437   9.773  1.00  0.00     0.106 A 
HETATM   28  C   UNL     1      43.747 -10.241  10.894  1.00  0.00     0.105 A 
HETATM   29  O   UNL     1      41.894  -9.615   9.738  1.00  0.00    -0.323 OA
HETATM   30  O   UNL     1      43.245  -9.273  11.706  1.00  0.00    -0.323 OA
HETATM   31  C   UNL     1      44.897 -10.964  11.117  1.00  0.00     0.041 A 
HETATM   32  C   UNL     1      42.073  -8.875  10.964  1.00  0.00     0.352 A 
HETATM   33  C   UNL     1      45.259 -11.917  10.158  1.00  0.00     0.020 A 
ENDBRANCH  22  25
ENDBRANCH   2  21
TORSDOF 6
ENDMDL
MODEL 2
REMARK VINA RESULT:      -8.9      7.184     10.111
REMARK  6 active torsions:
REMARK  status: ('A' for Active; 'I' for Inactive)
REMARK    1  A    between atoms: C_3  and  C_4 
REMARK    2  A    between atoms: C_4  and  N_5 
REMARK    3  A    between atoms: C_4  and  C_9 
REMARK       I    between atoms: N_5  and  C_6 
REMARK       I    between atoms: C_6  and  N_7 
REMARK    4  A    between atoms: C_9  and  C_10 
REMARK       I    between atoms: C_10  and  N_11 
REMARK    5  A    between atoms: N_11  and  N_12 
REMARK       I    between atoms: N_12  and  C_13 
REMARK    6  A    between atoms: C_13  and  C_14 
ROOT
HETATM    1  C   UNL     1      41.217 -15.949   0.780  1.00  0.00     0.238 C 
HETATM    2  N   UNL     1      42.473 -16.388   0.431  1.00  0.00    -0.267 N 
HETATM    3  O   UNL     1      40.420 -16.672   1.377  1.00  0.00    -0.272 OA
HETATM    4  H   UNL     1      43.157 -15.857  -0.105  1.00  0.00     0.190 HD
ENDROOT
BRANCH   1   5
HETATM    5  C   UNL     1      40.888 -14.538   0.357  1.00  0.00     0.134 C 
BRANCH   5   6
HETATM    6  C   UNL     1      41.234 -14.262  -1.114  1.00  0.00     0.129 C 
BRANCH   6   7
HETATM    7  C   UNL     1      40.129 -14.712  -2.064  1.00  0.00    -0.013 A 
HETATM    8  C   UNL     1      40.367 -15.721  -3.019  1.00  0.00     0.011 A 
HETATM    9  C   UNL     1      39.373 -16.122  -3.916  1.00  0.00     0.001 A 
HETATM   10  C   UNL     1      38.117 -15.525  -3.880  1.00  0.00     0.002 A 
HETATM   11  C   UNL     1      37.860 -14.518  -2.954  1.00  0.00     0.024 A 
HETATM   12  C   UNL     1      38.855 -14.108  -2.059  1.00  0.00     0.042 A 
HETATM   13 CL   UNL     1      38.444 -12.819  -0.981  1.00  0.00    -0.084 Cl
ENDBRANCH   6   7
BRANCH   6  14
HETATM   14  N   UNL     1      41.651 -12.880  -1.353  1.00  0.00    -0.339 N 
HETATM   15  C   UNL     1      42.683 -12.454  -2.117  1.00  0.00     0.292 C 
HETATM   16  N   UNL     1      43.181 -13.322  -3.021  1.00  0.00    -0.254 NA
HETATM   17  O   UNL     1      43.153 -11.331  -1.995  1.00  0.00    -0.254 OA
HETATM   18  H   UNL     1      42.505 -13.845  -3.557  1.00  0.00     0.128 HD
HETATM   19  H   UNL     1      43.899 -12.896  -3.594  1.00  0.00     0.128 HD
HETATM   20  H   UNL     1      41.463 -12.201  -0.626  1.00  0.00     0.164 HD
ENDBRANCH   6  14
ENDBRANCH   5   6
ENDBRANCH   1   5
BRANCH   2  21
HETATM   21  N   UNL     1      42.847 -17.670   0.839  1.00  0.00    -0.263 N 
HETATM   22  C   UNL     1      43.548 -17.811   2.018  1.00  0.00     0.270 C 
HETATM   23  O   UNL     1      43.923 -16.843   2.677  1.00  0.00    -0.266 OA
HETATM   24  H   UNL     1      42.564 -18.431   0.226  1.00  0.00     0.190 HD
BRANCH  22  25
HETATM   25  C   UNL     1      43.847 -19.203   2.467  1.00  0.00     0.036 A 
HETATM   26  C   UNL     1      44.329 -19.490   3.753  1.00  0.00     0.057 A 
HETATM   27  C   UNL     1      44.595 -20.810   4.059  1.00  0.00     0.106 A 
HETATM   28  C   UNL     1      44.408 -21.824   3.150  1.00  0.00     0.105 A 
HETATM   29  O   UNL     1      45.071 -21.263   5.249  1.00  0.00    -0.323 OA
HETATM   30  O   UNL     1      44.739 -23.042   3.655  1.00  0.00    -0.323 OA
HETATM   31  C   UNL     1      43.943 -21.578   1.877  1.00  0.00     0.041 A 
HETATM   32  C   UNL     1      45.165 -22.678   4.986  1.00  0.00     0.352 A 
HETATM   33  C   UNL     1      43.663 -20.250   1.535  1.00  0.00     0.020 A 
ENDBRANCH  22  25
ENDBRANCH   2  21
TORSDOF 6
ENDMDL
MODEL 3
REMARK VINA RESULT:      -8.8      3.367      9.654
REMARK  6 active torsions:
REMARK  status: ('A' for Active; 'I' for Inactive)
REMARK    1  A    between atoms: C_3  and  C_4 
REMARK    2  A    between atoms: C_4  and  N_5 
REMARK    3  A    between atoms: C_4  and  C_9 
REMARK       I    between atoms: N_5  and  C_6 
REMARK       I    between atoms: C_6  and  N_7 
REMARK    4  A    between atoms: C_9  and  C_10 
REMARK       I    between atoms: C_10  and  N_11 
REMARK    5  A    between atoms: N_11  and  N_12 
REMARK       I    between atoms: N_12  and  C_13 
REMARK    6  A    between atoms: C_13  and  C_14 
ROOT
HETATM    1  C   UNL     1      44.352 -12.511   9.525  1.00  0.00     0.238 C 
HETATM    2  N   UNL     1      44.167 -12.720   8.178  1.00  0.00    -0.267 N 
HETATM    3  O   UNL     1      44.596 -13.437  10.298  1.00  0.00    -0.272 OA
HETATM    4  H   UNL     1      43.914 -12.006   7.498  1.00  0.00     0.190 HD
ENDROOT
BRANCH   1   5
HETATM    5  C   UNL     1      44.207 -11.079   9.979  1.00  0.00     0.134 C 
BRANCH   5   6
HETATM    6  C   UNL     1      42.759 -10.710  10.333  1.00  0.00     0.129 C 
BRANCH   6   7
HETATM    7  C   UNL     1      42.596 -10.345  11.804  1.00  0.00    -0.013 A 
HETATM    8  C   UNL     1      43.613  -9.650  12.491  1.00  0.00     0.011 A 
HETATM    9  C   UNL     1      43.490  -9.336  13.847  1.00  0.00     0.001 A 
HETATM   10  C   UNL     1      42.350  -9.710  14.551  1.00  0.00     0.002 A 
HETATM   11  C   UNL     1      41.337 -10.407  13.899  1.00  0.00     0.024 A 
HETATM   12  C   UNL     1      41.459 -10.730  12.543  1.00  0.00     0.042 A 
HETATM   13 CL   UNL     1      40.163 -11.639  11.843  1.00  0.00    -0.084 Cl
ENDBRANCH   6   7
BRANCH   6  14
HETATM   14  N   UNL     1      42.192  -9.698   9.438  1.00  0.00    -0.339 N 
HETATM   15  C   UNL     1      41.831  -9.856   8.145  1.00  0.00     0.292 C 
HETATM   16  N   UNL     1      41.641 -11.117   7.707  1.00  0.00    -0.254 NA
HETATM   17  O   UNL     1      41.685  -8.900   7.396  1.00  0.00    -0.254 OA
HETATM   18  H   UNL     1      41.126 -11.730   8.320  1.00  0.00     0.128 HD
HETATM   19  H   UNL     1      41.304 -11.136   6.751  1.00  0.00     0.128 HD
HETATM   20  H   UNL     1      42.441  -8.732   9.607  1.00  0.00     0.164 HD
ENDBRANCH   6  14
ENDBRANCH   5   6
ENDBRANCH   1   5
BRANCH   2  21
HETATM   21  N   UNL     1      44.336 -14.020   7.697  1.00  0.00    -0.263 N 
HETATM   22  C   UNL     1      43.587 -14.426   6.613  1.00  0.00     0.270 C 
HETATM   23  O   UNL     1      42.722 -13.712   6.109  1.00  0.00    -0.266 OA
HETATM   24  H   UNL     1      45.020 -14.591   8.188  1.00  0.00     0.190 HD
BRANCH  22  25
HETATM   25  C   UNL     1      43.863 -15.789   6.070  1.00  0.00     0.036 A 
HETATM   26  C   UNL     1      43.362 -16.221   4.833  1.00  0.00     0.057 A 
HETATM   27  C   UNL     1      43.658 -17.510   4.435  1.00  0.00     0.106 A 
HETATM   28  C   UNL     1      44.410 -18.361   5.210  1.00  0.00     0.105 A 
HETATM   29  O   UNL     1      43.251 -18.090   3.274  1.00  0.00    -0.323 OA
HETATM   30  O   UNL     1      44.573 -19.581   4.632  1.00  0.00    -0.323 OA
HETATM   31  C   UNL     1      44.912 -17.973   6.432  1.00  0.00     0.041 A 
HETATM   32  C   UNL     1      43.829 -19.405   3.408  1.00  0.00     0.352 A 
HETATM   33  C   UNL     1      44.631 -16.673   6.865  1.00  0.00     0.020 A 
ENDBRANCH  22  25
ENDBRANCH   2  21
TORSDOF 6
ENDMDL
MODEL 4
REMARK VINA RESULT:      -8.8      7.108     10.419
REMARK  6 active torsions:
REMARK  status: ('A' for Active; 'I' for Inactive)
REMARK    1  A    between atoms: C_3  and  C_4 
REMARK    2  A    between atoms: C_4  and  N_5 
REMARK    3  A    between atoms: C_4  and  C_9 
REMARK       I    between atoms: N_5  and  C_6 
REMARK       I    between atoms: C_6  and  N_7 
REMARK    4  A    between atoms: C_9  and  C_10 
REMARK       I    between atoms: C_10  and  N_11 
REMARK    5  A    between atoms: N_11  and  N_12 
REMARK       I    between atoms: N_12  and  C_13 
REMARK    6  A    between atoms: C_13  and  C_14 
ROOT
HETATM    1  C   UNL     1      41.512 -16.266   0.489  1.00  0.00     0.238 C 
HETATM    2  N   UNL     1      41.405 -16.067  -0.868  1.00  0.00    -0.267 N 
HETATM    3  O   UNL     1      40.713 -15.771   1.282  1.00  0.00    -0.272 OA
HETATM    4  H   UNL     1      42.061 -16.408  -1.569  1.00  0.00     0.190 HD
ENDROOT
BRANCH   1   5
HETATM    5  C   UNL     1      42.686 -17.110   0.925  1.00  0.00     0.134 C 
BRANCH   5   6
HETATM    6  C   UNL     1      42.970 -17.002   2.431  1.00  0.00     0.129 C 
BRANCH   6   7
HETATM    7  C   UNL     1      43.597 -18.272   2.995  1.00  0.00    -0.013 A 
HETATM    8  C   UNL     1      44.008 -19.314   2.138  1.00  0.00     0.011 A 
HETATM    9  C   UNL     1      44.557 -20.496   2.642  1.00  0.00     0.001 A 
HETATM   10  C   UNL     1      44.707 -20.667   4.014  1.00  0.00     0.002 A 
HETATM   11  C   UNL     1      44.298 -19.659   4.883  1.00  0.00     0.024 A 
HETATM   12  C   UNL     1      43.741 -18.476   4.382  1.00  0.00     0.042 A 
HETATM   13 CL   UNL     1      43.225 -17.308   5.550  1.00  0.00    -0.084 Cl
ENDBRANCH   6   7
BRANCH   6  14
HETATM   14  N   UNL     1      43.724 -15.799   2.786  1.00  0.00    -0.339 N 
HETATM   15  C   UNL     1      43.232 -14.630   3.257  1.00  0.00     0.292 C 
HETATM   16  N   UNL     1      41.990 -14.650   3.779  1.00  0.00    -0.254 NA
HETATM   17  O   UNL     1      43.880 -13.594   3.210  1.00  0.00    -0.254 OA
HETATM   18  H   UNL     1      41.774 -15.424   4.389  1.00  0.00     0.128 HD
HETATM   19  H   UNL     1      41.732 -13.752   4.171  1.00  0.00     0.128 HD
HETATM   20  H   UNL     1      44.594 -15.629   2.296  1.00  0.00     0.164 HD
ENDBRANCH   6  14
ENDBRANCH   5   6
ENDBRANCH   1   5
BRANCH   2  21
HETATM   21  N   UNL     1      40.311 -15.333  -1.329  1.00  0.00    -0.263 N 
HETATM   22  C   UNL     1      40.170 -15.138  -2.687  1.00  0.00     0.270 C 
HETATM   23  O   UNL     1      41.016 -15.518  -3.494  1.00  0.00    -0.266 OA
HETATM   24  H   UNL     1      39.673 -14.989  -0.614  1.00  0.00     0.190 HD
BRANCH  22  25
HETATM   25  C   UNL     1      38.938 -14.430  -3.146  1.00  0.00     0.036 A 
HETATM   26  C   UNL     1      37.918 -15.082  -3.856  1.00  0.00     0.057 A 
HETATM   27  C   UNL     1      36.832 -14.329  -4.254  1.00  0.00     0.106 A 
HETATM   28  C   UNL     1      36.733 -12.985  -3.982  1.00  0.00     0.105 A 
HETATM   29  O   UNL     1      35.762 -14.796  -4.951  1.00  0.00    -0.323 OA
HETATM   30  O   UNL     1      35.588 -12.439  -4.471  1.00  0.00    -0.323 OA
HETATM   31  C   UNL     1      37.718 -12.312  -3.294  1.00  0.00     0.041 A 
HETATM   32  C   UNL     1      34.979 -13.592  -5.091  1.00  0.00     0.352 A 
HETATM   33  C   UNL     1      38.833 -13.046  -2.875  1.00  0.00     0.020 A 
ENDBRANCH  22  25
ENDBRANCH   2  21
TORSDOF 6
ENDMDL
MODEL 5
REMARK VINA RESULT:      -8.8      6.521     10.188
REMARK  6 active torsions:
REMARK  status: ('A' for Active; 'I' for Inactive)
REMARK    1  A    between atoms: C_3  and  C_4 
REMARK    2  A    between atoms: C_4  and  N_5 
REMARK    3  A    between atoms: C_4  and  C_9 
REMARK       I    between atoms: N_5  and  C_6 
REMARK       I    between atoms: C_6  and  N_7 
REMARK    4  A    between atoms: C_9  and  C_10 
REMARK       I    between atoms: C_10  and  N_11 
REMARK    5  A    between atoms: N_11  and  N_12 
REMARK       I    between atoms: N_12  and  C_13 
REMARK    6  A    between atoms: C_13  and  C_14 
ROOT
HETATM    1  C   UNL     1      41.348 -14.605  -0.792  1.00  0.00     0.238 C 
HETATM    2  N   UNL     1      41.567 -15.964  -0.805  1.00  0.00    -0.267 N 
HETATM    3  O   UNL     1      41.769 -13.890   0.115  1.00  0.00    -0.272 OA
HETATM    4  H   UNL     1      41.203 -16.615  -1.499  1.00  0.00     0.190 HD
ENDROOT
BRANCH   1   5
HETATM    5  C   UNL     1      40.538 -14.073  -1.950  1.00  0.00     0.134 C 
BRANCH   5   6
HETATM    6  C   UNL     1      39.075 -14.538  -1.916  1.00  0.00     0.129 C 
BRANCH   6   7
HETATM    7  C   UNL     1      38.145 -13.484  -1.325  1.00  0.00    -0.013 A 
HETATM    8  C   UNL     1      37.622 -12.452  -2.131  1.00  0.00     0.011 A 
HETATM    9  C   UNL     1      36.793 -11.462  -1.597  1.00  0.00     0.001 A 
HETATM   10  C   UNL     1      36.467 -11.478  -0.245  1.00  0.00     0.002 A 
HETATM   11  C   UNL     1      36.980 -12.479   0.575  1.00  0.00     0.024 A 
HETATM   12  C   UNL     1      37.817 -13.468   0.046  1.00  0.00     0.042 A 
HETATM   13 CL   UNL     1      38.436 -14.638   1.161  1.00  0.00    -0.084 Cl
ENDBRANCH   6   7
BRANCH   6  14
HETATM   14  N   UNL     1      38.605 -15.040  -3.209  1.00  0.00    -0.339 N 
HETATM   15  C   UNL     1      39.019 -16.152  -3.858  1.00  0.00     0.292 C 
HETATM   16  N   UNL     1      39.669 -17.083  -3.133  1.00  0.00    -0.254 NA
HETATM   17  O   UNL     1      38.820 -16.310  -5.055  1.00  0.00    -0.254 OA
HETATM   18  H   UNL     1      39.277 -17.298  -2.228  1.00  0.00     0.128 HD
HETATM   19  H   UNL     1      39.877 -17.909  -3.682  1.00  0.00     0.128 HD
HETATM   20  H   UNL     1      38.263 -14.362  -3.878  1.00  0.00     0.164 HD
ENDBRANCH   6  14
ENDBRANCH   5   6
ENDBRANCH   1   5
BRANCH   2  21
HETATM   21  N   UNL     1      42.350 -16.502   0.218  1.00  0.00    -0.263 N 
HETATM   22  C   UNL     1      41.732 -17.239   1.206  1.00  0.00     0.270 C 
HETATM   23  O   UNL     1      40.510 -17.368   1.259  1.00  0.00    -0.266 OA
HETATM   24  H   UNL     1      43.348 -16.314   0.159  1.00  0.00     0.190 HD
BRANCH  22  25
HETATM   25  C   UNL     1      42.613 -17.876   2.228  1.00  0.00     0.036 A 
HETATM   26  C   UNL     1      43.154 -19.160   2.059  1.00  0.00     0.057 A 
HETATM   27  C   UNL     1      43.938 -19.665   3.076  1.00  0.00     0.106 A 
HETATM   28  C   UNL     1      44.189 -18.957   4.228  1.00  0.00     0.105 A 
HETATM   29  O   UNL     1      44.533 -20.888   3.080  1.00  0.00    -0.323 OA
HETATM   30  O   UNL     1      44.976 -19.644   5.098  1.00  0.00    -0.323 OA
HETATM   31  C   UNL     1      43.669 -17.698   4.431  1.00  0.00     0.041 A 
HETATM   32  C   UNL     1      45.185 -20.871   4.367  1.00  0.00     0.352 A 
HETATM   33  C   UNL     1      42.871 -17.156   3.418  1.00  0.00     0.020 A 
ENDBRANCH  22  25
ENDBRANCH   2  21
TORSDOF 6
ENDMDL
MODEL 6
REMARK VINA RESULT:      -8.5      2.067      2.449
REMARK  6 active torsions:
REMARK  status: ('A' for Active; 'I' for Inactive)
REMARK    1  A    between atoms: C_3  and  C_4 
REMARK    2  A    between atoms: C_4  and  N_5 
REMARK    3  A    between atoms: C_4  and  C_9 
REMARK       I    between atoms: N_5  and  C_6 
REMARK       I    between atoms: C_6  and  N_7 
REMARK    4  A    between atoms: C_9  and  C_10 
REMARK       I    between atoms: C_10  and  N_11 
REMARK    5  A    between atoms: N_11  and  N_12 
REMARK       I    between atoms: N_12  and  C_13 
REMARK    6  A    between atoms: C_13  and  C_14 
ROOT
HETATM    1  C   UNL     1      43.331 -13.713   4.541  1.00  0.00     0.238 C 
HETATM    2  N   UNL     1      43.915 -14.097   5.726  1.00  0.00    -0.267 N 
HETATM    3  O   UNL     1      42.532 -12.779   4.484  1.00  0.00    -0.272 OA
HETATM    4  H   UNL     1      44.543 -14.890   5.847  1.00  0.00     0.190 HD
ENDROOT
BRANCH   1   5
HETATM    5  C   UNL     1      43.722 -14.535   3.336  1.00  0.00     0.134 C 
BRANCH   5   6
HETATM    6  C   UNL     1      42.692 -15.623   2.998  1.00  0.00     0.129 C 
BRANCH   6   7
HETATM    7  C   UNL     1      43.123 -17.001   3.490  1.00  0.00    -0.013 A 
HETATM    8  C   UNL     1      43.009 -17.348   4.851  1.00  0.00     0.011 A 
HETATM    9  C   UNL     1      43.428 -18.596   5.321  1.00  0.00     0.001 A 
HETATM   10  C   UNL     1      43.971 -19.527   4.442  1.00  0.00     0.002 A 
HETATM   11  C   UNL     1      44.106 -19.205   3.094  1.00  0.00     0.024 A 
HETATM   12  C   UNL     1      43.694 -17.953   2.621  1.00  0.00     0.042 A 
HETATM   13 CL   UNL     1      43.949 -17.639   0.939  1.00  0.00    -0.084 Cl
ENDBRANCH   6   7
BRANCH   6  14
HETATM   14  N   UNL     1      41.334 -15.276   3.421  1.00  0.00    -0.339 N 
HETATM   15  C   UNL     1      40.217 -15.255   2.660  1.00  0.00     0.292 C 
HETATM   16  N   UNL     1      40.252 -15.932   1.494  1.00  0.00    -0.254 NA
HETATM   17  O   UNL     1      39.214 -14.646   3.005  1.00  0.00    -0.254 OA
HETATM   18  H   UNL     1      40.673 -16.848   1.522  1.00  0.00     0.128 HD
HETATM   19  H   UNL     1      39.353 -15.921   1.026  1.00  0.00     0.128 HD
HETATM   20  H   UNL     1      41.235 -14.624   4.190  1.00  0.00     0.164 HD
ENDBRANCH   6  14
ENDBRANCH   5   6
ENDBRANCH   1   5
BRANCH   2  21
HETATM   21  N   UNL     1      43.625 -13.342   6.864  1.00  0.00    -0.263 N 
HETATM   22  C   UNL     1      44.666 -12.933   7.670  1.00  0.00     0.270 C 
HETATM   23  O   UNL     1      45.828 -13.278   7.465  1.00  0.00    -0.266 OA
HETATM   24  H   UNL     1      42.641 -13.135   7.021  1.00  0.00     0.190 HD
BRANCH  22  25
HETATM   25  C   UNL     1      44.323 -12.049   8.824  1.00  0.00     0.036 A 
HETATM   26  C   UNL     1      43.193 -11.216   8.822  1.00  0.00     0.057 A 
HETATM   27  C   UNL     1      42.981 -10.421   9.931  1.00  0.00     0.106 A 
HETATM   28  C   UNL     1      43.836 -10.423  11.008  1.00  0.00     0.105 A 
HETATM   29  O   UNL     1      41.945  -9.555  10.093  1.00  0.00    -0.323 OA
HETATM   30  O   UNL     1      43.444  -9.561  11.983  1.00  0.00    -0.323 OA
HETATM   31  C   UNL     1      44.958 -11.221  11.040  1.00  0.00     0.041 A 
HETATM   32  C   UNL     1      42.247  -9.009  11.394  1.00  0.00     0.352 A 
HETATM   33  C   UNL     1      45.201 -12.041   9.932  1.00  0.00     0.020 A 
ENDBRANCH  22  25
ENDBRANCH   2  21
TORSDOF 6
ENDMDL
MODEL 7
REMARK VINA RESULT:      -8.3      6.748      9.867
REMARK  6 active torsions:
REMARK  status: ('A' for Active; 'I' for Inactive)
REMARK    1  A    between atoms: C_3  and  C_4 
REMARK    2  A    between atoms: C_4  and  N_5 
REMARK    3  A    between atoms: C_4  and  C_9 
REMARK       I    between atoms: N_5  and  C_6 
REMARK       I    between atoms: C_6  and  N_7 
REMARK    4  A    between atoms: C_9  and  C_10 
REMARK       I    between atoms: C_10  and  N_11 
REMARK    5  A    between atoms: N_11  and  N_12 
REMARK       I    between atoms: N_12  and  C_13 
REMARK    6  A    between atoms: C_13  and  C_14 
ROOT
HETATM    1  C   UNL     1      40.224 -14.467   0.441  1.00  0.00     0.238 C 
HETATM    2  N   UNL     1      39.770 -15.449   1.292  1.00  0.00    -0.267 N 
HETATM    3  O   UNL     1      41.388 -14.073   0.469  1.00  0.00    -0.272 OA
HETATM    4  H   UNL     1      38.809 -15.782   1.352  1.00  0.00     0.190 HD
ENDROOT
BRANCH   1   5
HETATM    5  C   UNL     1      39.187 -13.901  -0.498  1.00  0.00     0.134 C 
BRANCH   5   6
HETATM    6  C   UNL     1      39.573 -14.061  -1.976  1.00  0.00     0.129 C 
BRANCH   6   7
HETATM    7  C   UNL     1      38.386 -13.853  -2.911  1.00  0.00    -0.013 A 
HETATM    8  C   UNL     1      37.647 -12.652  -2.881  1.00  0.00     0.011 A 
HETATM    9  C   UNL     1      36.540 -12.459  -3.711  1.00  0.00     0.001 A 
HETATM   10  C   UNL     1      36.141 -13.461  -4.589  1.00  0.00     0.002 A 
HETATM   11  C   UNL     1      36.847 -14.661  -4.630  1.00  0.00     0.024 A 
HETATM   12  C   UNL     1      37.952 -14.861  -3.796  1.00  0.00     0.042 A 
HETATM   13 CL   UNL     1      38.728 -16.404  -3.895  1.00  0.00    -0.084 Cl
ENDBRANCH   6   7
BRANCH   6  14
HETATM   14  N   UNL     1      40.733 -13.253  -2.355  1.00  0.00    -0.339 N 
HETATM   15  C   UNL     1      41.888 -13.684  -2.910  1.00  0.00     0.292 C 
HETATM   16  N   UNL     1      41.877 -14.899  -3.493  1.00  0.00    -0.254 NA
HETATM   17  O   UNL     1      42.907 -13.007  -2.884  1.00  0.00    -0.254 OA
HETATM   18  H   UNL     1      41.078 -15.109  -4.072  1.00  0.00     0.128 HD
HETATM   19  H   UNL     1      42.760 -15.109  -3.943  1.00  0.00     0.128 HD
HETATM   20  H   UNL     1      40.903 -12.403  -1.831  1.00  0.00     0.164 HD
ENDBRANCH   6  14
ENDBRANCH   5   6
ENDBRANCH   1   5
BRANCH   2  21
HETATM   21  N   UNL     1      40.699 -16.040   2.150  1.00  0.00    -0.263 N 
HETATM   22  C   UNL     1      41.175 -17.298   1.845  1.00  0.00     0.270 C 
HETATM   23  O   UNL     1      40.750 -17.945   0.890  1.00  0.00    -0.266 OA
HETATM   24  H   UNL     1      40.972 -15.486   2.959  1.00  0.00     0.190 HD
BRANCH  22  25
HETATM   25  C   UNL     1      42.236 -17.856   2.735  1.00  0.00     0.036 A 
HETATM   26  C   UNL     1      42.554 -17.281   3.976  1.00  0.00     0.057 A 
HETATM   27  C   UNL     1      43.568 -17.863   4.711  1.00  0.00     0.106 A 
HETATM   28  C   UNL     1      44.261 -18.962   4.261  1.00  0.00     0.105 A 
HETATM   29  O   UNL     1      44.006 -17.435   5.925  1.00  0.00    -0.323 OA
HETATM   30  O   UNL     1      45.220 -19.364   5.136  1.00  0.00    -0.323 OA
HETATM   31  C   UNL     1      43.981 -19.546   3.045  1.00  0.00     0.041 A 
HETATM   32  C   UNL     1      45.058 -18.387   6.187  1.00  0.00     0.352 A 
HETATM   33  C   UNL     1      42.958 -18.982   2.276  1.00  0.00     0.020 A 
ENDBRANCH  22  25
ENDBRANCH   2  21
TORSDOF 6
ENDMDL
MODEL 8
REMARK VINA RESULT:      -8.1      6.938      9.660
REMARK  6 active torsions:
REMARK  status: ('A' for Active; 'I' for Inactive)
REMARK    1  A    between atoms: C_3  and  C_4 
REMARK    2  A    between atoms: C_4  and  N_5 
REMARK    3  A    between atoms: C_4  and  C_9 
REMARK       I    between atoms: N_5  and  C_6 
REMARK       I    between atoms: C_6  and  N_7 
REMARK    4  A    between atoms: C_9  and  C_10 
REMARK       I    between atoms: C_10  and  N_11 
REMARK    5  A    between atoms: N_11  and  N_12 
REMARK       I    between atoms: N_12  and  C_13 
REMARK    6  A    between atoms: C_13  and  C_14 
ROOT
HETATM    1  C   UNL     1      41.197 -16.095   0.979  1.00  0.00     0.238 C 
HETATM    2  N   UNL     1      41.877 -16.052  -0.217  1.00  0.00    -0.267 N 
HETATM    3  O   UNL     1      40.550 -15.135   1.392  1.00  0.00    -0.272 OA
HETATM    4  H   UNL     1      42.469 -16.793  -0.588  1.00  0.00     0.190 HD
ENDROOT
BRANCH   1   5
HETATM    5  C   UNL     1      41.328 -17.389   1.746  1.00  0.00     0.134 C 
BRANCH   5   6
HETATM    6  C   UNL     1      42.415 -17.331   2.829  1.00  0.00     0.129 C 
BRANCH   6   7
HETATM    7  C   UNL     1      43.197 -18.636   2.936  1.00  0.00    -0.013 A 
HETATM    8  C   UNL     1      43.145 -19.593   1.902  1.00  0.00     0.011 A 
HETATM    9  C   UNL     1      43.833 -20.806   1.999  1.00  0.00     0.001 A 
HETATM   10  C   UNL     1      44.587 -21.093   3.132  1.00  0.00     0.002 A 
HETATM   11  C   UNL     1      44.645 -20.170   4.173  1.00  0.00     0.024 A 
HETATM   12  C   UNL     1      43.952 -18.957   4.082  1.00  0.00     0.042 A 
HETATM   13 CL   UNL     1      44.055 -17.903   5.450  1.00  0.00    -0.084 Cl
ENDBRANCH   6   7
BRANCH   6  14
HETATM   14  N   UNL     1      43.288 -16.163   2.702  1.00  0.00    -0.339 N 
HETATM   15  C   UNL     1      43.236 -15.018   3.418  1.00  0.00     0.292 C 
HETATM   16  N   UNL     1      42.560 -15.049   4.584  1.00  0.00    -0.254 NA
HETATM   17  O   UNL     1      43.773 -13.990   3.029  1.00  0.00    -0.254 OA
HETATM   18  H   UNL     1      42.718 -15.854   5.170  1.00  0.00     0.128 HD
HETATM   19  H   UNL     1      42.634 -14.171   5.085  1.00  0.00     0.128 HD
HETATM   20  H   UNL     1      43.693 -15.979   1.793  1.00  0.00     0.164 HD
ENDBRANCH   6  14
ENDBRANCH   5   6
ENDBRANCH   1   5
BRANCH   2  21
HETATM   21  N   UNL     1      41.752 -14.895  -0.989  1.00  0.00    -0.263 N 
HETATM   22  C   UNL     1      41.068 -14.968  -2.184  1.00  0.00     0.270 C 
HETATM   23  O   UNL     1      40.636 -16.030  -2.628  1.00  0.00    -0.266 OA
HETATM   24  H   UNL     1      42.180 -14.056  -0.604  1.00  0.00     0.190 HD
BRANCH  22  25
HETATM   25  C   UNL     1      40.875 -13.691  -2.933  1.00  0.00     0.036 A 
HETATM   26  C   UNL     1      41.950 -12.966  -3.470  1.00  0.00     0.057 A 
HETATM   27  C   UNL     1      41.664 -11.785  -4.126  1.00  0.00     0.106 A 
HETATM   28  C   UNL     1      40.379 -11.313  -4.256  1.00  0.00     0.105 A 
HETATM   29  O   UNL     1      42.580 -10.959  -4.698  1.00  0.00    -0.323 OA
HETATM   30  O   UNL     1      40.326 -10.132  -4.928  1.00  0.00    -0.323 OA
HETATM   31  C   UNL     1      39.302 -11.994  -3.735  1.00  0.00     0.041 A 
HETATM   32  C   UNL     1      41.726  -9.910  -5.200  1.00  0.00     0.352 A 
HETATM   33  C   UNL     1      39.558 -13.196  -3.065  1.00  0.00     0.020 A 
ENDBRANCH  22  25
ENDBRANCH   2  21
TORSDOF 6
ENDMDL
MODEL 9
REMARK VINA RESULT:      -8.1      6.807     10.041
REMARK  6 active torsions:
REMARK  status: ('A' for Active; 'I' for Inactive)
REMARK    1  A    between atoms: C_3  and  C_4 
REMARK    2  A    between atoms: C_4  and  N_5 
REMARK    3  A    between atoms: C_4  and  C_9 
REMARK       I    between atoms: N_5  and  C_6 
REMARK       I    between atoms: C_6  and  N_7 
REMARK    4  A    between atoms: C_9  and  C_10 
REMARK       I    between atoms: C_10  and  N_11 
REMARK    5  A    between atoms: N_11  and  N_12 
REMARK       I    between atoms: N_12  and  C_13 
REMARK    6  A    between atoms: C_13  and  C_14 
ROOT
HETATM    1  C   UNL     1      40.179 -15.558   1.280  1.00  0.00     0.238 C 
HETATM    2  N   UNL     1      41.045 -16.289   0.500  1.00  0.00    -0.267 N 
HETATM    3  O   UNL     1      39.891 -15.900   2.425  1.00  0.00    -0.272 OA
HETATM    4  H   UNL     1      41.284 -16.086  -0.469  1.00  0.00     0.190 HD
ENDROOT
BRANCH   1   5
HETATM    5  C   UNL     1      39.598 -14.331   0.618  1.00  0.00     0.134 C 
BRANCH   5   6
HETATM    6  C   UNL     1      40.246 -14.025  -0.740  1.00  0.00     0.129 C 
BRANCH   6   7
HETATM    7  C   UNL     1      39.229 -14.006  -1.876  1.00  0.00    -0.013 A 
HETATM    8  C   UNL     1      38.180 -13.064  -1.888  1.00  0.00     0.011 A 
HETATM    9  C   UNL     1      37.224 -13.054  -2.907  1.00  0.00     0.001 A 
HETATM   10  C   UNL     1      37.291 -13.985  -3.938  1.00  0.00     0.002 A 
HETATM   11  C   UNL     1      38.310 -14.933  -3.944  1.00  0.00     0.024 A 
HETATM   12  C   UNL     1      39.266 -14.951  -2.921  1.00  0.00     0.042 A 
HETATM   13 CL   UNL     1      40.461 -16.200  -3.001  1.00  0.00    -0.084 Cl
ENDBRANCH   6   7
BRANCH   6  14
HETATM   14  N   UNL     1      41.084 -12.824  -0.717  1.00  0.00    -0.339 N 
HETATM   15  C   UNL     1      42.287 -12.651  -1.308  1.00  0.00     0.292 C 
HETATM   16  N   UNL     1      42.620 -13.510  -2.292  1.00  0.00    -0.254 NA
HETATM   17  O   UNL     1      43.049 -11.757  -0.967  1.00  0.00    -0.254 OA
HETATM   18  H   UNL     1      41.897 -13.723  -2.963  1.00  0.00     0.128 HD
HETATM   19  H   UNL     1      43.503 -13.262  -2.725  1.00  0.00     0.128 HD
HETATM   20  H   UNL     1      41.010 -12.218   0.091  1.00  0.00     0.164 HD
ENDBRANCH   6  14
ENDBRANCH   5   6
ENDBRANCH   1   5
BRANCH   2  21
HETATM   21  N   UNL     1      41.648 -17.408   1.079  1.00  0.00    -0.263 N 
HETATM   22  C   UNL     1      42.870 -17.255   1.698  1.00  0.00     0.270 C 
HETATM   23  O   UNL     1      43.481 -16.188   1.686  1.00  0.00    -0.266 OA
HETATM   24  H   UNL     1      41.128 -18.280   1.007  1.00  0.00     0.190 HD
BRANCH  22  25
HETATM   25  C   UNL     1      43.436 -18.453   2.385  1.00  0.00     0.036 A 
HETATM   26  C   UNL     1      43.450 -19.724   1.790  1.00  0.00     0.057 A 
HETATM   27  C   UNL     1      43.977 -20.770   2.523  1.00  0.00     0.106 A 
HETATM   28  C   UNL     1      44.469 -20.598   3.795  1.00  0.00     0.105 A 
HETATM   29  O   UNL     1      44.063 -22.060   2.104  1.00  0.00    -0.323 OA
HETATM   30  O   UNL     1      44.930 -21.757   4.334  1.00  0.00    -0.323 OA
HETATM   31  C   UNL     1      44.464 -19.367   4.412  1.00  0.00     0.041 A 
HETATM   32  C   UNL     1      44.663 -22.683   3.259  1.00  0.00     0.352 A 
HETATM   33  C   UNL     1      43.939 -18.285   3.696  1.00  0.00     0.020 A 
ENDBRANCH  22  25
ENDBRANCH   2  21
TORSDOF 6
ENDMDL
MODEL 10
REMARK VINA RESULT:      -8.0      5.064      9.350
REMARK  6 active torsions:
REMARK  status: ('A' for Active; 'I' for Inactive)
REMARK    1  A    between atoms: C_3  and  C_4 
REMARK    2  A    between atoms: C_4  and  N_5 
REMARK    3  A    between atoms: C_4  and  C_9 
REMARK       I    between atoms: N_5  and  C_6 
REMARK       I    between atoms: C_6  and  N_7 
REMARK    4  A    between atoms: C_9  and  C_10 
REMARK       I    between atoms: C_10  and  N_11 
REMARK    5  A    between atoms: N_11  and  N_12 
REMARK       I    between atoms: N_12  and  C_13 
REMARK    6  A    between atoms: C_13  and  C_14 
ROOT
HETATM    1  C   UNL     1      41.821 -15.093   2.215  1.00  0.00     0.238 C 
HETATM    2  N   UNL     1      43.094 -15.441   2.606  1.00  0.00    -0.267 N 
HETATM    3  O   UNL     1      41.038 -15.918   1.748  1.00  0.00    -0.272 OA
HETATM    4  H   UNL     1      43.803 -14.797   2.952  1.00  0.00     0.190 HD
ENDROOT
BRANCH   1   5
HETATM    5  C   UNL     1      41.475 -13.632   2.379  1.00  0.00     0.134 C 
BRANCH   5   6
HETATM    6  C   UNL     1      40.191 -13.413   3.193  1.00  0.00     0.129 C 
BRANCH   6   7
HETATM    7  C   UNL     1      39.005 -13.034   2.313  1.00  0.00    -0.013 A 
HETATM    8  C   UNL     1      38.418 -13.982   1.449  1.00  0.00     0.011 A 
HETATM    9  C   UNL     1      37.350 -13.641   0.615  1.00  0.00     0.001 A 
HETATM   10  C   UNL     1      36.843 -12.346   0.622  1.00  0.00     0.002 A 
HETATM   11  C   UNL     1      37.412 -11.389   1.457  1.00  0.00     0.024 A 
HETATM   12  C   UNL     1      38.486 -11.724   2.289  1.00  0.00     0.042 A 
HETATM   13 CL   UNL     1      39.148 -10.447   3.252  1.00  0.00    -0.084 Cl
ENDBRANCH   6   7
BRANCH   6  14
HETATM   14  N   UNL     1      39.889 -14.526   4.094  1.00  0.00    -0.339 N 
HETATM   15  C   UNL     1      40.337 -14.704   5.358  1.00  0.00     0.292 C 
HETATM   16  N   UNL     1      40.829 -13.624   5.996  1.00  0.00    -0.254 NA
HETATM   17  O   UNL     1      40.306 -15.799   5.903  1.00  0.00    -0.254 OA
HETATM   18  H   UNL     1      40.301 -12.770   5.900  1.00  0.00     0.128 HD
HETATM   19  H   UNL     1      41.074 -13.834   6.957  1.00  0.00     0.128 HD
HETATM   20  H   UNL     1      39.681 -15.424   3.676  1.00  0.00     0.164 HD
ENDBRANCH   6  14
ENDBRANCH   5   6
ENDBRANCH   1   5
BRANCH   2  21
HETATM   21  N   UNL     1      43.450 -16.788   2.520  1.00  0.00    -0.263 N 
HETATM   22  C   UNL     1      43.625 -17.502   3.686  1.00  0.00     0.270 C 
HETATM   23  O   UNL     1      43.555 -16.974   4.794  1.00  0.00    -0.266 OA
HETATM   24  H   UNL     1      43.555 -17.161   1.578  1.00  0.00     0.190 HD
BRANCH  22  25
HETATM   25  C   UNL     1      43.913 -18.961   3.551  1.00  0.00     0.036 A 
HETATM   26  C   UNL     1      44.360 -19.741   4.629  1.00  0.00     0.057 A 
HETATM   27  C   UNL     1      44.619 -21.076   4.390  1.00  0.00     0.106 A 
HETATM   28  C   UNL     1      44.459 -21.642   3.148  1.00  0.00     0.105 A 
HETATM   29  O   UNL     1      45.062 -21.970   5.315  1.00  0.00    -0.323 OA
HETATM   30  O   UNL     1      44.778 -22.964   3.136  1.00  0.00    -0.323 OA
HETATM   31  C   UNL     1      44.030 -20.905   2.067  1.00  0.00     0.041 A 
HETATM   32  C   UNL     1      45.166 -23.164   4.512  1.00  0.00     0.352 A 
HETATM   33  C   UNL     1      43.757 -19.549   2.275  1.00  0.00     0.020 A 
ENDBRANCH  22  25
ENDBRANCH   2  21
TORSDOF 6
ENDMDL
