MODEL 1
REMARK VINA RESULT:      -9.4      0.000      0.000
REMARK  9 active torsions:
REMARK  status: ('A' for Active; 'I' for Inactive)
REMARK    1  A    between atoms: C_2  and  C_3 
REMARK    2  A    between atoms: C_3  and  C_4 
REMARK    3  A    between atoms: C_4  and  C_5 
REMARK    4  A    between atoms: C_5  and  N_6 
REMARK    5  A    between atoms: C_15  and  C_16 
REMARK       I    between atoms: C_16  and  N_17 
REMARK    6  A    between atoms: N_17  and  C_18 
REMARK    7  A    between atoms: C_18  and  C_19 
REMARK    8  A    between atoms: C_19  and  N_20 
REMARK    9  A    between atoms: N_24  and  C_25 
ROOT
HETATM    1  C   UNL     1      39.445 -11.279   6.007  1.00  0.00     0.251 C 
HETATM    2  N   UNL     1      40.169 -12.393   5.650  1.00  0.00    -0.355 N 
HETATM    3  O   UNL     1      38.652 -10.736   5.243  1.00  0.00    -0.268 OA
HETATM    4  H   UNL     1      40.783 -12.800   6.348  1.00  0.00     0.162 HD
ENDROOT
BRANCH   1   5
HETATM    5  C   UNL     1      39.644 -10.739   7.374  1.00  0.00     0.034 A 
HETATM    6  C   UNL     1      39.523 -11.556   8.507  1.00  0.00     0.047 A 
HETATM    7  C   UNL     1      39.844 -11.035   9.763  1.00  0.00     0.053 A 
HETATM    8  N   UNL     1      39.765 -11.842  10.894  1.00  0.00    -0.308 N 
HETATM    9  C   UNL     1      40.266  -9.717   9.893  1.00  0.00     0.059 A 
HETATM   10  C   UNL     1      40.125 -11.436  12.150  1.00  0.00     0.329 A 
HETATM   11  H   UNL     1      39.451 -12.803  10.842  1.00  0.00     0.170 HD
HETATM   12  N   UNL     1      40.601 -10.142  12.274  1.00  0.00    -0.266 N 
HETATM   13  O   UNL     1      40.011 -12.231  13.080  1.00  0.00    -0.246 OA
HETATM   14  C   UNL     1      40.642  -9.221  11.231  1.00  0.00     0.264 A 
HETATM   15  O   UNL     1      40.973  -8.045  11.353  1.00  0.00    -0.267 OA
HETATM   16  C   UNL     1      40.369  -8.894   8.767  1.00  0.00     0.020 A 
HETATM   17  C   UNL     1      40.068  -9.410   7.506  1.00  0.00     0.018 A 
BRANCH  12  18
HETATM   18  C   UNL     1      41.032  -9.691  13.594  1.00  0.00     0.137 C 
BRANCH  18  19
HETATM   19  C   UNL     1      42.390 -10.280  13.987  1.00  0.00     0.020 C 
BRANCH  19  20
HETATM   20  C   UNL     1      43.494  -9.772  13.060  1.00  0.00     0.001 C 
BRANCH  20  21
HETATM   21  C   UNL     1      43.942 -10.853  12.077  1.00  0.00    -0.004 C 
HETATM   22  C   UNL     1      44.071 -10.302  10.667  1.00  0.00     0.005 C 
ENDBRANCH  20  21
ENDBRANCH  19  20
ENDBRANCH  18  19
ENDBRANCH  12  18
ENDBRANCH   1   5
BRANCH   2  23
HETATM   23  C   UNL     1      40.349 -12.859   4.275  1.00  0.00     0.150 C 
BRANCH  23  24
HETATM   24  C   UNL     1      39.981 -14.332   3.965  1.00  0.00     0.254 C 
BRANCH  24  25
HETATM   25  N   UNL     1      41.012 -15.048   3.131  1.00  0.00    -0.067 N 
HETATM   26  H   UNL     1      41.105 -14.489   2.257  1.00  0.00     0.280 HD
HETATM   27  C   UNL     1      42.420 -15.091   3.717  1.00  0.00     0.254 C 
HETATM   28  C   UNL     1      43.401 -15.682   2.684  1.00  0.00     0.150 C 
HETATM   29  N   UNL     1      42.949 -17.008   2.228  1.00  0.00    -0.378 N 
HETATM   30  C   UNL     1      41.579 -17.036   1.677  1.00  0.00     0.150 C 
HETATM   31  C   UNL     1      40.570 -16.438   2.685  1.00  0.00     0.254 C 
BRANCH  29  32
HETATM   32  C   UNL     1      43.514 -18.180   2.715  1.00  0.00     0.031 A 
HETATM   33  C   UNL     1      43.595 -19.359   1.959  1.00  0.00     0.053 A 
HETATM   34  C   UNL     1      44.142 -20.533   2.490  1.00  0.00     0.036 A 
HETATM   35 CL   UNL     1      44.224 -21.946   1.510  1.00  0.00    -0.084 Cl
HETATM   36  C   UNL     1      44.617 -20.569   3.794  1.00  0.00     0.024 A 
HETATM   37  C   UNL     1      44.540 -19.420   4.572  1.00  0.00     0.004 A 
HETATM   38  C   UNL     1      43.994 -18.248   4.035  1.00  0.00     0.029 A 
ENDBRANCH  29  32
ENDBRANCH  24  25
ENDBRANCH  23  24
ENDBRANCH   2  23
TORSDOF 9
ENDMDL
MODEL 2
REMARK VINA RESULT:      -9.1      1.276      1.815
REMARK  9 active torsions:
REMARK  status: ('A' for Active; 'I' for Inactive)
REMARK    1  A    between atoms: C_2  and  C_3 
REMARK    2  A    between atoms: C_3  and  C_4 
REMARK    3  A    between atoms: C_4  and  C_5 
REMARK    4  A    between atoms: C_5  and  N_6 
REMARK    5  A    between atoms: C_15  and  C_16 
REMARK       I    between atoms: C_16  and  N_17 
REMARK    6  A    between atoms: N_17  and  C_18 
REMARK    7  A    between atoms: C_18  and  C_19 
REMARK    8  A    between atoms: C_19  and  N_20 
REMARK    9  A    between atoms: N_24  and  C_25 
ROOT
HETATM    1  C   UNL     1      39.579 -11.327   5.981  1.00  0.00     0.251 C 
HETATM    2  N   UNL     1      40.515 -10.981   5.035  1.00  0.00    -0.355 N 
HETATM    3  O   UNL     1      38.638 -12.076   5.734  1.00  0.00    -0.268 OA
HETATM    4  H   UNL     1      41.279 -10.379   5.326  1.00  0.00     0.162 HD
ENDROOT
BRANCH   1   5
HETATM    5  C   UNL     1      39.740 -10.766   7.345  1.00  0.00     0.034 A 
HETATM    6  C   UNL     1      39.611 -11.571   8.486  1.00  0.00     0.047 A 
HETATM    7  C   UNL     1      39.897 -11.027   9.741  1.00  0.00     0.053 A 
HETATM    8  N   UNL     1      39.811 -11.820  10.881  1.00  0.00    -0.308 N 
HETATM    9  C   UNL     1      40.293  -9.699   9.863  1.00  0.00     0.059 A 
HETATM   10  C   UNL     1      40.137 -11.391  12.139  1.00  0.00     0.329 A 
HETATM   11  H   UNL     1      39.515 -12.787  10.836  1.00  0.00     0.170 HD
HETATM   12  N   UNL     1      40.587 -10.087  12.255  1.00  0.00    -0.266 N 
HETATM   13  O   UNL     1      40.019 -12.176  13.077  1.00  0.00    -0.246 OA
HETATM   14  C   UNL     1      40.632  -9.179  11.200  1.00  0.00     0.264 A 
HETATM   15  O   UNL     1      40.939  -7.995  11.313  1.00  0.00    -0.267 OA
HETATM   16  C   UNL     1      40.403  -8.890   8.727  1.00  0.00     0.020 A 
HETATM   17  C   UNL     1      40.138  -9.428   7.467  1.00  0.00     0.018 A 
BRANCH  12  18
HETATM   18  C   UNL     1      40.983  -9.611  13.577  1.00  0.00     0.137 C 
BRANCH  18  19
HETATM   19  C   UNL     1      42.332 -10.187  14.015  1.00  0.00     0.020 C 
BRANCH  19  20
HETATM   20  C   UNL     1      43.451  -9.728  13.079  1.00  0.00     0.001 C 
BRANCH  20  21
HETATM   21  C   UNL     1      43.881 -10.845  12.129  1.00  0.00    -0.004 C 
HETATM   22  C   UNL     1      44.089 -10.322  10.717  1.00  0.00     0.005 C 
ENDBRANCH  20  21
ENDBRANCH  19  20
ENDBRANCH  18  19
ENDBRANCH  12  18
ENDBRANCH   1   5
BRANCH   2  23
HETATM   23  C   UNL     1      40.344 -11.165   3.594  1.00  0.00     0.150 C 
BRANCH  23  24
HETATM   24  C   UNL     1      41.286 -12.169   2.883  1.00  0.00     0.254 C 
BRANCH  24  25
HETATM   25  N   UNL     1      40.919 -13.610   3.119  1.00  0.00    -0.067 N 
HETATM   26  H   UNL     1      39.916 -13.603   3.398  1.00  0.00     0.280 HD
HETATM   27  C   UNL     1      40.975 -14.514   1.891  1.00  0.00     0.254 C 
HETATM   28  C   UNL     1      40.400 -15.904   2.235  1.00  0.00     0.150 C 
HETATM   29  N   UNL     1      41.099 -16.492   3.390  1.00  0.00    -0.378 N 
HETATM   30  C   UNL     1      41.105 -15.648   4.602  1.00  0.00     0.150 C 
HETATM   31  C   UNL     1      41.667 -14.242   4.288  1.00  0.00     0.254 C 
BRANCH  29  32
HETATM   32  C   UNL     1      42.073 -17.470   3.232  1.00  0.00     0.031 A 
HETATM   33  C   UNL     1      42.952 -17.844   4.261  1.00  0.00     0.053 A 
HETATM   34  C   UNL     1      43.944 -18.811   4.060  1.00  0.00     0.036 A 
HETATM   35 CL   UNL     1      44.986 -19.236   5.363  1.00  0.00    -0.084 Cl
HETATM   36  C   UNL     1      44.096 -19.429   2.826  1.00  0.00     0.024 A 
HETATM   37  C   UNL     1      43.248 -19.071   1.785  1.00  0.00     0.004 A 
HETATM   38  C   UNL     1      42.256 -18.105   1.991  1.00  0.00     0.029 A 
ENDBRANCH  29  32
ENDBRANCH  24  25
ENDBRANCH  23  24
ENDBRANCH   2  23
TORSDOF 9
ENDMDL
MODEL 3
REMARK VINA RESULT:      -8.9      2.571      3.740
REMARK  9 active torsions:
REMARK  status: ('A' for Active; 'I' for Inactive)
REMARK    1  A    between atoms: C_2  and  C_3 
REMARK    2  A    between atoms: C_3  and  C_4 
REMARK    3  A    between atoms: C_4  and  C_5 
REMARK    4  A    between atoms: C_5  and  N_6 
REMARK    5  A    between atoms: C_15  and  C_16 
REMARK       I    between atoms: C_16  and  N_17 
REMARK    6  A    between atoms: N_17  and  C_18 
REMARK    7  A    between atoms: C_18  and  C_19 
REMARK    8  A    between atoms: C_19  and  N_20 
REMARK    9  A    between atoms: N_24  and  C_25 
ROOT
HETATM    1  C   UNL     1      42.120 -13.693   3.953  1.00  0.00     0.251 C 
HETATM    2  N   UNL     1      40.746 -13.740   3.898  1.00  0.00    -0.355 N 
HETATM    3  O   UNL     1      42.828 -13.997   2.999  1.00  0.00    -0.268 OA
HETATM    4  H   UNL     1      40.230 -13.445   4.721  1.00  0.00     0.162 HD
ENDROOT
BRANCH   1   5
HETATM    5  C   UNL     1      42.741 -13.247   5.224  1.00  0.00     0.034 A 
HETATM    6  C   UNL     1      42.197 -12.194   5.974  1.00  0.00     0.047 A 
HETATM    7  C   UNL     1      42.740 -11.895   7.226  1.00  0.00     0.053 A 
HETATM    8  N   UNL     1      42.190 -10.878   8.000  1.00  0.00    -0.308 N 
HETATM    9  C   UNL     1      43.817 -12.622   7.721  1.00  0.00     0.059 A 
HETATM   10  C   UNL     1      42.614 -10.562   9.262  1.00  0.00     0.329 A 
HETATM   11  H   UNL     1      41.414 -10.318   7.670  1.00  0.00     0.170 HD
HETATM   12  N   UNL     1      43.648 -11.323   9.781  1.00  0.00    -0.266 N 
HETATM   13  O   UNL     1      42.058  -9.641   9.855  1.00  0.00    -0.246 OA
HETATM   14  C   UNL     1      44.329 -12.305   9.067  1.00  0.00     0.264 A 
HETATM   15  O   UNL     1      45.307 -12.918   9.486  1.00  0.00    -0.267 OA
HETATM   16  C   UNL     1      44.373 -13.660   6.967  1.00  0.00     0.020 A 
HETATM   17  C   UNL     1      43.827 -13.980   5.723  1.00  0.00     0.018 A 
BRANCH  12  18
HETATM   18  C   UNL     1      44.095 -11.039  11.141  1.00  0.00     0.137 C 
BRANCH  18  19
HETATM   19  C   UNL     1      43.334 -11.866  12.181  1.00  0.00     0.020 C 
BRANCH  19  20
HETATM   20  C   UNL     1      42.284 -11.014  12.894  1.00  0.00     0.001 C 
BRANCH  20  21
HETATM   21  C   UNL     1      42.893 -10.232  14.058  1.00  0.00    -0.004 C 
HETATM   22  C   UNL     1      42.930  -8.741  13.764  1.00  0.00     0.005 C 
ENDBRANCH  20  21
ENDBRANCH  19  20
ENDBRANCH  18  19
ENDBRANCH  12  18
ENDBRANCH   1   5
BRANCH   2  23
HETATM   23  C   UNL     1      39.981 -14.447   2.870  1.00  0.00     0.150 C 
BRANCH  23  24
HETATM   24  C   UNL     1      40.079 -15.993   2.843  1.00  0.00     0.254 C 
BRANCH  24  25
HETATM   25  N   UNL     1      41.493 -16.509   2.882  1.00  0.00    -0.067 N 
HETATM   26  H   UNL     1      42.101 -15.663   2.887  1.00  0.00     0.280 HD
HETATM   27  C   UNL     1      41.881 -17.276   4.142  1.00  0.00     0.254 C 
HETATM   28  C   UNL     1      43.394 -17.579   4.129  1.00  0.00     0.150 C 
HETATM   29  N   UNL     1      43.775 -18.299   2.902  1.00  0.00    -0.378 N 
HETATM   30  C   UNL     1      43.398 -17.619   1.645  1.00  0.00     0.150 C 
HETATM   31  C   UNL     1      41.887 -17.290   1.633  1.00  0.00     0.254 C 
BRANCH  29  32
HETATM   32  C   UNL     1      43.993 -19.671   2.899  1.00  0.00     0.031 A 
HETATM   33  C   UNL     1      44.527 -20.361   3.997  1.00  0.00     0.053 A 
HETATM   34  C   UNL     1      44.765 -21.740   3.950  1.00  0.00     0.036 A 
HETATM   35 CL   UNL     1      45.412 -22.534   5.334  1.00  0.00    -0.084 Cl
HETATM   36  C   UNL     1      44.485 -22.471   2.804  1.00  0.00     0.024 A 
HETATM   37  C   UNL     1      43.966 -21.814   1.695  1.00  0.00     0.004 A 
HETATM   38  C   UNL     1      43.728 -20.435   1.748  1.00  0.00     0.029 A 
ENDBRANCH  29  32
ENDBRANCH  24  25
ENDBRANCH  23  24
ENDBRANCH   2  23
TORSDOF 9
ENDMDL
MODEL 4
REMARK VINA RESULT:      -8.8      2.360      3.400
REMARK  9 active torsions:
REMARK  status: ('A' for Active; 'I' for Inactive)
REMARK    1  A    between atoms: C_2  and  C_3 
REMARK    2  A    between atoms: C_3  and  C_4 
REMARK    3  A    between atoms: C_4  and  C_5 
REMARK    4  A    between atoms: C_5  and  N_6 
REMARK    5  A    between atoms: C_15  and  C_16 
REMARK       I    between atoms: C_16  and  N_17 
REMARK    6  A    between atoms: N_17  and  C_18 
REMARK    7  A    between atoms: C_18  and  C_19 
REMARK    8  A    between atoms: C_19  and  N_20 
REMARK    9  A    between atoms: N_24  and  C_25 
ROOT
HETATM    1  C   UNL     1      39.775 -12.778   3.894  1.00  0.00     0.251 C 
HETATM    2  N   UNL     1      39.758 -14.124   3.606  1.00  0.00    -0.355 N 
HETATM    3  O   UNL     1      39.236 -11.944   3.173  1.00  0.00    -0.268 OA
HETATM    4  H   UNL     1      40.202 -14.753   4.267  1.00  0.00     0.162 HD
ENDROOT
BRANCH   1   5
HETATM    5  C   UNL     1      40.472 -12.349   5.131  1.00  0.00     0.034 A 
HETATM    6  C   UNL     1      41.619 -13.012   5.591  1.00  0.00     0.047 A 
HETATM    7  C   UNL     1      42.314 -12.494   6.687  1.00  0.00     0.053 A 
HETATM    8  N   UNL     1      43.475 -13.116   7.134  1.00  0.00    -0.308 N 
HETATM    9  C   UNL     1      41.868 -11.342   7.326  1.00  0.00     0.059 A 
HETATM   10  C   UNL     1      44.254 -12.641   8.154  1.00  0.00     0.329 A 
HETATM   11  H   UNL     1      43.825 -13.963   6.704  1.00  0.00     0.170 HD
HETATM   12  N   UNL     1      43.844 -11.462   8.754  1.00  0.00    -0.266 N 
HETATM   13  O   UNL     1      45.258 -13.274   8.471  1.00  0.00    -0.246 OA
HETATM   14  C   UNL     1      42.658 -10.802   8.448  1.00  0.00     0.264 A 
HETATM   15  O   UNL     1      42.240  -9.810   9.040  1.00  0.00    -0.267 OA
HETATM   16  C   UNL     1      40.713 -10.691   6.881  1.00  0.00     0.020 A 
HETATM   17  C   UNL     1      40.022 -11.189   5.775  1.00  0.00     0.018 A 
BRANCH  12  18
HETATM   18  C   UNL     1      44.676 -10.907   9.818  1.00  0.00     0.137 C 
BRANCH  18  19
HETATM   19  C   UNL     1      44.559 -11.709  11.116  1.00  0.00     0.020 C 
BRANCH  19  20
HETATM   20  C   UNL     1      43.350 -11.252  11.933  1.00  0.00     0.001 C 
BRANCH  20  21
HETATM   21  C   UNL     1      43.631  -9.939  12.663  1.00  0.00    -0.004 C 
HETATM   22  C   UNL     1      42.502  -9.583  13.617  1.00  0.00     0.005 C 
ENDBRANCH  20  21
ENDBRANCH  19  20
ENDBRANCH  18  19
ENDBRANCH  12  18
ENDBRANCH   1   5
BRANCH   2  23
HETATM   23  C   UNL     1      39.415 -14.688   2.301  1.00  0.00     0.150 C 
BRANCH  23  24
HETATM   24  C   UNL     1      40.554 -15.351   1.486  1.00  0.00     0.254 C 
BRANCH  24  25
HETATM   25  N   UNL     1      41.599 -16.017   2.342  1.00  0.00    -0.067 N 
HETATM   26  H   UNL     1      41.944 -15.278   2.991  1.00  0.00     0.280 HD
HETATM   27  C   UNL     1      41.093 -17.130   3.254  1.00  0.00     0.254 C 
HETATM   28  C   UNL     1      42.222 -17.589   4.200  1.00  0.00     0.150 C 
HETATM   29  N   UNL     1      43.414 -17.996   3.437  1.00  0.00    -0.378 N 
HETATM   30  C   UNL     1      43.935 -16.968   2.512  1.00  0.00     0.150 C 
HETATM   31  C   UNL     1      42.822 -16.477   1.557  1.00  0.00     0.254 C 
BRANCH  29  32
HETATM   32  C   UNL     1      43.717 -19.333   3.214  1.00  0.00     0.031 A 
HETATM   33  C   UNL     1      44.323 -20.150   4.181  1.00  0.00     0.053 A 
HETATM   34  C   UNL     1      44.646 -21.486   3.913  1.00  0.00     0.036 A 
HETATM   35 CL   UNL     1      45.377 -22.442   5.144  1.00  0.00    -0.084 Cl
HETATM   36  C   UNL     1      44.381 -22.045   2.670  1.00  0.00     0.024 A 
HETATM   37  C   UNL     1      43.793 -21.258   1.688  1.00  0.00     0.004 A 
HETATM   38  C   UNL     1      43.471 -19.923   1.961  1.00  0.00     0.029 A 
ENDBRANCH  29  32
ENDBRANCH  24  25
ENDBRANCH  23  24
ENDBRANCH   2  23
TORSDOF 9
ENDMDL
MODEL 5
REMARK VINA RESULT:      -8.6      3.208      9.236
REMARK  9 active torsions:
REMARK  status: ('A' for Active; 'I' for Inactive)
REMARK    1  A    between atoms: C_2  and  C_3 
REMARK    2  A    between atoms: C_3  and  C_4 
REMARK    3  A    between atoms: C_4  and  C_5 
REMARK    4  A    between atoms: C_5  and  N_6 
REMARK    5  A    between atoms: C_15  and  C_16 
REMARK       I    between atoms: C_16  and  N_17 
REMARK    6  A    between atoms: N_17  and  C_18 
REMARK    7  A    between atoms: C_18  and  C_19 
REMARK    8  A    between atoms: C_19  and  N_20 
REMARK    9  A    between atoms: N_24  and  C_25 
ROOT
HETATM    1  C   UNL     1      39.448 -11.374   4.813  1.00  0.00     0.251 C 
HETATM    2  N   UNL     1      40.235 -10.299   5.154  1.00  0.00    -0.355 N 
HETATM    3  O   UNL     1      38.238 -11.273   4.629  1.00  0.00    -0.268 OA
HETATM    4  H   UNL     1      41.232 -10.460   5.261  1.00  0.00     0.162 HD
ENDROOT
BRANCH   1   5
HETATM    5  C   UNL     1      40.112 -12.692   4.662  1.00  0.00     0.034 A 
HETATM    6  C   UNL     1      40.978 -13.191   5.645  1.00  0.00     0.047 A 
HETATM    7  C   UNL     1      41.479 -14.489   5.520  1.00  0.00     0.053 A 
HETATM    8  N   UNL     1      42.311 -15.014   6.505  1.00  0.00    -0.308 N 
HETATM    9  C   UNL     1      41.135 -15.277   4.427  1.00  0.00     0.059 A 
HETATM   10  C   UNL     1      42.790 -16.295   6.498  1.00  0.00     0.329 A 
HETATM   11  H   UNL     1      42.594 -14.468   7.309  1.00  0.00     0.170 HD
HETATM   12  N   UNL     1      42.402 -17.101   5.441  1.00  0.00    -0.266 N 
HETATM   13  O   UNL     1      43.522 -16.654   7.417  1.00  0.00    -0.246 OA
HETATM   14  C   UNL     1      41.646 -16.658   4.359  1.00  0.00     0.264 A 
HETATM   15  O   UNL     1      41.378 -17.339   3.372  1.00  0.00    -0.267 OA
HETATM   16  C   UNL     1      40.286 -14.774   3.436  1.00  0.00     0.020 A 
HETATM   17  C   UNL     1      39.765 -13.486   3.560  1.00  0.00     0.018 A 
BRANCH  12  18
HETATM   18  C   UNL     1      42.863 -18.486   5.426  1.00  0.00     0.137 C 
BRANCH  18  19
HETATM   19  C   UNL     1      44.217 -18.633   4.728  1.00  0.00     0.020 C 
BRANCH  19  20
HETATM   20  C   UNL     1      44.309 -19.970   3.992  1.00  0.00     0.001 C 
BRANCH  20  21
HETATM   21  C   UNL     1      43.840 -19.845   2.542  1.00  0.00    -0.004 C 
HETATM   22  C   UNL     1      43.814 -21.198   1.850  1.00  0.00     0.005 C 
ENDBRANCH  20  21
ENDBRANCH  19  20
ENDBRANCH  18  19
ENDBRANCH  12  18
ENDBRANCH   1   5
BRANCH   2  23
HETATM   23  C   UNL     1      39.725  -9.023   5.656  1.00  0.00     0.150 C 
BRANCH  23  24
HETATM   24  C   UNL     1      38.826  -9.058   6.917  1.00  0.00     0.254 C 
BRANCH  24  25
HETATM   25  N   UNL     1      39.591  -9.277   8.196  1.00  0.00    -0.067 N 
HETATM   26  H   UNL     1      38.981  -8.905   8.955  1.00  0.00     0.280 HD
HETATM   27  C   UNL     1      39.841 -10.733   8.575  1.00  0.00     0.254 C 
HETATM   28  C   UNL     1      40.461 -10.811   9.985  1.00  0.00     0.150 C 
HETATM   29  N   UNL     1      41.687  -9.998  10.066  1.00  0.00    -0.378 N 
HETATM   30  C   UNL     1      41.514  -8.582   9.682  1.00  0.00     0.150 C 
HETATM   31  C   UNL     1      40.882  -8.469   8.275  1.00  0.00     0.254 C 
BRANCH  29  32
HETATM   32  C   UNL     1      42.950 -10.574  10.007  1.00  0.00     0.031 A 
HETATM   33  C   UNL     1      43.317 -11.508   9.026  1.00  0.00     0.053 A 
HETATM   34  C   UNL     1      44.589 -12.094   9.014  1.00  0.00     0.036 A 
HETATM   35 CL   UNL     1      44.985 -13.226   7.779  1.00  0.00    -0.084 Cl
HETATM   36  C   UNL     1      45.529 -11.773   9.983  1.00  0.00     0.024 A 
HETATM   37  C   UNL     1      45.191 -10.860  10.974  1.00  0.00     0.004 A 
HETATM   38  C   UNL     1      43.919 -10.275  10.982  1.00  0.00     0.029 A 
ENDBRANCH  29  32
ENDBRANCH  24  25
ENDBRANCH  23  24
ENDBRANCH   2  23
TORSDOF 9
ENDMDL
MODEL 6
REMARK VINA RESULT:      -8.4      1.890      2.359
REMARK  9 active torsions:
REMARK  status: ('A' for Active; 'I' for Inactive)
REMARK    1  A    between atoms: C_2  and  C_3 
REMARK    2  A    between atoms: C_3  and  C_4 
REMARK    3  A    between atoms: C_4  and  C_5 
REMARK    4  A    between atoms: C_5  and  N_6 
REMARK    5  A    between atoms: C_15  and  C_16 
REMARK       I    between atoms: C_16  and  N_17 
REMARK    6  A    between atoms: N_17  and  C_18 
REMARK    7  A    between atoms: C_18  and  C_19 
REMARK    8  A    between atoms: C_19  and  N_20 
REMARK    9  A    between atoms: N_24  and  C_25 
ROOT
HETATM    1  C   UNL     1      41.750 -12.008   4.229  1.00  0.00     0.251 C 
HETATM    2  N   UNL     1      41.540 -11.507   2.965  1.00  0.00    -0.355 N 
HETATM    3  O   UNL     1      42.189 -13.137   4.427  1.00  0.00    -0.268 OA
HETATM    4  H   UNL     1      41.202 -10.554   2.885  1.00  0.00     0.162 HD
ENDROOT
BRANCH   1   5
HETATM    5  C   UNL     1      41.432 -11.126   5.379  1.00  0.00     0.034 A 
HETATM    6  C   UNL     1      41.153 -11.652   6.648  1.00  0.00     0.047 A 
HETATM    7  C   UNL     1      40.985 -10.780   7.727  1.00  0.00     0.053 A 
HETATM    8  N   UNL     1      40.745 -11.285   9.001  1.00  0.00    -0.308 N 
HETATM    9  C   UNL     1      41.081  -9.404   7.546  1.00  0.00     0.059 A 
HETATM   10  C   UNL     1      40.636 -10.510  10.124  1.00  0.00     0.329 A 
HETATM   11  H   UNL     1      40.656 -12.279   9.172  1.00  0.00     0.170 HD
HETATM   12  N   UNL     1      40.789  -9.144   9.955  1.00  0.00    -0.266 N 
HETATM   13  O   UNL     1      40.418 -11.061  11.200  1.00  0.00    -0.246 OA
HETATM   14  C   UNL     1      40.946  -8.523   8.720  1.00  0.00     0.264 A 
HETATM   15  O   UNL     1      40.986  -7.306   8.552  1.00  0.00    -0.267 OA
HETATM   16  C   UNL     1      41.340  -8.877   6.276  1.00  0.00     0.020 A 
HETATM   17  C   UNL     1      41.527  -9.740   5.195  1.00  0.00     0.018 A 
BRANCH  12  18
HETATM   18  C   UNL     1      40.720  -8.293  11.140  1.00  0.00     0.137 C 
BRANCH  18  19
HETATM   19  C   UNL     1      42.099  -8.058  11.759  1.00  0.00     0.020 C 
BRANCH  19  20
HETATM   20  C   UNL     1      42.184  -8.677  13.154  1.00  0.00     0.001 C 
BRANCH  20  21
HETATM   21  C   UNL     1      43.383  -9.616  13.280  1.00  0.00    -0.004 C 
HETATM   22  C   UNL     1      43.841 -10.115  11.919  1.00  0.00     0.005 C 
ENDBRANCH  20  21
ENDBRANCH  19  20
ENDBRANCH  18  19
ENDBRANCH  12  18
ENDBRANCH   1   5
BRANCH   2  23
HETATM   23  C   UNL     1      41.485 -12.321   1.750  1.00  0.00     0.150 C 
BRANCH  23  24
HETATM   24  C   UNL     1      40.188 -13.126   1.487  1.00  0.00     0.254 C 
BRANCH  24  25
HETATM   25  N   UNL     1      40.430 -14.589   1.221  1.00  0.00    -0.067 N 
HETATM   26  H   UNL     1      39.772 -14.849   0.456  1.00  0.00     0.280 HD
HETATM   27  C   UNL     1      41.813 -14.941   0.681  1.00  0.00     0.254 C 
HETATM   28  C   UNL     1      41.857 -16.431   0.281  1.00  0.00     0.150 C 
HETATM   29  N   UNL     1      41.467 -17.290   1.411  1.00  0.00    -0.378 N 
HETATM   30  C   UNL     1      40.147 -16.978   1.997  1.00  0.00     0.150 C 
HETATM   31  C   UNL     1      40.066 -15.486   2.399  1.00  0.00     0.254 C 
BRANCH  29  32
HETATM   32  C   UNL     1      42.411 -17.967   2.173  1.00  0.00     0.031 A 
HETATM   33  C   UNL     1      42.886 -19.245   1.840  1.00  0.00     0.053 A 
HETATM   34  C   UNL     1      43.814 -19.914   2.648  1.00  0.00     0.036 A 
HETATM   35 CL   UNL     1      44.369 -21.476   2.181  1.00  0.00    -0.084 Cl
HETATM   36  C   UNL     1      44.290 -19.333   3.815  1.00  0.00     0.024 A 
HETATM   37  C   UNL     1      43.829 -18.073   4.178  1.00  0.00     0.004 A 
HETATM   38  C   UNL     1      42.902 -17.407   3.366  1.00  0.00     0.029 A 
ENDBRANCH  29  32
ENDBRANCH  24  25
ENDBRANCH  23  24
ENDBRANCH   2  23
TORSDOF 9
ENDMDL
MODEL 7
REMARK VINA RESULT:      -8.4      2.065      2.780
REMARK  9 active torsions:
REMARK  status: ('A' for Active; 'I' for Inactive)
REMARK    1  A    between atoms: C_2  and  C_3 
REMARK    2  A    between atoms: C_3  and  C_4 
REMARK    3  A    between atoms: C_4  and  C_5 
REMARK    4  A    between atoms: C_5  and  N_6 
REMARK    5  A    between atoms: C_15  and  C_16 
REMARK       I    between atoms: C_16  and  N_17 
REMARK    6  A    between atoms: N_17  and  C_18 
REMARK    7  A    between atoms: C_18  and  C_19 
REMARK    8  A    between atoms: C_19  and  N_20 
REMARK    9  A    between atoms: N_24  and  C_25 
ROOT
HETATM    1  C   UNL     1      40.994 -10.485   4.941  1.00  0.00     0.251 C 
HETATM    2  N   UNL     1      40.938 -11.641   4.197  1.00  0.00    -0.355 N 
HETATM    3  O   UNL     1      40.955  -9.370   4.429  1.00  0.00    -0.268 OA
HETATM    4  H   UNL     1      40.947 -12.524   4.697  1.00  0.00     0.162 HD
ENDROOT
BRANCH   1   5
HETATM    5  C   UNL     1      41.098 -10.620   6.414  1.00  0.00     0.034 A 
HETATM    6  C   UNL     1      42.229 -11.189   7.018  1.00  0.00     0.047 A 
HETATM    7  C   UNL     1      42.337 -11.179   8.411  1.00  0.00     0.053 A 
HETATM    8  N   UNL     1      43.469 -11.706   9.026  1.00  0.00    -0.308 N 
HETATM    9  C   UNL     1      41.332 -10.623   9.194  1.00  0.00     0.059 A 
HETATM   10  C   UNL     1      43.690 -11.676  10.376  1.00  0.00     0.329 A 
HETATM   11  H   UNL     1      44.217 -12.130   8.492  1.00  0.00     0.170 HD
HETATM   12  N   UNL     1      42.717 -11.071  11.154  1.00  0.00    -0.266 N 
HETATM   13  O   UNL     1      44.724 -12.176  10.813  1.00  0.00    -0.246 OA
HETATM   14  C   UNL     1      41.510 -10.589  10.658  1.00  0.00     0.264 A 
HETATM   15  O   UNL     1      40.602 -10.138  11.352  1.00  0.00    -0.267 OA
HETATM   16  C   UNL     1      40.195 -10.072   8.595  1.00  0.00     0.020 A 
HETATM   17  C   UNL     1      40.084 -10.061   7.204  1.00  0.00     0.018 A 
BRANCH  12  18
HETATM   18  C   UNL     1      42.942 -10.987  12.594  1.00  0.00     0.137 C 
BRANCH  18  19
HETATM   19  C   UNL     1      43.612  -9.670  12.994  1.00  0.00     0.020 C 
BRANCH  19  20
HETATM   20  C   UNL     1      42.794  -8.944  14.062  1.00  0.00     0.001 C 
BRANCH  20  21
HETATM   21  C   UNL     1      42.231  -9.919  15.095  1.00  0.00    -0.004 C 
HETATM   22  C   UNL     1      41.665  -9.184  16.300  1.00  0.00     0.005 C 
ENDBRANCH  20  21
ENDBRANCH  19  20
ENDBRANCH  18  19
ENDBRANCH  12  18
ENDBRANCH   1   5
BRANCH   2  23
HETATM   23  C   UNL     1      41.160 -11.709   2.753  1.00  0.00     0.150 C 
BRANCH  23  24
HETATM   24  C   UNL     1      42.026 -12.876   2.216  1.00  0.00     0.254 C 
BRANCH  24  25
HETATM   25  N   UNL     1      41.970 -14.113   3.074  1.00  0.00    -0.067 N 
HETATM   26  H   UNL     1      41.462 -13.832   3.939  1.00  0.00     0.280 HD
HETATM   27  C   UNL     1      41.158 -15.273   2.506  1.00  0.00     0.254 C 
HETATM   28  C   UNL     1      41.031 -16.392   3.562  1.00  0.00     0.150 C 
HETATM   29  N   UNL     1      42.358 -16.821   4.035  1.00  0.00    -0.378 N 
HETATM   30  C   UNL     1      43.204 -15.734   4.569  1.00  0.00     0.150 C 
HETATM   31  C   UNL     1      43.342 -14.590   3.538  1.00  0.00     0.254 C 
BRANCH  29  32
HETATM   32  C   UNL     1      42.955 -17.989   3.575  1.00  0.00     0.031 A 
HETATM   33  C   UNL     1      43.651 -18.871   4.415  1.00  0.00     0.053 A 
HETATM   34  C   UNL     1      44.269 -20.024   3.915  1.00  0.00     0.036 A 
HETATM   35 CL   UNL     1      45.100 -21.074   4.996  1.00  0.00    -0.084 Cl
HETATM   36  C   UNL     1      44.218 -20.327   2.561  1.00  0.00     0.024 A 
HETATM   37  C   UNL     1      43.546 -19.466   1.702  1.00  0.00     0.004 A 
HETATM   38  C   UNL     1      42.928 -18.315   2.207  1.00  0.00     0.029 A 
ENDBRANCH  29  32
ENDBRANCH  24  25
ENDBRANCH  23  24
ENDBRANCH   2  23
TORSDOF 9
ENDMDL
MODEL 8
REMARK VINA RESULT:      -8.4      4.069     11.125
REMARK  9 active torsions:
REMARK  status: ('A' for Active; 'I' for Inactive)
REMARK    1  A    between atoms: C_2  and  C_3 
REMARK    2  A    between atoms: C_3  and  C_4 
REMARK    3  A    between atoms: C_4  and  C_5 
REMARK    4  A    between atoms: C_5  and  N_6 
REMARK    5  A    between atoms: C_15  and  C_16 
REMARK       I    between atoms: C_16  and  N_17 
REMARK    6  A    between atoms: N_17  and  C_18 
REMARK    7  A    between atoms: C_18  and  C_19 
REMARK    8  A    between atoms: C_19  and  N_20 
REMARK    9  A    between atoms: N_24  and  C_25 
ROOT
HETATM    1  C   UNL     1      39.599 -12.876   5.397  1.00  0.00     0.251 C 
HETATM    2  N   UNL     1      40.023 -11.709   4.804  1.00  0.00    -0.355 N 
HETATM    3  O   UNL     1      38.693 -12.903   6.225  1.00  0.00    -0.268 OA
HETATM    4  H   UNL     1      40.758 -11.773   4.108  1.00  0.00     0.162 HD
ENDROOT
BRANCH   1   5
HETATM    5  C   UNL     1      40.276 -14.134   4.997  1.00  0.00     0.034 A 
HETATM    6  C   UNL     1      40.662 -14.365   3.669  1.00  0.00     0.047 A 
HETATM    7  C   UNL     1      41.409 -15.507   3.365  1.00  0.00     0.053 A 
HETATM    8  N   UNL     1      41.833 -15.734   2.059  1.00  0.00    -0.308 N 
HETATM    9  C   UNL     1      41.756 -16.411   4.362  1.00  0.00     0.059 A 
HETATM   10  C   UNL     1      42.623 -16.786   1.684  1.00  0.00     0.329 A 
HETATM   11  H   UNL     1      41.592 -15.105   1.303  1.00  0.00     0.170 HD
HETATM   12  N   UNL     1      43.019 -17.657   2.685  1.00  0.00    -0.266 N 
HETATM   13  O   UNL     1      42.936 -16.893   0.500  1.00  0.00    -0.246 OA
HETATM   14  C   UNL     1      42.586 -17.577   4.005  1.00  0.00     0.264 A 
HETATM   15  O   UNL     1      42.855 -18.399   4.878  1.00  0.00    -0.267 OA
HETATM   16  C   UNL     1      41.354 -16.192   5.683  1.00  0.00     0.020 A 
HETATM   17  C   UNL     1      40.624 -15.046   6.002  1.00  0.00     0.018 A 
BRANCH  12  18
HETATM   18  C   UNL     1      43.896 -18.767   2.324  1.00  0.00     0.137 C 
BRANCH  18  19
HETATM   19  C   UNL     1      43.108 -20.008   1.898  1.00  0.00     0.020 C 
BRANCH  19  20
HETATM   20  C   UNL     1      43.932 -21.277   2.112  1.00  0.00     0.001 C 
BRANCH  20  21
HETATM   21  C   UNL     1      44.642 -21.264   3.465  1.00  0.00    -0.004 C 
HETATM   22  C   UNL     1      44.612 -22.635   4.120  1.00  0.00     0.005 C 
ENDBRANCH  20  21
ENDBRANCH  19  20
ENDBRANCH  18  19
ENDBRANCH  12  18
ENDBRANCH   1   5
BRANCH   2  23
HETATM   23  C   UNL     1      39.711 -10.367   5.298  1.00  0.00     0.150 C 
BRANCH  23  24
HETATM   24  C   UNL     1      40.750  -9.685   6.224  1.00  0.00     0.254 C 
BRANCH  24  25
HETATM   25  N   UNL     1      40.303  -9.581   7.658  1.00  0.00    -0.067 N 
HETATM   26  H   UNL     1      39.277  -9.405   7.621  1.00  0.00     0.280 HD
HETATM   27  C   UNL     1      40.450 -10.853   8.488  1.00  0.00     0.254 C 
HETATM   28  C   UNL     1      39.787 -10.659   9.868  1.00  0.00     0.150 C 
HETATM   29  N   UNL     1      40.340  -9.481  10.556  1.00  0.00    -0.378 N 
HETATM   30  C   UNL     1      40.254  -8.221   9.788  1.00  0.00     0.150 C 
HETATM   31  C   UNL     1      40.900  -8.386   8.393  1.00  0.00     0.254 C 
BRANCH  29  32
HETATM   32  C   UNL     1      41.285  -9.602  11.567  1.00  0.00     0.031 A 
HETATM   33  C   UNL     1      40.951  -9.580  12.930  1.00  0.00     0.053 A 
HETATM   34  C   UNL     1      41.931  -9.671  13.925  1.00  0.00     0.036 A 
HETATM   35 CL   UNL     1      41.460  -9.650  15.581  1.00  0.00    -0.084 Cl
HETATM   36  C   UNL     1      43.275  -9.781  13.592  1.00  0.00     0.024 A 
HETATM   37  C   UNL     1      43.638  -9.793  12.251  1.00  0.00     0.004 A 
HETATM   38  C   UNL     1      42.654  -9.703  11.259  1.00  0.00     0.029 A 
ENDBRANCH  29  32
ENDBRANCH  24  25
ENDBRANCH  23  24
ENDBRANCH   2  23
TORSDOF 9
ENDMDL
MODEL 9
REMARK VINA RESULT:      -8.3      4.056     11.011
REMARK  9 active torsions:
REMARK  status: ('A' for Active; 'I' for Inactive)
REMARK    1  A    between atoms: C_2  and  C_3 
REMARK    2  A    between atoms: C_3  and  C_4 
REMARK    3  A    between atoms: C_4  and  C_5 
REMARK    4  A    between atoms: C_5  and  N_6 
REMARK    5  A    between atoms: C_15  and  C_16 
REMARK       I    between atoms: C_16  and  N_17 
REMARK    6  A    between atoms: N_17  and  C_18 
REMARK    7  A    between atoms: C_18  and  C_19 
REMARK    8  A    between atoms: C_19  and  N_20 
REMARK    9  A    between atoms: N_24  and  C_25 
ROOT
HETATM    1  C   UNL     1      39.637 -11.463   6.013  1.00  0.00     0.251 C 
HETATM    2  N   UNL     1      39.550 -10.204   5.464  1.00  0.00    -0.355 N 
HETATM    3  O   UNL     1      39.075 -11.764   7.062  1.00  0.00    -0.268 OA
HETATM    4  H   UNL     1      40.021 -10.042   4.579  1.00  0.00     0.162 HD
ENDROOT
BRANCH   1   5
HETATM    5  C   UNL     1      40.440 -12.476   5.286  1.00  0.00     0.034 A 
HETATM    6  C   UNL     1      39.835 -13.573   4.656  1.00  0.00     0.047 A 
HETATM    7  C   UNL     1      40.617 -14.429   3.876  1.00  0.00     0.053 A 
HETATM    8  N   UNL     1      40.028 -15.502   3.213  1.00  0.00    -0.308 N 
HETATM    9  C   UNL     1      41.983 -14.207   3.735  1.00  0.00     0.059 A 
HETATM   10  C   UNL     1      40.703 -16.349   2.377  1.00  0.00     0.329 A 
HETATM   11  H   UNL     1      39.040 -15.704   3.300  1.00  0.00     0.170 HD
HETATM   12  N   UNL     1      42.051 -16.095   2.189  1.00  0.00    -0.266 N 
HETATM   13  O   UNL     1      40.084 -17.267   1.846  1.00  0.00    -0.246 OA
HETATM   14  C   UNL     1      42.762 -15.107   2.864  1.00  0.00     0.264 A 
HETATM   15  O   UNL     1      43.975 -14.937   2.775  1.00  0.00    -0.267 OA
HETATM   16  C   UNL     1      42.591 -13.125   4.379  1.00  0.00     0.020 A 
HETATM   17  C   UNL     1      41.816 -12.252   5.145  1.00  0.00     0.018 A 
BRANCH  12  18
HETATM   18  C   UNL     1      42.791 -16.955   1.270  1.00  0.00     0.137 C 
BRANCH  18  19
HETATM   19  C   UNL     1      43.677 -17.959   2.011  1.00  0.00     0.020 C 
BRANCH  19  20
HETATM   20  C   UNL     1      42.973 -19.309   2.151  1.00  0.00     0.001 C 
BRANCH  20  21
HETATM   21  C   UNL     1      43.931 -20.393   2.643  1.00  0.00    -0.004 C 
HETATM   22  C   UNL     1      44.037 -21.534   1.644  1.00  0.00     0.005 C 
ENDBRANCH  20  21
ENDBRANCH  19  20
ENDBRANCH  18  19
ENDBRANCH  12  18
ENDBRANCH   1   5
BRANCH   2  23
HETATM   23  C   UNL     1      39.090  -9.016   6.182  1.00  0.00     0.150 C 
BRANCH  23  24
HETATM   24  C   UNL     1      40.004  -8.458   7.303  1.00  0.00     0.254 C 
BRANCH  24  25
HETATM   25  N   UNL     1      40.120  -9.371   8.496  1.00  0.00    -0.067 N 
HETATM   26  H   UNL     1      39.633 -10.251   8.225  1.00  0.00     0.280 HD
HETATM   27  C   UNL     1      41.537  -9.805   8.858  1.00  0.00     0.254 C 
HETATM   28  C   UNL     1      41.491 -10.875   9.969  1.00  0.00     0.150 C 
HETATM   29  N   UNL     1      40.743 -10.385  11.140  1.00  0.00    -0.378 N 
HETATM   30  C   UNL     1      39.372  -9.921  10.846  1.00  0.00     0.150 C 
HETATM   31  C   UNL     1      39.382  -8.855   9.726  1.00  0.00     0.254 C 
BRANCH  29  32
HETATM   32  C   UNL     1      41.391  -9.925  12.280  1.00  0.00     0.031 A 
HETATM   33  C   UNL     1      40.707  -9.401  13.387  1.00  0.00     0.053 A 
HETATM   34  C   UNL     1      41.391  -8.916  14.508  1.00  0.00     0.036 A 
HETATM   35 CL   UNL     1      40.496  -8.294  15.840  1.00  0.00    -0.084 Cl
HETATM   36  C   UNL     1      42.778  -8.932  14.556  1.00  0.00     0.024 A 
HETATM   37  C   UNL     1      43.485  -9.434  13.470  1.00  0.00     0.004 A 
HETATM   38  C   UNL     1      42.796  -9.920  12.352  1.00  0.00     0.029 A 
ENDBRANCH  29  32
ENDBRANCH  24  25
ENDBRANCH  23  24
ENDBRANCH   2  23
TORSDOF 9
ENDMDL
MODEL 10
REMARK VINA RESULT:      -8.1      4.017      9.986
REMARK  9 active torsions:
REMARK  status: ('A' for Active; 'I' for Inactive)
REMARK    1  A    between atoms: C_2  and  C_3 
REMARK    2  A    between atoms: C_3  and  C_4 
REMARK    3  A    between atoms: C_4  and  C_5 
REMARK    4  A    between atoms: C_5  and  N_6 
REMARK    5  A    between atoms: C_15  and  C_16 
REMARK       I    between atoms: C_16  and  N_17 
REMARK    6  A    between atoms: N_17  and  C_18 
REMARK    7  A    between atoms: C_18  and  C_19 
REMARK    8  A    between atoms: C_19  and  N_20 
REMARK    9  A    between atoms: N_24  and  C_25 
ROOT
HETATM    1  C   UNL     1      38.864 -10.860   4.420  1.00  0.00     0.251 C 
HETATM    2  N   UNL     1      39.601  -9.788   4.867  1.00  0.00    -0.355 N 
HETATM    3  O   UNL     1      37.667 -10.776   4.163  1.00  0.00    -0.268 OA
HETATM    4  H   UNL     1      40.592  -9.932   5.031  1.00  0.00     0.162 HD
ENDROOT
BRANCH   1   5
HETATM    5  C   UNL     1      39.569 -12.153   4.245  1.00  0.00     0.034 A 
HETATM    6  C   UNL     1      40.141 -12.827   5.334  1.00  0.00     0.047 A 
HETATM    7  C   UNL     1      40.682 -14.101   5.141  1.00  0.00     0.053 A 
HETATM    8  N   UNL     1      41.220 -14.800   6.218  1.00  0.00    -0.308 N 
HETATM    9  C   UNL     1      40.668 -14.692   3.883  1.00  0.00     0.059 A 
HETATM   10  C   UNL     1      41.708 -16.076   6.134  1.00  0.00     0.329 A 
HETATM   11  H   UNL     1      41.260 -14.400   7.147  1.00  0.00     0.170 HD
HETATM   12  N   UNL     1      41.642 -16.689   4.894  1.00  0.00    -0.266 N 
HETATM   13  O   UNL     1      42.164 -16.598   7.149  1.00  0.00    -0.246 OA
HETATM   14  C   UNL     1      41.205 -16.057   3.734  1.00  0.00     0.264 A 
HETATM   15  O   UNL     1      41.233 -16.561   2.614  1.00  0.00    -0.267 OA
HETATM   16  C   UNL     1      40.116 -14.013   2.792  1.00  0.00     0.020 A 
HETATM   17  C   UNL     1      39.556 -12.748   2.976  1.00  0.00     0.018 A 
BRANCH  12  18
HETATM   18  C   UNL     1      42.116 -18.065   4.781  1.00  0.00     0.137 C 
BRANCH  18  19
HETATM   19  C   UNL     1      43.615 -18.133   4.480  1.00  0.00     0.020 C 
BRANCH  19  20
HETATM   20  C   UNL     1      44.006 -19.519   3.967  1.00  0.00     0.001 C 
BRANCH  20  21
HETATM   21  C   UNL     1      44.117 -19.543   2.443  1.00  0.00    -0.004 C 
HETATM   22  C   UNL     1      43.579 -20.843   1.868  1.00  0.00     0.005 C 
ENDBRANCH  20  21
ENDBRANCH  19  20
ENDBRANCH  18  19
ENDBRANCH  12  18
ENDBRANCH   1   5
BRANCH   2  23
HETATM   23  C   UNL     1      39.027  -8.552   5.400  1.00  0.00     0.150 C 
BRANCH  23  24
HETATM   24  C   UNL     1      38.904  -8.425   6.939  1.00  0.00     0.254 C 
BRANCH  24  25
HETATM   25  N   UNL     1      39.713  -9.446   7.695  1.00  0.00    -0.067 N 
HETATM   26  H   UNL     1      39.674 -10.316   7.122  1.00  0.00     0.280 HD
HETATM   27  C   UNL     1      41.201  -9.138   7.834  1.00  0.00     0.254 C 
HETATM   28  C   UNL     1      41.931 -10.346   8.458  1.00  0.00     0.150 C 
HETATM   29  N   UNL     1      41.320 -10.723   9.743  1.00  0.00    -0.378 N 
HETATM   30  C   UNL     1      39.871 -11.005   9.678  1.00  0.00     0.150 C 
HETATM   31  C   UNL     1      39.110  -9.817   9.046  1.00  0.00     0.254 C 
BRANCH  29  32
HETATM   32  C   UNL     1      41.893 -10.366  10.957  1.00  0.00     0.031 A 
HETATM   33  C   UNL     1      41.153  -9.827  12.021  1.00  0.00     0.053 A 
HETATM   34  C   UNL     1      41.767  -9.446  13.221  1.00  0.00     0.036 A 
HETATM   35 CL   UNL     1      40.805  -8.801  14.495  1.00  0.00    -0.084 Cl
HETATM   36  C   UNL     1      43.137  -9.584  13.393  1.00  0.00     0.024 A 
HETATM   37  C   UNL     1      43.899 -10.104  12.353  1.00  0.00     0.004 A 
HETATM   38  C   UNL     1      43.281 -10.485  11.156  1.00  0.00     0.029 A 
ENDBRANCH  29  32
ENDBRANCH  24  25
ENDBRANCH  23  24
ENDBRANCH   2  23
TORSDOF 9
ENDMDL
