MODEL 1
REMARK VINA RESULT:      -7.7      0.000      0.000
REMARK  5 active torsions:
REMARK  status: ('A' for Active; 'I' for Inactive)
REMARK    1  A    between atoms: C_2  and  C_3 
REMARK    2  A    between atoms: C_2  and  C_21 
REMARK       I    between atoms: C_3  and  N_4 
REMARK    3  A    between atoms: N_4  and  C_5 
REMARK    4  A    between atoms: C_8  and  O_9 
REMARK    5  A    between atoms: O_9  and  C_10 
ROOT
HETATM    1  C   UNL     1      41.696 -16.582   0.480  1.00  0.00     0.052 A 
HETATM    2  C   UNL     1      41.066 -16.826   1.699  1.00  0.00     0.149 A 
HETATM    3  N   UNL     1      41.688 -17.343   2.789  1.00  0.00    -0.235 NA
HETATM    4  C   UNL     1      43.001 -17.628   2.664  1.00  0.00     0.169 A 
HETATM    5  C   UNL     1      43.731 -17.382   1.513  1.00  0.00     0.060 A 
HETATM    6  C   UNL     1      43.063 -16.862   0.405  1.00  0.00     0.035 A 
ENDROOT
BRANCH   1   7
HETATM    7  N   UNL     1      41.063 -16.106  -0.689  1.00  0.00    -0.325 N 
HETATM    8  C   UNL     1      41.135 -14.826  -1.210  1.00  0.00     0.231 C 
HETATM    9  O   UNL     1      41.850 -13.936  -0.758  1.00  0.00    -0.272 OA
HETATM   10  H   UNL     1      40.486 -16.780  -1.176  1.00  0.00     0.169 HD
BRANCH   8  11
HETATM   11  C   UNL     1      40.210 -14.570  -2.422  1.00  0.00     0.046 C 
HETATM   12  C   UNL     1      38.789 -14.234  -1.933  1.00  0.00     0.026 C 
HETATM   13  C   UNL     1      40.781 -13.397  -3.241  1.00  0.00     0.026 C 
BRANCH  11  14
HETATM   14  C   UNL     1      40.200 -15.868  -3.267  1.00  0.00     0.133 C 
HETATM   15 CL   UNL     1      38.784 -16.028  -4.345  1.00  0.00    -0.129 Cl
ENDBRANCH  11  14
ENDBRANCH   8  11
ENDBRANCH   1   7
BRANCH   4  16
HETATM   16  O   UNL     1      43.695 -18.170   3.735  1.00  0.00    -0.289 OA
BRANCH  16  17
HETATM   17  C   UNL     1      43.975 -19.516   3.694  1.00  0.00     0.116 A 
HETATM   18  C   UNL     1      44.509 -20.096   4.846  1.00  0.00     0.153 A 
HETATM   19  F   UNL     1      44.683 -19.358   5.953  1.00  0.00    -0.203 F 
HETATM   20  C   UNL     1      44.878 -21.436   4.869  1.00  0.00     0.087 A 
HETATM   21  C   UNL     1      44.722 -22.194   3.718  1.00  0.00     0.119 A 
HETATM   22  F   UNL     1      45.078 -23.486   3.725  1.00  0.00    -0.206 F 
HETATM   23  C   UNL     1      44.212 -21.634   2.550  1.00  0.00     0.045 A 
HETATM   24  C   UNL     1      43.846 -20.287   2.531  1.00  0.00     0.043 A 
ENDBRANCH  16  17
ENDBRANCH   4  16
TORSDOF 5
ENDMDL
MODEL 2
REMARK VINA RESULT:      -7.7      4.791      5.512
REMARK  5 active torsions:
REMARK  status: ('A' for Active; 'I' for Inactive)
REMARK    1  A    between atoms: C_2  and  C_3 
REMARK    2  A    between atoms: C_2  and  C_21 
REMARK       I    between atoms: C_3  and  N_4 
REMARK    3  A    between atoms: N_4  and  C_5 
REMARK    4  A    between atoms: C_8  and  O_9 
REMARK    5  A    between atoms: O_9  and  C_10 
ROOT
HETATM    1  C   UNL     1      42.290 -15.897   6.133  1.00  0.00     0.052 A 
HETATM    2  C   UNL     1      41.727 -17.108   5.738  1.00  0.00     0.149 A 
HETATM    3  N   UNL     1      42.433 -18.254   5.554  1.00  0.00    -0.235 NA
HETATM    4  C   UNL     1      43.762 -18.193   5.779  1.00  0.00     0.169 A 
HETATM    5  C   UNL     1      44.413 -17.052   6.217  1.00  0.00     0.060 A 
HETATM    6  C   UNL     1      43.665 -15.887   6.385  1.00  0.00     0.035 A 
ENDROOT
BRANCH   1   7
HETATM    7  N   UNL     1      41.594 -14.676   6.270  1.00  0.00    -0.325 N 
HETATM    8  C   UNL     1      41.358 -13.740   5.279  1.00  0.00     0.231 C 
HETATM    9  O   UNL     1      41.656 -13.894   4.098  1.00  0.00    -0.272 OA
HETATM   10  H   UNL     1      41.253 -14.472   7.200  1.00  0.00     0.169 HD
BRANCH   8  11
HETATM   11  C   UNL     1      40.695 -12.432   5.771  1.00  0.00     0.046 C 
HETATM   12  C   UNL     1      39.418 -12.760   6.567  1.00  0.00     0.026 C 
HETATM   13  C   UNL     1      41.697 -11.675   6.663  1.00  0.00     0.026 C 
BRANCH  11  14
HETATM   14  C   UNL     1      40.350 -11.597   4.513  1.00  0.00     0.133 C 
HETATM   15 CL   UNL     1      38.622 -11.637   4.061  1.00  0.00    -0.129 Cl
ENDBRANCH  11  14
ENDBRANCH   8  11
ENDBRANCH   1   7
BRANCH   4  16
HETATM   16  O   UNL     1      44.544 -19.324   5.598  1.00  0.00    -0.289 OA
BRANCH  16  17
HETATM   17  C   UNL     1      44.365 -20.040   4.437  1.00  0.00     0.116 A 
HETATM   18  C   UNL     1      44.665 -21.403   4.472  1.00  0.00     0.153 A 
HETATM   19  F   UNL     1      45.061 -21.977   5.619  1.00  0.00    -0.203 F 
HETATM   20  C   UNL     1      44.571 -22.187   3.328  1.00  0.00     0.087 A 
HETATM   21  C   UNL     1      44.186 -21.590   2.136  1.00  0.00     0.119 A 
HETATM   22  F   UNL     1      44.096 -22.333   1.025  1.00  0.00    -0.206 F 
HETATM   23  C   UNL     1      43.902 -20.229   2.071  1.00  0.00     0.045 A 
HETATM   24  C   UNL     1      44.002 -19.446   3.222  1.00  0.00     0.043 A 
ENDBRANCH  16  17
ENDBRANCH   4  16
TORSDOF 5
ENDMDL
MODEL 3
REMARK VINA RESULT:      -7.6      1.913      2.509
REMARK  5 active torsions:
REMARK  status: ('A' for Active; 'I' for Inactive)
REMARK    1  A    between atoms: C_2  and  C_3 
REMARK    2  A    between atoms: C_2  and  C_21 
REMARK       I    between atoms: C_3  and  N_4 
REMARK    3  A    between atoms: N_4  and  C_5 
REMARK    4  A    between atoms: C_8  and  O_9 
REMARK    5  A    between atoms: O_9  and  C_10 
ROOT
HETATM    1  C   UNL     1      40.962 -15.974   1.295  1.00  0.00     0.052 A 
HETATM    2  C   UNL     1      42.256 -16.087   0.789  1.00  0.00     0.149 A 
HETATM    3  N   UNL     1      43.284 -16.677   1.451  1.00  0.00    -0.235 NA
HETATM    4  C   UNL     1      43.014 -17.183   2.672  1.00  0.00     0.169 A 
HETATM    5  C   UNL     1      41.754 -17.163   3.247  1.00  0.00     0.060 A 
HETATM    6  C   UNL     1      40.719 -16.539   2.550  1.00  0.00     0.035 A 
ENDROOT
BRANCH   1   7
HETATM    7  N   UNL     1      39.890 -15.310   0.661  1.00  0.00    -0.325 N 
HETATM    8  C   UNL     1      39.730 -13.943   0.514  1.00  0.00     0.231 C 
HETATM    9  O   UNL     1      40.566 -13.110   0.849  1.00  0.00    -0.272 OA
HETATM   10  H   UNL     1      39.162 -15.910   0.295  1.00  0.00     0.169 HD
BRANCH   8  11
HETATM   11  C   UNL     1      38.375 -13.514  -0.097  1.00  0.00     0.046 C 
HETATM   12  C   UNL     1      38.297 -13.967  -1.566  1.00  0.00     0.026 C 
HETATM   13  C   UNL     1      37.239 -14.158   0.719  1.00  0.00     0.026 C 
BRANCH  11  14
HETATM   14  C   UNL     1      38.304 -11.970  -0.001  1.00  0.00     0.133 C 
HETATM   15 CL   UNL     1      38.854 -11.121  -1.475  1.00  0.00    -0.129 Cl
ENDBRANCH  11  14
ENDBRANCH   8  11
ENDBRANCH   1   7
BRANCH   4  16
HETATM   16  O   UNL     1      44.021 -17.789   3.406  1.00  0.00    -0.289 OA
BRANCH  16  17
HETATM   17  C   UNL     1      44.124 -19.159   3.333  1.00  0.00     0.116 A 
HETATM   18  C   UNL     1      44.674 -19.821   4.433  1.00  0.00     0.153 A 
HETATM   19  F   UNL     1      45.032 -19.129   5.525  1.00  0.00    -0.203 F 
HETATM   20  C   UNL     1      44.871 -21.197   4.416  1.00  0.00     0.087 A 
HETATM   21  C   UNL     1      44.524 -21.910   3.277  1.00  0.00     0.119 A 
HETATM   22  F   UNL     1      44.713 -23.236   3.247  1.00  0.00    -0.206 F 
HETATM   23  C   UNL     1      43.994 -21.271   2.160  1.00  0.00     0.045 A 
HETATM   24  C   UNL     1      43.802 -19.888   2.181  1.00  0.00     0.043 A 
ENDBRANCH  16  17
ENDBRANCH   4  16
TORSDOF 5
ENDMDL
MODEL 4
REMARK VINA RESULT:      -7.6      1.307      1.365
REMARK  5 active torsions:
REMARK  status: ('A' for Active; 'I' for Inactive)
REMARK    1  A    between atoms: C_2  and  C_3 
REMARK    2  A    between atoms: C_2  and  C_21 
REMARK       I    between atoms: C_3  and  N_4 
REMARK    3  A    between atoms: N_4  and  C_5 
REMARK    4  A    between atoms: C_8  and  O_9 
REMARK    5  A    between atoms: O_9  and  C_10 
ROOT
HETATM    1  C   UNL     1      40.803 -15.481   1.078  1.00  0.00     0.052 A 
HETATM    2  C   UNL     1      40.272 -16.440   1.939  1.00  0.00     0.149 A 
HETATM    3  N   UNL     1      41.007 -17.153   2.831  1.00  0.00    -0.235 NA
HETATM    4  C   UNL     1      42.332 -16.899   2.872  1.00  0.00     0.169 A 
HETATM    5  C   UNL     1      42.950 -15.936   2.092  1.00  0.00     0.060 A 
HETATM    6  C   UNL     1      42.173 -15.227   1.176  1.00  0.00     0.035 A 
ENDROOT
BRANCH   1   7
HETATM    7  N   UNL     1      40.077 -14.770   0.098  1.00  0.00    -0.325 N 
HETATM    8  C   UNL     1      40.219 -14.870  -1.276  1.00  0.00     0.231 C 
HETATM    9  O   UNL     1      40.956 -15.676  -1.836  1.00  0.00    -0.272 OA
HETATM   10  H   UNL     1      39.397 -14.111   0.453  1.00  0.00     0.169 HD
BRANCH   8  11
HETATM   11  C   UNL     1      39.384 -13.851  -2.086  1.00  0.00     0.046 C 
HETATM   12  C   UNL     1      38.098 -13.500  -1.317  1.00  0.00     0.026 C 
HETATM   13  C   UNL     1      40.231 -12.585  -2.312  1.00  0.00     0.026 C 
BRANCH  11  14
HETATM   14  C   UNL     1      39.041 -14.523  -3.439  1.00  0.00     0.133 C 
HETATM   15 CL   UNL     1      37.421 -15.276  -3.490  1.00  0.00    -0.129 Cl
ENDBRANCH  11  14
ENDBRANCH   8  11
ENDBRANCH   1   7
BRANCH   4  16
HETATM   16  O   UNL     1      43.142 -17.601   3.751  1.00  0.00    -0.289 OA
BRANCH  16  17
HETATM   17  C   UNL     1      43.510 -18.877   3.393  1.00  0.00     0.116 A 
HETATM   18  C   UNL     1      44.397 -19.549   4.236  1.00  0.00     0.153 A 
HETATM   19  F   UNL     1      44.819 -18.970   5.370  1.00  0.00    -0.203 F 
HETATM   20  C   UNL     1      44.868 -20.818   3.916  1.00  0.00     0.087 A 
HETATM   21  C   UNL     1      44.453 -21.408   2.731  1.00  0.00     0.119 A 
HETATM   22  F   UNL     1      44.903 -22.628   2.409  1.00  0.00    -0.206 F 
HETATM   23  C   UNL     1      43.585 -20.750   1.864  1.00  0.00     0.045 A 
HETATM   24  C   UNL     1      43.119 -19.475   2.188  1.00  0.00     0.043 A 
ENDBRANCH  16  17
ENDBRANCH   4  16
TORSDOF 5
ENDMDL
MODEL 5
REMARK VINA RESULT:      -7.5      2.441      3.182
REMARK  5 active torsions:
REMARK  status: ('A' for Active; 'I' for Inactive)
REMARK    1  A    between atoms: C_2  and  C_3 
REMARK    2  A    between atoms: C_2  and  C_21 
REMARK       I    between atoms: C_3  and  N_4 
REMARK    3  A    between atoms: N_4  and  C_5 
REMARK    4  A    between atoms: C_8  and  O_9 
REMARK    5  A    between atoms: O_9  and  C_10 
ROOT
HETATM    1  C   UNL     1      41.142 -15.974   1.511  1.00  0.00     0.052 A 
HETATM    2  C   UNL     1      42.311 -15.433   2.043  1.00  0.00     0.149 A 
HETATM    3  N   UNL     1      43.362 -16.172   2.483  1.00  0.00    -0.235 NA
HETATM    4  C   UNL     1      43.247 -17.513   2.388  1.00  0.00     0.169 A 
HETATM    5  C   UNL     1      42.148 -18.149   1.835  1.00  0.00     0.060 A 
HETATM    6  C   UNL     1      41.079 -17.366   1.402  1.00  0.00     0.035 A 
ENDROOT
BRANCH   1   7
HETATM    7  N   UNL     1      40.010 -15.236   1.104  1.00  0.00    -0.325 N 
HETATM    8  C   UNL     1      39.862 -14.523  -0.072  1.00  0.00     0.231 C 
HETATM    9  O   UNL     1      40.688 -14.510  -0.980  1.00  0.00    -0.272 OA
HETATM   10  H   UNL     1      39.240 -15.224   1.761  1.00  0.00     0.169 HD
BRANCH   8  11
HETATM   11  C   UNL     1      38.559 -13.694  -0.165  1.00  0.00     0.046 C 
HETATM   12  C   UNL     1      37.995 -13.765  -1.596  1.00  0.00     0.026 C 
HETATM   13  C   UNL     1      37.539 -14.263   0.838  1.00  0.00     0.026 C 
BRANCH  11  14
HETATM   14  C   UNL     1      38.925 -12.234   0.202  1.00  0.00     0.133 C 
HETATM   15 CL   UNL     1      38.752 -11.852   1.939  1.00  0.00    -0.129 Cl
ENDBRANCH  11  14
ENDBRANCH   8  11
ENDBRANCH   1   7
BRANCH   4  16
HETATM   16  O   UNL     1      44.278 -18.327   2.831  1.00  0.00    -0.289 OA
BRANCH  16  17
HETATM   17  C   UNL     1      44.147 -18.894   4.078  1.00  0.00     0.116 A 
HETATM   18  C   UNL     1      44.584 -20.211   4.233  1.00  0.00     0.153 A 
HETATM   19  F   UNL     1      45.152 -20.858   3.203  1.00  0.00    -0.203 F 
HETATM   20  C   UNL     1      44.432 -20.879   5.442  1.00  0.00     0.087 A 
HETATM   21  C   UNL     1      43.822 -20.221   6.500  1.00  0.00     0.119 A 
HETATM   22  F   UNL     1      43.665 -20.855   7.670  1.00  0.00    -0.206 F 
HETATM   23  C   UNL     1      43.359 -18.915   6.365  1.00  0.00     0.045 A 
HETATM   24  C   UNL     1      43.511 -18.250   5.147  1.00  0.00     0.043 A 
ENDBRANCH  16  17
ENDBRANCH   4  16
TORSDOF 5
ENDMDL
MODEL 6
REMARK VINA RESULT:      -7.4      4.283      5.061
REMARK  5 active torsions:
REMARK  status: ('A' for Active; 'I' for Inactive)
REMARK    1  A    between atoms: C_2  and  C_3 
REMARK    2  A    between atoms: C_2  and  C_21 
REMARK       I    between atoms: C_3  and  N_4 
REMARK    3  A    between atoms: N_4  and  C_5 
REMARK    4  A    between atoms: C_8  and  O_9 
REMARK    5  A    between atoms: O_9  and  C_10 
ROOT
HETATM    1  C   UNL     1      41.969 -15.744   3.079  1.00  0.00     0.052 A 
HETATM    2  C   UNL     1      41.357 -16.993   3.167  1.00  0.00     0.149 A 
HETATM    3  N   UNL     1      41.934 -18.155   2.766  1.00  0.00    -0.235 NA
HETATM    4  C   UNL     1      43.181 -18.073   2.257  1.00  0.00     0.169 A 
HETATM    5  C   UNL     1      43.894 -16.889   2.167  1.00  0.00     0.060 A 
HETATM    6  C   UNL     1      43.271 -15.709   2.575  1.00  0.00     0.035 A 
ENDROOT
BRANCH   1   7
HETATM    7  N   UNL     1      41.372 -14.513   3.428  1.00  0.00    -0.325 N 
HETATM    8  C   UNL     1      40.978 -14.110   4.692  1.00  0.00     0.231 C 
HETATM    9  O   UNL     1      41.182 -14.754   5.716  1.00  0.00    -0.272 OA
HETATM   10  H   UNL     1      41.206 -13.877   2.658  1.00  0.00     0.169 HD
BRANCH   8  11
HETATM   11  C   UNL     1      40.216 -12.764   4.731  1.00  0.00     0.046 C 
HETATM   12  C   UNL     1      39.514 -12.521   3.382  1.00  0.00     0.026 C 
HETATM   13  C   UNL     1      39.180 -12.816   5.869  1.00  0.00     0.026 C 
BRANCH  11  14
HETATM   14  C   UNL     1      41.266 -11.658   5.002  1.00  0.00     0.133 C 
HETATM   15 CL   UNL     1      41.650 -11.424   6.732  1.00  0.00    -0.129 Cl
ENDBRANCH  11  14
ENDBRANCH   8  11
ENDBRANCH   1   7
BRANCH   4  16
HETATM   16  O   UNL     1      43.823 -19.220   1.817  1.00  0.00    -0.289 OA
BRANCH  16  17
HETATM   17  C   UNL     1      44.236 -20.121   2.770  1.00  0.00     0.116 A 
HETATM   18  C   UNL     1      44.248 -21.471   2.414  1.00  0.00     0.153 A 
HETATM   19  F   UNL     1      43.914 -21.843   1.169  1.00  0.00    -0.203 F 
HETATM   20  C   UNL     1      44.592 -22.453   3.337  1.00  0.00     0.087 A 
HETATM   21  C   UNL     1      44.912 -22.073   4.632  1.00  0.00     0.119 A 
HETATM   22  F   UNL     1      45.241 -23.009   5.532  1.00  0.00    -0.206 F 
HETATM   23  C   UNL     1      44.887 -20.735   5.018  1.00  0.00     0.045 A 
HETATM   24  C   UNL     1      44.537 -19.754   4.088  1.00  0.00     0.043 A 
ENDBRANCH  16  17
ENDBRANCH   4  16
TORSDOF 5
ENDMDL
MODEL 7
REMARK VINA RESULT:      -7.3      4.491      8.625
REMARK  5 active torsions:
REMARK  status: ('A' for Active; 'I' for Inactive)
REMARK    1  A    between atoms: C_2  and  C_3 
REMARK    2  A    between atoms: C_2  and  C_21 
REMARK       I    between atoms: C_3  and  N_4 
REMARK    3  A    between atoms: N_4  and  C_5 
REMARK    4  A    between atoms: C_8  and  O_9 
REMARK    5  A    between atoms: O_9  and  C_10 
ROOT
HETATM    1  C   UNL     1      42.595 -17.255   2.836  1.00  0.00     0.052 A 
HETATM    2  C   UNL     1      42.117 -15.982   3.142  1.00  0.00     0.149 A 
HETATM    3  N   UNL     1      41.355 -15.232   2.304  1.00  0.00    -0.235 NA
HETATM    4  C   UNL     1      41.051 -15.774   1.106  1.00  0.00     0.169 A 
HETATM    5  C   UNL     1      41.439 -17.047   0.722  1.00  0.00     0.060 A 
HETATM    6  C   UNL     1      42.231 -17.790   1.598  1.00  0.00     0.035 A 
ENDROOT
BRANCH   1   7
HETATM    7  N   UNL     1      43.440 -18.031   3.658  1.00  0.00    -0.325 N 
HETATM    8  C   UNL     1      43.133 -18.562   4.899  1.00  0.00     0.231 C 
HETATM    9  O   UNL     1      42.025 -18.497   5.422  1.00  0.00    -0.272 OA
HETATM   10  H   UNL     1      44.371 -18.194   3.295  1.00  0.00     0.169 HD
BRANCH   8  11
HETATM   11  C   UNL     1      44.319 -19.242   5.622  1.00  0.00     0.046 C 
HETATM   12  C   UNL     1      45.294 -18.172   6.148  1.00  0.00     0.026 C 
HETATM   13  C   UNL     1      43.771 -20.082   6.790  1.00  0.00     0.026 C 
BRANCH  11  14
HETATM   14  C   UNL     1      45.022 -20.150   4.582  1.00  0.00     0.133 C 
HETATM   15 CL   UNL     1      45.022 -21.885   5.011  1.00  0.00    -0.129 Cl
ENDBRANCH  11  14
ENDBRANCH   8  11
ENDBRANCH   1   7
BRANCH   4  16
HETATM   16  O   UNL     1      40.288 -15.057   0.199  1.00  0.00    -0.289 OA
BRANCH  16  17
HETATM   17  C   UNL     1      40.956 -14.277  -0.716  1.00  0.00     0.116 A 
HETATM   18  C   UNL     1      41.024 -14.744  -2.030  1.00  0.00     0.153 A 
HETATM   19  F   UNL     1      40.409 -15.887  -2.371  1.00  0.00    -0.203 F 
HETATM   20  C   UNL     1      41.733 -14.048  -3.003  1.00  0.00     0.087 A 
HETATM   21  C   UNL     1      42.390 -12.879  -2.646  1.00  0.00     0.119 A 
HETATM   22  F   UNL     1      43.080 -12.201  -3.572  1.00  0.00    -0.206 F 
HETATM   23  C   UNL     1      42.355 -12.404  -1.338  1.00  0.00     0.045 A 
HETATM   24  C   UNL     1      41.645 -13.109  -0.365  1.00  0.00     0.043 A 
ENDBRANCH  16  17
ENDBRANCH   4  16
TORSDOF 5
ENDMDL
MODEL 8
REMARK VINA RESULT:      -7.3      2.391      2.952
REMARK  5 active torsions:
REMARK  status: ('A' for Active; 'I' for Inactive)
REMARK    1  A    between atoms: C_2  and  C_3 
REMARK    2  A    between atoms: C_2  and  C_21 
REMARK       I    between atoms: C_3  and  N_4 
REMARK    3  A    between atoms: N_4  and  C_5 
REMARK    4  A    between atoms: C_8  and  O_9 
REMARK    5  A    between atoms: O_9  and  C_10 
ROOT
HETATM    1  C   UNL     1      41.766 -15.518   0.567  1.00  0.00     0.052 A 
HETATM    2  C   UNL     1      41.973 -14.917   1.807  1.00  0.00     0.149 A 
HETATM    3  N   UNL     1      41.843 -15.560   2.997  1.00  0.00    -0.235 NA
HETATM    4  C   UNL     1      41.495 -16.863   2.952  1.00  0.00     0.169 A 
HETATM    5  C   UNL     1      41.310 -17.565   1.772  1.00  0.00     0.060 A 
HETATM    6  C   UNL     1      41.438 -16.877   0.566  1.00  0.00     0.035 A 
ENDROOT
BRANCH   1   7
HETATM    7  N   UNL     1      41.830 -14.863  -0.682  1.00  0.00    -0.325 N 
HETATM    8  C   UNL     1      40.830 -14.115  -1.279  1.00  0.00     0.231 C 
HETATM    9  O   UNL     1      39.758 -13.846  -0.747  1.00  0.00    -0.272 OA
HETATM   10  H   UNL     1      42.700 -14.974  -1.187  1.00  0.00     0.169 HD
BRANCH   8  11
HETATM   11  C   UNL     1      41.148 -13.646  -2.718  1.00  0.00     0.046 C 
HETATM   12  C   UNL     1      40.004 -12.760  -3.244  1.00  0.00     0.026 C 
HETATM   13  C   UNL     1      42.469 -12.854  -2.700  1.00  0.00     0.026 C 
BRANCH  11  14
HETATM   14  C   UNL     1      41.291 -14.920  -3.588  1.00  0.00     0.133 C 
HETATM   15 CL   UNL     1      39.907 -16.044  -3.471  1.00  0.00    -0.129 Cl
ENDBRANCH  11  14
ENDBRANCH   8  11
ENDBRANCH   1   7
BRANCH   4  16
HETATM   16  O   UNL     1      41.333 -17.574   4.130  1.00  0.00    -0.289 OA
BRANCH  16  17
HETATM   17  C   UNL     1      42.455 -17.801   4.893  1.00  0.00     0.116 A 
HETATM   18  C   UNL     1      42.541 -17.140   6.120  1.00  0.00     0.153 A 
HETATM   19  F   UNL     1      41.532 -16.360   6.537  1.00  0.00    -0.203 F 
HETATM   20  C   UNL     1      43.669 -17.266   6.924  1.00  0.00     0.087 A 
HETATM   21  C   UNL     1      44.723 -18.052   6.483  1.00  0.00     0.119 A 
HETATM   22  F   UNL     1      45.817 -18.177   7.246  1.00  0.00    -0.206 F 
HETATM   23  C   UNL     1      44.670 -18.704   5.254  1.00  0.00     0.045 A 
HETATM   24  C   UNL     1      43.538 -18.572   4.449  1.00  0.00     0.043 A 
ENDBRANCH  16  17
ENDBRANCH   4  16
TORSDOF 5
ENDMDL
MODEL 9
REMARK VINA RESULT:      -7.1      2.647      3.260
REMARK  5 active torsions:
REMARK  status: ('A' for Active; 'I' for Inactive)
REMARK    1  A    between atoms: C_2  and  C_3 
REMARK    2  A    between atoms: C_2  and  C_21 
REMARK       I    between atoms: C_3  and  N_4 
REMARK    3  A    between atoms: N_4  and  C_5 
REMARK    4  A    between atoms: C_8  and  O_9 
REMARK    5  A    between atoms: O_9  and  C_10 
ROOT
HETATM    1  C   UNL     1      41.701 -15.555   0.648  1.00  0.00     0.052 A 
HETATM    2  C   UNL     1      41.850 -14.917   1.879  1.00  0.00     0.149 A 
HETATM    3  N   UNL     1      41.742 -15.543   3.079  1.00  0.00    -0.235 NA
HETATM    4  C   UNL     1      41.478 -16.866   3.056  1.00  0.00     0.169 A 
HETATM    5  C   UNL     1      41.357 -17.602   1.889  1.00  0.00     0.060 A 
HETATM    6  C   UNL     1      41.460 -16.931   0.671  1.00  0.00     0.035 A 
ENDROOT
BRANCH   1   7
HETATM    7  N   UNL     1      41.744 -14.921  -0.612  1.00  0.00    -0.325 N 
HETATM    8  C   UNL     1      40.717 -14.225  -1.226  1.00  0.00     0.231 C 
HETATM    9  O   UNL     1      39.633 -13.988  -0.702  1.00  0.00    -0.272 OA
HETATM   10  H   UNL     1      42.618 -15.008  -1.114  1.00  0.00     0.169 HD
BRANCH   8  11
HETATM   11  C   UNL     1      41.021 -13.771  -2.674  1.00  0.00     0.046 C 
HETATM   12  C   UNL     1      41.319 -14.998  -3.554  1.00  0.00     0.026 C 
HETATM   13  C   UNL     1      39.799 -13.009  -3.219  1.00  0.00     0.026 C 
BRANCH  11  14
HETATM   14  C   UNL     1      42.256 -12.839  -2.606  1.00  0.00     0.133 C 
HETATM   15 CL   UNL     1      42.421 -11.741  -4.006  1.00  0.00    -0.129 Cl
ENDBRANCH  11  14
ENDBRANCH   8  11
ENDBRANCH   1   7
BRANCH   4  16
HETATM   16  O   UNL     1      41.343 -17.564   4.247  1.00  0.00    -0.289 OA
BRANCH  16  17
HETATM   17  C   UNL     1      42.484 -17.792   4.981  1.00  0.00     0.116 A 
HETATM   18  C   UNL     1      42.630 -17.088   6.177  1.00  0.00     0.153 A 
HETATM   19  F   UNL     1      41.656 -16.264   6.596  1.00  0.00    -0.203 F 
HETATM   20  C   UNL     1      43.780 -17.214   6.948  1.00  0.00     0.087 A 
HETATM   21  C   UNL     1      44.798 -18.045   6.503  1.00  0.00     0.119 A 
HETATM   22  F   UNL     1      45.913 -18.172   7.234  1.00  0.00    -0.206 F 
HETATM   23  C   UNL     1      44.685 -18.743   5.303  1.00  0.00     0.045 A 
HETATM   24  C   UNL     1      43.530 -18.609   4.531  1.00  0.00     0.043 A 
ENDBRANCH  16  17
ENDBRANCH   4  16
TORSDOF 5
ENDMDL
MODEL 10
REMARK VINA RESULT:      -7.0      5.926      7.030
REMARK  5 active torsions:
REMARK  status: ('A' for Active; 'I' for Inactive)
REMARK    1  A    between atoms: C_2  and  C_3 
REMARK    2  A    between atoms: C_2  and  C_21 
REMARK       I    between atoms: C_3  and  N_4 
REMARK    3  A    between atoms: N_4  and  C_5 
REMARK    4  A    between atoms: C_8  and  O_9 
REMARK    5  A    between atoms: O_9  and  C_10 
ROOT
HETATM    1  C   UNL     1      41.158 -14.022   5.627  1.00  0.00     0.052 A 
HETATM    2  C   UNL     1      41.896 -14.042   4.445  1.00  0.00     0.149 A 
HETATM    3  N   UNL     1      42.083 -15.149   3.682  1.00  0.00    -0.235 NA
HETATM    4  C   UNL     1      41.507 -16.291   4.112  1.00  0.00     0.169 A 
HETATM    5  C   UNL     1      40.718 -16.369   5.247  1.00  0.00     0.060 A 
HETATM    6  C   UNL     1      40.553 -15.219   6.019  1.00  0.00     0.035 A 
ENDROOT
BRANCH   1   7
HETATM    7  N   UNL     1      40.999 -12.904   6.475  1.00  0.00    -0.325 N 
HETATM    8  C   UNL     1      39.877 -12.101   6.589  1.00  0.00     0.231 C 
HETATM    9  O   UNL     1      38.814 -12.316   6.014  1.00  0.00    -0.272 OA
HETATM   10  H   UNL     1      41.805 -12.668   7.040  1.00  0.00     0.169 HD
BRANCH   8  11
HETATM   11  C   UNL     1      40.060 -10.861   7.495  1.00  0.00     0.046 C 
HETATM   12  C   UNL     1      39.412  -9.631   6.834  1.00  0.00     0.026 C 
HETATM   13  C   UNL     1      39.401 -11.143   8.857  1.00  0.00     0.026 C 
BRANCH  11  14
HETATM   14  C   UNL     1      41.585 -10.646   7.664  1.00  0.00     0.133 C 
HETATM   15 CL   UNL     1      42.132 -10.599   9.364  1.00  0.00    -0.129 Cl
ENDBRANCH  11  14
ENDBRANCH   8  11
ENDBRANCH   1   7
BRANCH   4  16
HETATM   16  O   UNL     1      41.669 -17.461   3.386  1.00  0.00    -0.289 OA
BRANCH  16  17
HETATM   17  C   UNL     1      42.729 -18.272   3.719  1.00  0.00     0.116 A 
HETATM   18  C   UNL     1      43.172 -19.177   2.753  1.00  0.00     0.153 A 
HETATM   19  F   UNL     1      42.602 -19.198   1.538  1.00  0.00    -0.203 F 
HETATM   20  C   UNL     1      44.197 -20.075   3.028  1.00  0.00     0.087 A 
HETATM   21  C   UNL     1      44.770 -20.072   4.292  1.00  0.00     0.119 A 
HETATM   22  F   UNL     1      45.755 -20.935   4.572  1.00  0.00    -0.206 F 
HETATM   23  C   UNL     1      44.332 -19.193   5.279  1.00  0.00     0.045 A 
HETATM   24  C   UNL     1      43.300 -18.296   4.998  1.00  0.00     0.043 A 
ENDBRANCH  16  17
ENDBRANCH   4  16
TORSDOF 5
ENDMDL
