MODEL 1
REMARK VINA RESULT:      -8.4      0.000      0.000
REMARK  4 active torsions:
REMARK  status: ('A' for Active; 'I' for Inactive)
REMARK    1  A    between atoms: C_9  and  C_10 
REMARK       I    between atoms: C_10  and  N_11 
REMARK    2  A    between atoms: N_11  and  C_12 
REMARK    3  A    between atoms: C_12  and  C_13 
REMARK    4  A    between atoms: C_14  and  O_15 
ROOT
HETATM    1  C   UNL     1      41.080 -16.409   3.219  1.00  0.00     0.273 C 
HETATM    2  N   UNL     1      42.422 -16.715   3.251  1.00  0.00    -0.347 N 
HETATM    3  O   UNL     1      40.308 -16.802   2.351  1.00  0.00    -0.266 OA
HETATM    4  H   UNL     1      42.884 -16.461   4.121  1.00  0.00     0.163 HD
ENDROOT
BRANCH   1   5
HETATM    5  C   UNL     1      40.662 -15.554   4.344  1.00  0.00     0.157 A 
HETATM    6  C   UNL     1      40.068 -14.259   4.272  1.00  0.00     0.029 A 
HETATM    7  C   UNL     1      39.687 -13.371   3.246  1.00  0.00     0.023 A 
HETATM    8  C   UNL     1      39.873 -13.877   5.593  1.00  0.00     0.063 A 
HETATM    9  C   UNL     1      39.125 -12.127   3.579  1.00  0.00    -0.061 A 
HETATM   10  C   UNL     1      38.727 -11.160   2.501  1.00  0.00     0.048 C 
HETATM   11  C   UNL     1      38.946 -11.782   4.924  1.00  0.00     0.009 A 
HETATM   12  C   UNL     1      39.313 -12.650   5.959  1.00  0.00     0.032 A 
HETATM   13  N   UNL     1      40.335 -14.923   6.343  1.00  0.00    -0.277 N 
HETATM   14  H   UNL     1      40.346 -14.993   7.354  1.00  0.00     0.189 HD
HETATM   15  N   UNL     1      40.827 -15.948   5.627  1.00  0.00    -0.168 NA
ENDBRANCH   1   5
BRANCH   2  16
HETATM   16  C   UNL     1      43.061 -17.655   2.344  1.00  0.00     0.116 C 
HETATM   17  C   UNL     1      44.099 -16.975   1.444  1.00  0.00     0.037 C 
BRANCH  16  18
HETATM   18  C   UNL     1      43.731 -18.786   3.118  1.00  0.00    -0.002 A 
HETATM   19  C   UNL     1      44.163 -18.606   4.446  1.00  0.00     0.076 A 
HETATM   20  C   UNL     1      44.754 -19.674   5.130  1.00  0.00     0.038 A 
HETATM   21  C   UNL     1      44.904 -20.921   4.516  1.00  0.00     0.009 A 
HETATM   22  C   UNL     1      44.458 -21.126   3.210  1.00  0.00    -0.061 A 
HETATM   23  C   UNL     1      44.605 -22.458   2.540  1.00  0.00     0.048 C 
HETATM   24  C   UNL     1      43.873 -20.058   2.522  1.00  0.00     0.018 A 
BRANCH  19  25
HETATM   25  O   UNL     1      43.959 -17.362   4.985  1.00  0.00    -0.355 OA
HETATM   26  C   UNL     1      44.250 -17.187   6.365  1.00  0.00     0.210 C 
ENDBRANCH  19  25
ENDBRANCH  16  18
ENDBRANCH   2  16
TORSDOF 4
ENDMDL
MODEL 2
REMARK VINA RESULT:      -8.4      1.832      3.229
REMARK  4 active torsions:
REMARK  status: ('A' for Active; 'I' for Inactive)
REMARK    1  A    between atoms: C_9  and  C_10 
REMARK       I    between atoms: C_10  and  N_11 
REMARK    2  A    between atoms: N_11  and  C_12 
REMARK    3  A    between atoms: C_12  and  C_13 
REMARK    4  A    between atoms: C_14  and  O_15 
ROOT
HETATM    1  C   UNL     1      42.890 -15.545   4.947  1.00  0.00     0.273 C 
HETATM    2  N   UNL     1      43.036 -16.914   4.956  1.00  0.00    -0.347 N 
HETATM    3  O   UNL     1      43.780 -14.759   5.254  1.00  0.00    -0.266 OA
HETATM    4  H   UNL     1      42.272 -17.416   4.512  1.00  0.00     0.163 HD
ENDROOT
BRANCH   1   5
HETATM    5  C   UNL     1      41.545 -15.118   4.526  1.00  0.00     0.157 A 
HETATM    6  C   UNL     1      41.072 -14.939   3.192  1.00  0.00     0.029 A 
HETATM    7  C   UNL     1      41.612 -15.068   1.896  1.00  0.00     0.023 A 
HETATM    8  C   UNL     1      39.753 -14.525   3.327  1.00  0.00     0.063 A 
HETATM    9  C   UNL     1      40.812 -14.777   0.779  1.00  0.00    -0.061 A 
HETATM   10  C   UNL     1      41.372 -14.893  -0.609  1.00  0.00     0.048 C 
HETATM   11  C   UNL     1      39.486 -14.363   0.962  1.00  0.00     0.009 A 
HETATM   12  C   UNL     1      38.929 -14.231   2.239  1.00  0.00     0.032 A 
HETATM   13  N   UNL     1      39.523 -14.490   4.675  1.00  0.00    -0.277 N 
HETATM   14  H   UNL     1      38.661 -14.234   5.142  1.00  0.00     0.189 HD
HETATM   15  N   UNL     1      40.581 -14.831   5.431  1.00  0.00    -0.168 NA
ENDBRANCH   1   5
BRANCH   2  16
HETATM   16  C   UNL     1      44.301 -17.593   5.192  1.00  0.00     0.116 C 
HETATM   17  C   UNL     1      44.546 -17.858   6.681  1.00  0.00     0.037 C 
BRANCH  16  18
HETATM   18  C   UNL     1      44.359 -18.913   4.430  1.00  0.00    -0.002 A 
HETATM   19  C   UNL     1      44.154 -18.962   3.038  1.00  0.00     0.076 A 
HETATM   20  C   UNL     1      44.236 -20.190   2.371  1.00  0.00     0.038 A 
HETATM   21  C   UNL     1      44.536 -21.363   3.069  1.00  0.00     0.009 A 
HETATM   22  C   UNL     1      44.768 -21.331   4.444  1.00  0.00    -0.061 A 
HETATM   23  C   UNL     1      45.098 -22.579   5.205  1.00  0.00     0.048 C 
HETATM   24  C   UNL     1      44.681 -20.106   5.113  1.00  0.00     0.018 A 
BRANCH  19  25
HETATM   25  O   UNL     1      43.888 -17.766   2.423  1.00  0.00    -0.355 OA
HETATM   26  C   UNL     1      43.716 -17.775   1.012  1.00  0.00     0.210 C 
ENDBRANCH  19  25
ENDBRANCH  16  18
ENDBRANCH   2  16
TORSDOF 4
ENDMDL
MODEL 3
REMARK VINA RESULT:      -8.3      1.939      3.385
REMARK  4 active torsions:
REMARK  status: ('A' for Active; 'I' for Inactive)
REMARK    1  A    between atoms: C_9  and  C_10 
REMARK       I    between atoms: C_10  and  N_11 
REMARK    2  A    between atoms: N_11  and  C_12 
REMARK    3  A    between atoms: C_12  and  C_13 
REMARK    4  A    between atoms: C_14  and  O_15 
ROOT
HETATM    1  C   UNL     1      40.978 -16.313   2.613  1.00  0.00     0.273 C 
HETATM    2  N   UNL     1      42.311 -16.657   2.633  1.00  0.00    -0.347 N 
HETATM    3  O   UNL     1      40.112 -16.961   2.034  1.00  0.00    -0.266 OA
HETATM    4  H   UNL     1      42.868 -16.121   3.295  1.00  0.00     0.163 HD
ENDROOT
BRANCH   1   5
HETATM    5  C   UNL     1      40.696 -15.078   3.364  1.00  0.00     0.157 A 
HETATM    6  C   UNL     1      41.511 -14.469   4.365  1.00  0.00     0.029 A 
HETATM    7  C   UNL     1      42.749 -14.751   4.977  1.00  0.00     0.023 A 
HETATM    8  C   UNL     1      40.808 -13.341   4.768  1.00  0.00     0.063 A 
HETATM    9  C   UNL     1      43.240 -13.893   5.975  1.00  0.00    -0.061 A 
HETATM   10  C   UNL     1      44.549 -14.183   6.651  1.00  0.00     0.048 C 
HETATM   11  C   UNL     1      42.498 -12.766   6.351  1.00  0.00     0.009 A 
HETATM   12  C   UNL     1      41.268 -12.465   5.754  1.00  0.00     0.032 A 
HETATM   13  N   UNL     1      39.668 -13.339   4.012  1.00  0.00    -0.277 N 
HETATM   14  H   UNL     1      38.920 -12.656   4.037  1.00  0.00     0.189 HD
HETATM   15  N   UNL     1      39.559 -14.374   3.161  1.00  0.00    -0.168 NA
ENDBRANCH   1   5
BRANCH   2  16
HETATM   16  C   UNL     1      42.836 -17.902   2.095  1.00  0.00     0.116 C 
HETATM   17  C   UNL     1      43.757 -17.669   0.892  1.00  0.00     0.037 C 
BRANCH  16  18
HETATM   18  C   UNL     1      43.594 -18.680   3.166  1.00  0.00    -0.002 A 
HETATM   19  C   UNL     1      43.942 -20.031   2.977  1.00  0.00     0.076 A 
HETATM   20  C   UNL     1      44.657 -20.704   3.974  1.00  0.00     0.038 A 
HETATM   21  C   UNL     1      45.043 -20.046   5.146  1.00  0.00     0.009 A 
HETATM   22  C   UNL     1      44.730 -18.701   5.338  1.00  0.00    -0.061 A 
HETATM   23  C   UNL     1      45.142 -17.979   6.586  1.00  0.00     0.048 C 
HETATM   24  C   UNL     1      44.010 -18.027   4.346  1.00  0.00     0.018 A 
BRANCH  19  25
HETATM   25  O   UNL     1      43.549 -20.597   1.793  1.00  0.00    -0.355 OA
HETATM   26  C   UNL     1      43.986 -21.921   1.519  1.00  0.00     0.210 C 
ENDBRANCH  19  25
ENDBRANCH  16  18
ENDBRANCH   2  16
TORSDOF 4
ENDMDL
MODEL 4
REMARK VINA RESULT:      -8.3      3.184      7.784
REMARK  4 active torsions:
REMARK  status: ('A' for Active; 'I' for Inactive)
REMARK    1  A    between atoms: C_9  and  C_10 
REMARK       I    between atoms: C_10  and  N_11 
REMARK    2  A    between atoms: N_11  and  C_12 
REMARK    3  A    between atoms: C_12  and  C_13 
REMARK    4  A    between atoms: C_14  and  O_15 
ROOT
HETATM    1  C   UNL     1      41.224 -16.940   1.743  1.00  0.00     0.273 C 
HETATM    2  N   UNL     1      40.956 -15.590   1.722  1.00  0.00    -0.347 N 
HETATM    3  O   UNL     1      40.711 -17.752   0.980  1.00  0.00    -0.266 OA
HETATM    4  H   UNL     1      41.585 -15.032   2.294  1.00  0.00     0.163 HD
ENDROOT
BRANCH   1   5
HETATM    5  C   UNL     1      42.199 -17.312   2.782  1.00  0.00     0.157 A 
HETATM    6  C   UNL     1      42.986 -18.500   2.844  1.00  0.00     0.029 A 
HETATM    7  C   UNL     1      43.141 -19.659   2.057  1.00  0.00     0.023 A 
HETATM    8  C   UNL     1      43.732 -18.380   4.010  1.00  0.00     0.063 A 
HETATM    9  C   UNL     1      44.037 -20.661   2.466  1.00  0.00    -0.061 A 
HETATM   10  C   UNL     1      44.206 -21.910   1.650  1.00  0.00     0.048 C 
HETATM   11  C   UNL     1      44.770 -20.498   3.649  1.00  0.00     0.009 A 
HETATM   12  C   UNL     1      44.634 -19.354   4.444  1.00  0.00     0.032 A 
HETATM   13  N   UNL     1      43.367 -17.177   4.548  1.00  0.00    -0.277 N 
HETATM   14  H   UNL     1      43.715 -16.759   5.403  1.00  0.00     0.189 HD
HETATM   15  N   UNL     1      42.439 -16.508   3.843  1.00  0.00    -0.168 NA
ENDBRANCH   1   5
BRANCH   2  16
HETATM   16  C   UNL     1      40.143 -14.940   0.706  1.00  0.00     0.116 C 
HETATM   17  C   UNL     1      39.002 -14.119   1.315  1.00  0.00     0.037 C 
BRANCH  16  18
HETATM   18  C   UNL     1      40.998 -14.035  -0.176  1.00  0.00    -0.002 A 
HETATM   19  C   UNL     1      41.395 -14.436  -1.466  1.00  0.00     0.076 A 
HETATM   20  C   UNL     1      42.161 -13.569  -2.253  1.00  0.00     0.038 A 
HETATM   21  C   UNL     1      42.522 -12.304  -1.779  1.00  0.00     0.009 A 
HETATM   22  C   UNL     1      42.116 -11.879  -0.515  1.00  0.00    -0.061 A 
HETATM   23  C   UNL     1      42.489 -10.523   0.005  1.00  0.00     0.048 C 
HETATM   24  C   UNL     1      41.355 -12.746   0.276  1.00  0.00     0.018 A 
BRANCH  19  25
HETATM   25  O   UNL     1      40.981 -15.680  -1.867  1.00  0.00    -0.355 OA
HETATM   26  C   UNL     1      40.334 -15.784  -3.127  1.00  0.00     0.210 C 
ENDBRANCH  19  25
ENDBRANCH  16  18
ENDBRANCH   2  16
TORSDOF 4
ENDMDL
MODEL 5
REMARK VINA RESULT:      -8.1      2.103      7.287
REMARK  4 active torsions:
REMARK  status: ('A' for Active; 'I' for Inactive)
REMARK    1  A    between atoms: C_9  and  C_10 
REMARK       I    between atoms: C_10  and  N_11 
REMARK    2  A    between atoms: N_11  and  C_12 
REMARK    3  A    between atoms: C_12  and  C_13 
REMARK    4  A    between atoms: C_14  and  O_15 
ROOT
HETATM    1  C   UNL     1      41.933 -16.689   2.652  1.00  0.00     0.273 C 
HETATM    2  N   UNL     1      42.589 -15.791   1.840  1.00  0.00    -0.347 N 
HETATM    3  O   UNL     1      40.721 -16.880   2.624  1.00  0.00    -0.266 OA
HETATM    4  H   UNL     1      43.602 -15.876   1.861  1.00  0.00     0.163 HD
ENDROOT
BRANCH   1   5
HETATM    5  C   UNL     1      42.842 -17.404   3.563  1.00  0.00     0.157 A 
HETATM    6  C   UNL     1      43.432 -18.689   3.365  1.00  0.00     0.029 A 
HETATM    7  C   UNL     1      43.398 -19.679   2.362  1.00  0.00     0.023 A 
HETATM    8  C   UNL     1      44.194 -18.917   4.504  1.00  0.00     0.063 A 
HETATM    9  C   UNL     1      44.128 -20.867   2.536  1.00  0.00    -0.061 A 
HETATM   10  C   UNL     1      44.093 -21.941   1.488  1.00  0.00     0.048 C 
HETATM   11  C   UNL     1      44.883 -21.056   3.701  1.00  0.00     0.009 A 
HETATM   12  C   UNL     1      44.934 -20.084   4.707  1.00  0.00     0.032 A 
HETATM   13  N   UNL     1      44.027 -17.802   5.278  1.00  0.00    -0.277 N 
HETATM   14  H   UNL     1      44.442 -17.619   6.184  1.00  0.00     0.189 HD
HETATM   15  N   UNL     1      43.212 -16.872   4.750  1.00  0.00    -0.168 NA
ENDBRANCH   1   5
BRANCH   2  16
HETATM   16  C   UNL     1      41.951 -15.063   0.755  1.00  0.00     0.116 C 
HETATM   17  C   UNL     1      41.341 -16.001  -0.292  1.00  0.00     0.037 C 
BRANCH  16  18
HETATM   18  C   UNL     1      40.865 -14.134   1.289  1.00  0.00    -0.002 A 
HETATM   19  C   UNL     1      41.154 -13.159   2.263  1.00  0.00     0.076 A 
HETATM   20  C   UNL     1      40.135 -12.311   2.713  1.00  0.00     0.038 A 
HETATM   21  C   UNL     1      38.841 -12.410   2.194  1.00  0.00     0.009 A 
HETATM   22  C   UNL     1      38.543 -13.351   1.210  1.00  0.00    -0.061 A 
HETATM   23  C   UNL     1      37.162 -13.466   0.638  1.00  0.00     0.048 C 
HETATM   24  C   UNL     1      39.558 -14.204   0.763  1.00  0.00     0.018 A 
BRANCH  19  25
HETATM   25  O   UNL     1      42.450 -13.109   2.704  1.00  0.00    -0.355 OA
HETATM   26  C   UNL     1      42.668 -13.092   4.108  1.00  0.00     0.210 C 
ENDBRANCH  19  25
ENDBRANCH  16  18
ENDBRANCH   2  16
TORSDOF 4
ENDMDL
MODEL 6
REMARK VINA RESULT:      -8.0      2.915      7.386
REMARK  4 active torsions:
REMARK  status: ('A' for Active; 'I' for Inactive)
REMARK    1  A    between atoms: C_9  and  C_10 
REMARK       I    between atoms: C_10  and  N_11 
REMARK    2  A    between atoms: N_11  and  C_12 
REMARK    3  A    between atoms: C_12  and  C_13 
REMARK    4  A    between atoms: C_14  and  O_15 
ROOT
HETATM    1  C   UNL     1      41.299 -17.086   1.852  1.00  0.00     0.273 C 
HETATM    2  N   UNL     1      40.918 -15.768   1.967  1.00  0.00    -0.347 N 
HETATM    3  O   UNL     1      40.913 -17.836   0.961  1.00  0.00    -0.266 OA
HETATM    4  H   UNL     1      41.455 -15.238   2.648  1.00  0.00     0.163 HD
ENDROOT
BRANCH   1   5
HETATM    5  C   UNL     1      42.227 -17.505   2.917  1.00  0.00     0.157 A 
HETATM    6  C   UNL     1      43.024 -18.688   2.952  1.00  0.00     0.029 A 
HETATM    7  C   UNL     1      43.232 -19.799   2.110  1.00  0.00     0.023 A 
HETATM    8  C   UNL     1      43.711 -18.626   4.158  1.00  0.00     0.063 A 
HETATM    9  C   UNL     1      44.120 -20.813   2.507  1.00  0.00    -0.061 A 
HETATM   10  C   UNL     1      44.344 -22.014   1.633  1.00  0.00     0.048 C 
HETATM   11  C   UNL     1      44.792 -20.710   3.732  1.00  0.00     0.009 A 
HETATM   12  C   UNL     1      44.603 -19.613   4.581  1.00  0.00     0.032 A 
HETATM   13  N   UNL     1      43.306 -17.458   4.743  1.00  0.00    -0.277 N 
HETATM   14  H   UNL     1      43.606 -17.085   5.636  1.00  0.00     0.189 HD
HETATM   15  N   UNL     1      42.405 -16.760   4.030  1.00  0.00    -0.168 NA
ENDBRANCH   1   5
BRANCH   2  16
HETATM   16  C   UNL     1      40.126 -15.063   0.970  1.00  0.00     0.116 C 
HETATM   17  C   UNL     1      38.808 -14.534   1.547  1.00  0.00     0.037 C 
BRANCH  16  18
HETATM   18  C   UNL     1      40.915 -13.903   0.372  1.00  0.00    -0.002 A 
HETATM   19  C   UNL     1      41.452 -12.888   1.187  1.00  0.00     0.076 A 
HETATM   20  C   UNL     1      42.187 -11.851   0.603  1.00  0.00     0.038 A 
HETATM   21  C   UNL     1      42.409 -11.821  -0.777  1.00  0.00     0.009 A 
HETATM   22  C   UNL     1      41.908 -12.831  -1.597  1.00  0.00    -0.061 A 
HETATM   23  C   UNL     1      42.143 -12.817  -3.078  1.00  0.00     0.048 C 
HETATM   24  C   UNL     1      41.167 -13.866  -1.017  1.00  0.00     0.018 A 
BRANCH  19  25
HETATM   25  O   UNL     1      41.211 -13.001   2.532  1.00  0.00    -0.355 OA
HETATM   26  C   UNL     1      42.325 -12.919   3.409  1.00  0.00     0.210 C 
ENDBRANCH  19  25
ENDBRANCH  16  18
ENDBRANCH   2  16
TORSDOF 4
ENDMDL
MODEL 7
REMARK VINA RESULT:      -8.0      2.833      3.955
REMARK  4 active torsions:
REMARK  status: ('A' for Active; 'I' for Inactive)
REMARK    1  A    between atoms: C_9  and  C_10 
REMARK       I    between atoms: C_10  and  N_11 
REMARK    2  A    between atoms: N_11  and  C_12 
REMARK    3  A    between atoms: C_12  and  C_13 
REMARK    4  A    between atoms: C_14  and  O_15 
ROOT
HETATM    1  C   UNL     1      42.592 -15.737   2.299  1.00  0.00     0.273 C 
HETATM    2  N   UNL     1      41.905 -16.692   3.015  1.00  0.00    -0.347 N 
HETATM    3  O   UNL     1      43.568 -15.130   2.728  1.00  0.00    -0.266 OA
HETATM    4  H   UNL     1      41.236 -17.223   2.464  1.00  0.00     0.163 HD
ENDROOT
BRANCH   1   5
HETATM    5  C   UNL     1      42.031 -15.519   0.955  1.00  0.00     0.157 A 
HETATM    6  C   UNL     1      41.750 -14.268   0.328  1.00  0.00     0.029 A 
HETATM    7  C   UNL     1      41.867 -12.907   0.677  1.00  0.00     0.023 A 
HETATM    8  C   UNL     1      41.229 -14.596  -0.917  1.00  0.00     0.063 A 
HETATM    9  C   UNL     1      41.455 -11.920  -0.235  1.00  0.00    -0.061 A 
HETATM   10  C   UNL     1      41.556 -10.465   0.123  1.00  0.00     0.048 C 
HETATM   11  C   UNL     1      40.936 -12.296  -1.480  1.00  0.00     0.009 A 
HETATM   12  C   UNL     1      40.814 -13.641  -1.848  1.00  0.00     0.032 A 
HETATM   13  N   UNL     1      41.236 -15.963  -0.961  1.00  0.00    -0.277 N 
HETATM   14  H   UNL     1      40.927 -16.552  -1.726  1.00  0.00     0.189 HD
HETATM   15  N   UNL     1      41.703 -16.556   0.152  1.00  0.00    -0.168 NA
ENDBRANCH   1   5
BRANCH   2  16
HETATM   16  C   UNL     1      42.335 -17.200   4.309  1.00  0.00     0.116 C 
HETATM   17  C   UNL     1      41.152 -17.631   5.183  1.00  0.00     0.037 C 
BRANCH  16  18
HETATM   18  C   UNL     1      43.289 -18.378   4.139  1.00  0.00    -0.002 A 
HETATM   19  C   UNL     1      44.284 -18.655   5.096  1.00  0.00     0.076 A 
HETATM   20  C   UNL     1      45.127 -19.757   4.915  1.00  0.00     0.038 A 
HETATM   21  C   UNL     1      44.980 -20.596   3.806  1.00  0.00     0.009 A 
HETATM   22  C   UNL     1      43.983 -20.353   2.863  1.00  0.00    -0.061 A 
HETATM   23  C   UNL     1      43.807 -21.247   1.671  1.00  0.00     0.048 C 
HETATM   24  C   UNL     1      43.143 -19.248   3.037  1.00  0.00     0.018 A 
BRANCH  19  25
HETATM   25  O   UNL     1      44.349 -17.801   6.166  1.00  0.00    -0.355 OA
HETATM   26  C   UNL     1      44.153 -18.352   7.461  1.00  0.00     0.210 C 
ENDBRANCH  19  25
ENDBRANCH  16  18
ENDBRANCH   2  16
TORSDOF 4
ENDMDL
MODEL 8
REMARK VINA RESULT:      -8.0      1.957      7.509
REMARK  4 active torsions:
REMARK  status: ('A' for Active; 'I' for Inactive)
REMARK    1  A    between atoms: C_9  and  C_10 
REMARK       I    between atoms: C_10  and  N_11 
REMARK    2  A    between atoms: N_11  and  C_12 
REMARK    3  A    between atoms: C_12  and  C_13 
REMARK    4  A    between atoms: C_14  and  O_15 
ROOT
HETATM    1  C   UNL     1      43.509 -16.708   3.095  1.00  0.00     0.273 C 
HETATM    2  N   UNL     1      42.526 -15.877   3.584  1.00  0.00    -0.347 N 
HETATM    3  O   UNL     1      44.038 -16.571   1.996  1.00  0.00    -0.266 OA
HETATM    4  H   UNL     1      42.317 -16.017   4.569  1.00  0.00     0.163 HD
ENDROOT
BRANCH   1   5
HETATM    5  C   UNL     1      43.862 -17.787   4.033  1.00  0.00     0.157 A 
HETATM    6  C   UNL     1      44.094 -19.161   3.724  1.00  0.00     0.029 A 
HETATM    7  C   UNL     1      44.081 -19.957   2.561  1.00  0.00     0.023 A 
HETATM    8  C   UNL     1      44.384 -19.762   4.942  1.00  0.00     0.063 A 
HETATM    9  C   UNL     1      44.356 -21.331   2.659  1.00  0.00    -0.061 A 
HETATM   10  C   UNL     1      44.331 -22.201   1.435  1.00  0.00     0.048 C 
HETATM   11  C   UNL     1      44.643 -21.896   3.908  1.00  0.00     0.009 A 
HETATM   12  C   UNL     1      44.666 -21.123   5.074  1.00  0.00     0.032 A 
HETATM   13  N   UNL     1      44.318 -18.755   5.865  1.00  0.00    -0.277 N 
HETATM   14  H   UNL     1      44.478 -18.829   6.863  1.00  0.00     0.189 HD
HETATM   15  N   UNL     1      43.997 -17.552   5.358  1.00  0.00    -0.168 NA
ENDBRANCH   1   5
BRANCH   2  16
HETATM   16  C   UNL     1      42.095 -14.655   2.924  1.00  0.00     0.116 C 
HETATM   17  C   UNL     1      40.982 -14.910   1.902  1.00  0.00     0.037 C 
BRANCH  16  18
HETATM   18  C   UNL     1      41.614 -13.627   3.944  1.00  0.00    -0.002 A 
HETATM   19  C   UNL     1      42.417 -13.254   5.039  1.00  0.00     0.076 A 
HETATM   20  C   UNL     1      41.950 -12.293   5.941  1.00  0.00     0.038 A 
HETATM   21  C   UNL     1      40.703 -11.687   5.759  1.00  0.00     0.009 A 
HETATM   22  C   UNL     1      39.905 -12.024   4.666  1.00  0.00    -0.061 A 
HETATM   23  C   UNL     1      38.568 -11.379   4.452  1.00  0.00     0.048 C 
HETATM   24  C   UNL     1      40.367 -12.990   3.766  1.00  0.00     0.018 A 
BRANCH  19  25
HETATM   25  O   UNL     1      43.636 -13.875   5.135  1.00  0.00    -0.355 OA
HETATM   26  C   UNL     1      44.187 -14.047   6.433  1.00  0.00     0.210 C 
ENDBRANCH  19  25
ENDBRANCH  16  18
ENDBRANCH   2  16
TORSDOF 4
ENDMDL
MODEL 9
REMARK VINA RESULT:      -8.0      1.153      2.342
REMARK  4 active torsions:
REMARK  status: ('A' for Active; 'I' for Inactive)
REMARK    1  A    between atoms: C_9  and  C_10 
REMARK       I    between atoms: C_10  and  N_11 
REMARK    2  A    between atoms: N_11  and  C_12 
REMARK    3  A    between atoms: C_12  and  C_13 
REMARK    4  A    between atoms: C_14  and  O_15 
ROOT
HETATM    1  C   UNL     1      40.844 -16.203   3.162  1.00  0.00     0.273 C 
HETATM    2  N   UNL     1      42.180 -16.523   3.255  1.00  0.00    -0.347 N 
HETATM    3  O   UNL     1      40.074 -16.708   2.351  1.00  0.00    -0.266 OA
HETATM    4  H   UNL     1      42.638 -16.152   4.084  1.00  0.00     0.163 HD
ENDROOT
BRANCH   1   5
HETATM    5  C   UNL     1      40.431 -15.185   4.143  1.00  0.00     0.157 A 
HETATM    6  C   UNL     1      39.827 -13.920   3.874  1.00  0.00     0.029 A 
HETATM    7  C   UNL     1      39.430 -13.207   2.725  1.00  0.00     0.023 A 
HETATM    8  C   UNL     1      39.642 -13.336   5.120  1.00  0.00     0.063 A 
HETATM    9  C   UNL     1      38.862 -11.929   2.864  1.00  0.00    -0.061 A 
HETATM   10  C   UNL     1      38.447 -11.145   1.652  1.00  0.00     0.048 C 
HETATM   11  C   UNL     1      38.694 -11.377   4.140  1.00  0.00     0.009 A 
HETATM   12  C   UNL     1      39.078 -12.070   5.295  1.00  0.00     0.032 A 
HETATM   13  N   UNL     1      40.119 -14.248   6.020  1.00  0.00    -0.277 N 
HETATM   14  H   UNL     1      40.140 -14.158   7.030  1.00  0.00     0.189 HD
HETATM   15  N   UNL     1      40.612 -15.371   5.470  1.00  0.00    -0.168 NA
ENDBRANCH   1   5
BRANCH   2  16
HETATM   16  C   UNL     1      42.810 -17.598   2.505  1.00  0.00     0.116 C 
HETATM   17  C   UNL     1      43.719 -17.069   1.391  1.00  0.00     0.037 C 
BRANCH  16  18
HETATM   18  C   UNL     1      43.621 -18.501   3.429  1.00  0.00    -0.002 A 
HETATM   19  C   UNL     1      43.947 -19.820   3.059  1.00  0.00     0.076 A 
HETATM   20  C   UNL     1      44.711 -20.611   3.925  1.00  0.00     0.038 A 
HETATM   21  C   UNL     1      45.168 -20.100   5.143  1.00  0.00     0.009 A 
HETATM   22  C   UNL     1      44.878 -18.788   5.515  1.00  0.00    -0.061 A 
HETATM   23  C   UNL     1      45.366 -18.224   6.816  1.00  0.00     0.048 C 
HETATM   24  C   UNL     1      44.109 -17.998   4.655  1.00  0.00     0.018 A 
BRANCH  19  25
HETATM   25  O   UNL     1      43.484 -20.238   1.839  1.00  0.00    -0.355 OA
HETATM   26  C   UNL     1      43.592 -21.621   1.532  1.00  0.00     0.210 C 
ENDBRANCH  19  25
ENDBRANCH  16  18
ENDBRANCH   2  16
TORSDOF 4
ENDMDL
MODEL 10
REMARK VINA RESULT:      -7.7      3.328      4.461
REMARK  4 active torsions:
REMARK  status: ('A' for Active; 'I' for Inactive)
REMARK    1  A    between atoms: C_9  and  C_10 
REMARK       I    between atoms: C_10  and  N_11 
REMARK    2  A    between atoms: N_11  and  C_12 
REMARK    3  A    between atoms: C_12  and  C_13 
REMARK    4  A    between atoms: C_14  and  O_15 
ROOT
HETATM    1  C   UNL     1      42.008 -14.359   2.583  1.00  0.00     0.273 C 
HETATM    2  N   UNL     1      42.075 -15.479   3.381  1.00  0.00    -0.347 N 
HETATM    3  O   UNL     1      42.808 -13.431   2.636  1.00  0.00    -0.266 OA
HETATM    4  H   UNL     1      41.449 -16.229   3.098  1.00  0.00     0.163 HD
ENDROOT
BRANCH   1   5
HETATM    5  C   UNL     1      40.868 -14.391   1.651  1.00  0.00     0.157 A 
HETATM    6  C   UNL     1      40.873 -14.046   0.267  1.00  0.00     0.029 A 
HETATM    7  C   UNL     1      41.829 -13.589  -0.664  1.00  0.00     0.023 A 
HETATM    8  C   UNL     1      39.564 -14.234  -0.158  1.00  0.00     0.063 A 
HETATM    9  C   UNL     1      41.439 -13.334  -1.989  1.00  0.00    -0.061 A 
HETATM   10  C   UNL     1      42.437 -12.832  -2.992  1.00  0.00     0.048 C 
HETATM   11  C   UNL     1      40.107 -13.537  -2.375  1.00  0.00     0.009 A 
HETATM   12  C   UNL     1      39.143 -13.993  -1.468  1.00  0.00     0.032 A 
HETATM   13  N   UNL     1      38.886 -14.667   0.947  1.00  0.00    -0.277 N 
HETATM   14  H   UNL     1      37.903 -14.908   1.006  1.00  0.00     0.189 HD
HETATM   15  N   UNL     1      39.634 -14.765   2.059  1.00  0.00    -0.168 NA
ENDBRANCH   1   5
BRANCH   2  16
HETATM   16  C   UNL     1      43.179 -15.767   4.283  1.00  0.00     0.116 C 
HETATM   17  C   UNL     1      42.869 -15.356   5.727  1.00  0.00     0.037 C 
BRANCH  16  18
HETATM   18  C   UNL     1      43.536 -17.250   4.249  1.00  0.00    -0.002 A 
HETATM   19  C   UNL     1      43.972 -17.868   3.062  1.00  0.00     0.076 A 
HETATM   20  C   UNL     1      44.310 -19.226   3.075  1.00  0.00     0.038 A 
HETATM   21  C   UNL     1      44.237 -19.969   4.257  1.00  0.00     0.009 A 
HETATM   22  C   UNL     1      43.833 -19.368   5.449  1.00  0.00    -0.061 A 
HETATM   23  C   UNL     1      43.755 -20.149   6.726  1.00  0.00     0.048 C 
HETATM   24  C   UNL     1      43.488 -18.012   5.436  1.00  0.00     0.018 A 
BRANCH  19  25
HETATM   25  O   UNL     1      44.040 -17.067   1.952  1.00  0.00    -0.355 OA
HETATM   26  C   UNL     1      43.269 -17.443   0.820  1.00  0.00     0.210 C 
ENDBRANCH  19  25
ENDBRANCH  16  18
ENDBRANCH   2  16
TORSDOF 4
ENDMDL
