MODEL 1
REMARK VINA RESULT:      -7.9      0.000      0.000
REMARK  7 active torsions:
REMARK  status: ('A' for Active; 'I' for Inactive)
REMARK    1  A    between atoms: C_3  and  O_4 
REMARK    2  A    between atoms: C_5  and  C_6 
REMARK       I    between atoms: C_6  and  N_7 
REMARK    3  A    between atoms: N_7  and  C_8 
REMARK    4  A    between atoms: C_8  and  C_9 
REMARK    5  A    between atoms: C_9  and  C_10 
REMARK    6  A    between atoms: C_10  and  C_11 
REMARK    7  A    between atoms: C_15  and  C_16 
ROOT
HETATM    1  C   UNL     1      42.441 -13.650   2.900  1.00  0.00     0.126 C 
ENDROOT
BRANCH   1   2
HETATM    2  N   UNL     1      41.629 -12.999   3.934  1.00  0.00    -0.352 N 
HETATM    3  C   UNL     1      41.507 -13.469   5.247  1.00  0.00     0.256 C 
HETATM    4  O   UNL     1      41.244 -12.728   6.198  1.00  0.00    -0.267 OA
HETATM    5  C   UNL     1      41.354 -11.583   3.727  1.00  0.00     0.152 C 
BRANCH   3   6
HETATM    6  C   UNL     1      41.750 -14.893   5.579  1.00  0.00     0.065 A 
HETATM    7  C   UNL     1      43.043 -15.296   5.958  1.00  0.00     0.087 A 
HETATM    8  C   UNL     1      43.315 -16.633   6.275  1.00  0.00    -0.028 A 
HETATM    9  C   UNL     1      44.697 -17.063   6.675  1.00  0.00     0.051 C 
HETATM   10  C   UNL     1      42.266 -17.562   6.235  1.00  0.00     0.009 A 
HETATM   11  C   UNL     1      40.968 -17.158   5.916  1.00  0.00     0.002 A 
HETATM   12  C   UNL     1      40.705 -15.822   5.607  1.00  0.00     0.020 A 
BRANCH   7  13
HETATM   13  O   UNL     1      44.077 -14.397   6.052  1.00  0.00    -0.359 OA
HETATM   14  H   UNL     1      43.870 -13.790   6.797  1.00  0.00     0.218 HD
ENDBRANCH   7  13
ENDBRANCH   3   6
ENDBRANCH   1   2
BRANCH   1  15
HETATM   15  C   UNL     1      41.663 -13.917   1.608  1.00  0.00     0.026 C 
BRANCH  15  16
HETATM   16  C   UNL     1      40.995 -15.290   1.674  1.00  0.00     0.060 C 
BRANCH  16  17
HETATM   17  C   UNL     1      41.922 -16.457   1.619  1.00  0.00     0.030 A 
HETATM   18  N   UNL     1      42.864 -16.674   0.654  1.00  0.00    -0.282 N 
HETATM   19  H   UNL     1      43.076 -16.106  -0.160  1.00  0.00     0.189 HD
HETATM   20  N   UNL     1      43.584 -17.789   0.839  1.00  0.00    -0.174 NA
HETATM   21  C   UNL     1      43.116 -18.321   1.981  1.00  0.00     0.089 A 
HETATM   22  C   UNL     1      42.063 -17.515   2.492  1.00  0.00     0.060 A 
BRANCH  21  23
HETATM   23  C   UNL     1      43.677 -19.555   2.550  1.00  0.00    -0.006 A 
HETATM   24  C   UNL     1      44.238 -19.557   3.837  1.00  0.00     0.014 A 
HETATM   25  C   UNL     1      44.767 -20.726   4.390  1.00  0.00     0.001 A 
HETATM   26  C   UNL     1      44.742 -21.914   3.663  1.00  0.00     0.000 A 
HETATM   27  C   UNL     1      44.188 -21.932   2.385  1.00  0.00     0.001 A 
HETATM   28  C   UNL     1      43.659 -20.761   1.832  1.00  0.00     0.014 A 
ENDBRANCH  21  23
ENDBRANCH  16  17
ENDBRANCH  15  16
ENDBRANCH   1  15
TORSDOF 7
ENDMDL
MODEL 2
REMARK VINA RESULT:      -7.9      1.385      1.982
REMARK  7 active torsions:
REMARK  status: ('A' for Active; 'I' for Inactive)
REMARK    1  A    between atoms: C_3  and  O_4 
REMARK    2  A    between atoms: C_5  and  C_6 
REMARK       I    between atoms: C_6  and  N_7 
REMARK    3  A    between atoms: N_7  and  C_8 
REMARK    4  A    between atoms: C_8  and  C_9 
REMARK    5  A    between atoms: C_9  and  C_10 
REMARK    6  A    between atoms: C_10  and  C_11 
REMARK    7  A    between atoms: C_15  and  C_16 
ROOT
HETATM    1  C   UNL     1      41.050 -15.555   2.571  1.00  0.00     0.126 C 
ENDROOT
BRANCH   1   2
HETATM    2  N   UNL     1      40.053 -14.927   3.443  1.00  0.00    -0.352 N 
HETATM    3  C   UNL     1      40.281 -14.596   4.784  1.00  0.00     0.256 C 
HETATM    4  O   UNL     1      39.671 -13.691   5.360  1.00  0.00    -0.267 OA
HETATM    5  C   UNL     1      38.992 -14.190   2.769  1.00  0.00     0.152 C 
BRANCH   3   6
HETATM    6  C   UNL     1      41.326 -15.285   5.579  1.00  0.00     0.065 A 
HETATM    7  C   UNL     1      42.528 -14.612   5.859  1.00  0.00     0.087 A 
HETATM    8  C   UNL     1      43.542 -15.230   6.602  1.00  0.00    -0.028 A 
HETATM    9  C   UNL     1      44.827 -14.511   6.896  1.00  0.00     0.051 C 
HETATM   10  C   UNL     1      43.326 -16.526   7.088  1.00  0.00     0.009 A 
HETATM   11  C   UNL     1      42.112 -17.179   6.864  1.00  0.00     0.002 A 
HETATM   12  C   UNL     1      41.105 -16.553   6.126  1.00  0.00     0.020 A 
BRANCH   7  13
HETATM   13  O   UNL     1      42.745 -13.324   5.435  1.00  0.00    -0.359 OA
HETATM   14  H   UNL     1      41.871 -12.874   5.405  1.00  0.00     0.218 HD
ENDBRANCH   7  13
ENDBRANCH   3   6
ENDBRANCH   1   2
BRANCH   1  15
HETATM   15  C   UNL     1      42.133 -14.579   2.100  1.00  0.00     0.026 C 
BRANCH  15  16
HETATM   16  C   UNL     1      43.514 -15.099   2.503  1.00  0.00     0.060 C 
BRANCH  16  17
HETATM   17  C   UNL     1      43.695 -16.576   2.408  1.00  0.00     0.030 A 
HETATM   18  N   UNL     1      43.745 -17.295   1.247  1.00  0.00    -0.282 N 
HETATM   19  H   UNL     1      43.661 -16.959   0.293  1.00  0.00     0.189 HD
HETATM   20  N   UNL     1      43.933 -18.609   1.430  1.00  0.00    -0.174 NA
HETATM   21  C   UNL     1      44.033 -18.766   2.761  1.00  0.00     0.089 A 
HETATM   22  C   UNL     1      43.877 -17.509   3.407  1.00  0.00     0.060 A 
BRANCH  21  23
HETATM   23  C   UNL     1      44.277 -20.080   3.372  1.00  0.00    -0.006 A 
HETATM   24  C   UNL     1      44.313 -21.239   2.580  1.00  0.00     0.014 A 
HETATM   25  C   UNL     1      44.550 -22.493   3.149  1.00  0.00     0.001 A 
HETATM   26  C   UNL     1      44.757 -22.607   4.522  1.00  0.00     0.000 A 
HETATM   27  C   UNL     1      44.727 -21.467   5.324  1.00  0.00     0.001 A 
HETATM   28  C   UNL     1      44.488 -20.213   4.753  1.00  0.00     0.014 A 
ENDBRANCH  21  23
ENDBRANCH  16  17
ENDBRANCH  15  16
ENDBRANCH   1  15
TORSDOF 7
ENDMDL
MODEL 3
REMARK VINA RESULT:      -7.8      1.959      2.873
REMARK  7 active torsions:
REMARK  status: ('A' for Active; 'I' for Inactive)
REMARK    1  A    between atoms: C_3  and  O_4 
REMARK    2  A    between atoms: C_5  and  C_6 
REMARK       I    between atoms: C_6  and  N_7 
REMARK    3  A    between atoms: N_7  and  C_8 
REMARK    4  A    between atoms: C_8  and  C_9 
REMARK    5  A    between atoms: C_9  and  C_10 
REMARK    6  A    between atoms: C_10  and  C_11 
REMARK    7  A    between atoms: C_15  and  C_16 
ROOT
HETATM    1  C   UNL     1      41.516 -13.827  -0.131  1.00  0.00     0.126 C 
ENDROOT
BRANCH   1   2
HETATM    2  N   UNL     1      40.372 -13.421   0.691  1.00  0.00    -0.352 N 
HETATM    3  C   UNL     1      40.419 -13.273   2.082  1.00  0.00     0.256 C 
HETATM    4  O   UNL     1      39.662 -12.518   2.699  1.00  0.00    -0.267 OA
HETATM    5  C   UNL     1      39.322 -12.684  -0.001  1.00  0.00     0.152 C 
BRANCH   3   6
HETATM    6  C   UNL     1      41.436 -13.982   2.896  1.00  0.00     0.065 A 
HETATM    7  C   UNL     1      41.066 -15.149   3.588  1.00  0.00     0.087 A 
HETATM    8  C   UNL     1      41.995 -15.845   4.371  1.00  0.00    -0.028 A 
HETATM    9  C   UNL     1      41.597 -17.088   5.114  1.00  0.00     0.051 C 
HETATM   10  C   UNL     1      43.314 -15.373   4.432  1.00  0.00     0.009 A 
HETATM   11  C   UNL     1      43.702 -14.249   3.700  1.00  0.00     0.002 A 
HETATM   12  C   UNL     1      42.770 -13.564   2.918  1.00  0.00     0.020 A 
BRANCH   7  13
HETATM   13  O   UNL     1      39.794 -15.659   3.507  1.00  0.00    -0.359 OA
HETATM   14  H   UNL     1      39.349 -15.218   2.749  1.00  0.00     0.218 HD
ENDBRANCH   7  13
ENDBRANCH   3   6
ENDBRANCH   1   2
BRANCH   1  15
HETATM   15  C   UNL     1      41.299 -15.167  -0.841  1.00  0.00     0.026 C 
BRANCH  15  16
HETATM   16  C   UNL     1      40.880 -16.232   0.173  1.00  0.00     0.060 C 
BRANCH  16  17
HETATM   17  C   UNL     1      41.998 -16.994   0.800  1.00  0.00     0.030 A 
HETATM   18  N   UNL     1      43.301 -16.586   0.856  1.00  0.00    -0.282 N 
HETATM   19  H   UNL     1      43.712 -15.735   0.487  1.00  0.00     0.189 HD
HETATM   20  N   UNL     1      44.111 -17.445   1.489  1.00  0.00    -0.174 NA
HETATM   21  C   UNL     1      43.313 -18.450   1.888  1.00  0.00     0.089 A 
HETATM   22  C   UNL     1      41.980 -18.204   1.460  1.00  0.00     0.060 A 
BRANCH  21  23
HETATM   23  C   UNL     1      43.828 -19.593   2.655  1.00  0.00    -0.006 A 
HETATM   24  C   UNL     1      43.845 -20.880   2.093  1.00  0.00     0.014 A 
HETATM   25  C   UNL     1      44.339 -21.973   2.810  1.00  0.00     0.001 A 
HETATM   26  C   UNL     1      44.824 -21.795   4.104  1.00  0.00     0.000 A 
HETATM   27  C   UNL     1      44.817 -20.525   4.678  1.00  0.00     0.001 A 
HETATM   28  C   UNL     1      44.322 -19.432   3.959  1.00  0.00     0.014 A 
ENDBRANCH  21  23
ENDBRANCH  16  17
ENDBRANCH  15  16
ENDBRANCH   1  15
TORSDOF 7
ENDMDL
MODEL 4
REMARK VINA RESULT:      -7.7      2.076      3.700
REMARK  7 active torsions:
REMARK  status: ('A' for Active; 'I' for Inactive)
REMARK    1  A    between atoms: C_3  and  O_4 
REMARK    2  A    between atoms: C_5  and  C_6 
REMARK       I    between atoms: C_6  and  N_7 
REMARK    3  A    between atoms: N_7  and  C_8 
REMARK    4  A    between atoms: C_8  and  C_9 
REMARK    5  A    between atoms: C_9  and  C_10 
REMARK    6  A    between atoms: C_10  and  C_11 
REMARK    7  A    between atoms: C_15  and  C_16 
ROOT
HETATM    1  C   UNL     1      40.337 -14.581   5.663  1.00  0.00     0.126 C 
ENDROOT
BRANCH   1   2
HETATM    2  N   UNL     1      41.301 -13.660   5.053  1.00  0.00    -0.352 N 
HETATM    3  C   UNL     1      41.643 -13.668   3.696  1.00  0.00     0.256 C 
HETATM    4  O   UNL     1      42.053 -12.665   3.105  1.00  0.00    -0.267 OA
HETATM    5  C   UNL     1      41.524 -12.409   5.767  1.00  0.00     0.152 C 
BRANCH   3   6
HETATM    6  C   UNL     1      41.473 -14.887   2.867  1.00  0.00     0.065 A 
HETATM    7  C   UNL     1      42.613 -15.591   2.444  1.00  0.00     0.087 A 
HETATM    8  C   UNL     1      42.495 -16.743   1.656  1.00  0.00    -0.028 A 
HETATM    9  C   UNL     1      43.715 -17.492   1.200  1.00  0.00     0.051 C 
HETATM   10  C   UNL     1      41.214 -17.202   1.320  1.00  0.00     0.009 A 
HETATM   11  C   UNL     1      40.076 -16.540   1.787  1.00  0.00     0.002 A 
HETATM   12  C   UNL     1      40.203 -15.395   2.575  1.00  0.00     0.020 A 
BRANCH   7  13
HETATM   13  O   UNL     1      43.878 -15.191   2.800  1.00  0.00    -0.359 OA
HETATM   14  H   UNL     1      43.815 -14.258   3.104  1.00  0.00     0.218 HD
ENDBRANCH   7  13
ENDBRANCH   3   6
ENDBRANCH   1   2
BRANCH   1  15
HETATM   15  C   UNL     1      40.963 -15.917   6.075  1.00  0.00     0.026 C 
BRANCH  15  16
HETATM   16  C   UNL     1      42.465 -15.742   6.300  1.00  0.00     0.060 C 
BRANCH  16  17
HETATM   17  C   UNL     1      43.305 -16.929   5.970  1.00  0.00     0.030 A 
HETATM   18  N   UNL     1      44.559 -17.171   6.455  1.00  0.00    -0.282 N 
HETATM   19  H   UNL     1      45.111 -16.602   7.089  1.00  0.00     0.189 HD
HETATM   20  N   UNL     1      45.098 -18.318   6.019  1.00  0.00    -0.174 NA
HETATM   21  C   UNL     1      44.158 -18.868   5.231  1.00  0.00     0.089 A 
HETATM   22  C   UNL     1      43.022 -18.015   5.169  1.00  0.00     0.060 A 
BRANCH  21  23
HETATM   23  C   UNL     1      44.358 -20.168   4.576  1.00  0.00    -0.006 A 
HETATM   24  C   UNL     1      44.250 -20.288   3.181  1.00  0.00     0.014 A 
HETATM   25  C   UNL     1      44.445 -21.518   2.547  1.00  0.00     0.001 A 
HETATM   26  C   UNL     1      44.752 -22.649   3.299  1.00  0.00     0.000 A 
HETATM   27  C   UNL     1      44.865 -22.549   4.685  1.00  0.00     0.001 A 
HETATM   28  C   UNL     1      44.669 -21.318   5.318  1.00  0.00     0.014 A 
ENDBRANCH  21  23
ENDBRANCH  16  17
ENDBRANCH  15  16
ENDBRANCH   1  15
TORSDOF 7
ENDMDL
MODEL 5
REMARK VINA RESULT:      -7.7      1.446      2.221
REMARK  7 active torsions:
REMARK  status: ('A' for Active; 'I' for Inactive)
REMARK    1  A    between atoms: C_3  and  O_4 
REMARK    2  A    between atoms: C_5  and  C_6 
REMARK       I    between atoms: C_6  and  N_7 
REMARK    3  A    between atoms: N_7  and  C_8 
REMARK    4  A    between atoms: C_8  and  C_9 
REMARK    5  A    between atoms: C_9  and  C_10 
REMARK    6  A    between atoms: C_10  and  C_11 
REMARK    7  A    between atoms: C_15  and  C_16 
ROOT
HETATM    1  C   UNL     1      40.623 -13.133   2.604  1.00  0.00     0.126 C 
ENDROOT
BRANCH   1   2
HETATM    2  N   UNL     1      39.888 -12.695   3.794  1.00  0.00    -0.352 N 
HETATM    3  C   UNL     1      40.398 -12.755   5.097  1.00  0.00     0.256 C 
HETATM    4  O   UNL     1      40.021 -11.998   5.996  1.00  0.00    -0.267 OA
HETATM    5  C   UNL     1      38.821 -11.730   3.563  1.00  0.00     0.152 C 
BRANCH   3   6
HETATM    6  C   UNL     1      41.478 -13.705   5.456  1.00  0.00     0.065 A 
HETATM    7  C   UNL     1      41.138 -15.014   5.839  1.00  0.00     0.087 A 
HETATM    8  C   UNL     1      42.128 -15.941   6.191  1.00  0.00    -0.028 A 
HETATM    9  C   UNL     1      41.762 -17.337   6.604  1.00  0.00     0.051 C 
HETATM   10  C   UNL     1      43.472 -15.548   6.127  1.00  0.00     0.009 A 
HETATM   11  C   UNL     1      43.820 -14.268   5.691  1.00  0.00     0.002 A 
HETATM   12  C   UNL     1      42.826 -13.353   5.338  1.00  0.00     0.020 A 
BRANCH   7  13
HETATM   13  O   UNL     1      39.832 -15.439   5.863  1.00  0.00    -0.359 OA
HETATM   14  H   UNL     1      39.844 -16.422   5.876  1.00  0.00     0.218 HD
ENDBRANCH   7  13
ENDBRANCH   3   6
ENDBRANCH   1   2
BRANCH   1  15
HETATM   15  C   UNL     1      39.735 -13.851   1.582  1.00  0.00     0.026 C 
BRANCH  15  16
HETATM   16  C   UNL     1      39.458 -15.281   2.046  1.00  0.00     0.060 C 
BRANCH  16  17
HETATM   17  C   UNL     1      40.592 -16.237   1.888  1.00  0.00     0.030 A 
HETATM   18  N   UNL     1      41.392 -16.341   0.786  1.00  0.00    -0.282 N 
HETATM   19  H   UNL     1      41.345 -15.815  -0.080  1.00  0.00     0.189 HD
HETATM   20  N   UNL     1      42.353 -17.268   0.899  1.00  0.00    -0.174 NA
HETATM   21  C   UNL     1      42.199 -17.783   2.131  1.00  0.00     0.089 A 
HETATM   22  C   UNL     1      41.093 -17.165   2.776  1.00  0.00     0.060 A 
BRANCH  21  23
HETATM   23  C   UNL     1      43.094 -18.825   2.655  1.00  0.00    -0.006 A 
HETATM   24  C   UNL     1      43.349 -19.987   1.909  1.00  0.00     0.014 A 
HETATM   25  C   UNL     1      44.204 -20.981   2.395  1.00  0.00     0.001 A 
HETATM   26  C   UNL     1      44.818 -20.826   3.635  1.00  0.00     0.000 A 
HETATM   27  C   UNL     1      44.578 -19.679   4.388  1.00  0.00     0.001 A 
HETATM   28  C   UNL     1      43.723 -18.685   3.902  1.00  0.00     0.014 A 
ENDBRANCH  21  23
ENDBRANCH  16  17
ENDBRANCH  15  16
ENDBRANCH   1  15
TORSDOF 7
ENDMDL
MODEL 6
REMARK VINA RESULT:      -7.4      4.879      8.955
REMARK  7 active torsions:
REMARK  status: ('A' for Active; 'I' for Inactive)
REMARK    1  A    between atoms: C_3  and  O_4 
REMARK    2  A    between atoms: C_5  and  C_6 
REMARK       I    between atoms: C_6  and  N_7 
REMARK    3  A    between atoms: N_7  and  C_8 
REMARK    4  A    between atoms: C_8  and  C_9 
REMARK    5  A    between atoms: C_9  and  C_10 
REMARK    6  A    between atoms: C_10  and  C_11 
REMARK    7  A    between atoms: C_15  and  C_16 
ROOT
HETATM    1  C   UNL     1      44.413 -16.285   6.389  1.00  0.00     0.126 C 
ENDROOT
BRANCH   1   2
HETATM    2  N   UNL     1      43.660 -17.369   7.028  1.00  0.00    -0.352 N 
HETATM    3  C   UNL     1      43.398 -18.604   6.423  1.00  0.00     0.256 C 
HETATM    4  O   UNL     1      43.203 -19.635   7.072  1.00  0.00    -0.267 OA
HETATM    5  C   UNL     1      43.620 -17.342   8.484  1.00  0.00     0.152 C 
BRANCH   3   6
HETATM    6  C   UNL     1      43.399 -18.753   4.948  1.00  0.00     0.065 A 
HETATM    7  C   UNL     1      44.086 -19.834   4.370  1.00  0.00     0.087 A 
HETATM    8  C   UNL     1      44.115 -20.008   2.981  1.00  0.00    -0.028 A 
HETATM    9  C   UNL     1      44.855 -21.161   2.365  1.00  0.00     0.051 C 
HETATM   10  C   UNL     1      43.420 -19.098   2.173  1.00  0.00     0.009 A 
HETATM   11  C   UNL     1      42.686 -18.055   2.743  1.00  0.00     0.002 A 
HETATM   12  C   UNL     1      42.659 -17.893   4.130  1.00  0.00     0.020 A 
BRANCH   7  13
HETATM   13  O   UNL     1      44.735 -20.767   5.141  1.00  0.00    -0.359 OA
HETATM   14  H   UNL     1      45.548 -20.341   5.494  1.00  0.00     0.218 HD
ENDBRANCH   7  13
ENDBRANCH   3   6
ENDBRANCH   1   2
BRANCH   1  15
HETATM   15  C   UNL     1      44.016 -14.897   6.900  1.00  0.00     0.026 C 
BRANCH  15  16
HETATM   16  C   UNL     1      45.253 -14.003   6.999  1.00  0.00     0.060 C 
BRANCH  16  17
HETATM   17  C   UNL     1      45.165 -12.894   7.990  1.00  0.00     0.030 A 
HETATM   18  N   UNL     1      46.159 -11.999   8.268  1.00  0.00    -0.282 N 
HETATM   19  H   UNL     1      47.090 -11.947   7.869  1.00  0.00     0.189 HD
HETATM   20  N   UNL     1      45.824 -11.084   9.189  1.00  0.00    -0.174 NA
HETATM   21  C   UNL     1      44.553 -11.370   9.520  1.00  0.00     0.089 A 
HETATM   22  C   UNL     1      44.111 -12.509   8.793  1.00  0.00     0.060 A 
BRANCH  21  23
HETATM   23  C   UNL     1      43.804 -10.564  10.494  1.00  0.00    -0.006 A 
HETATM   24  C   UNL     1      44.227 -10.487  11.831  1.00  0.00     0.014 A 
HETATM   25  C   UNL     1      43.527  -9.718  12.764  1.00  0.00     0.001 A 
HETATM   26  C   UNL     1      42.391  -9.012  12.374  1.00  0.00     0.000 A 
HETATM   27  C   UNL     1      41.958  -9.075  11.051  1.00  0.00     0.001 A 
HETATM   28  C   UNL     1      42.659  -9.845  10.118  1.00  0.00     0.014 A 
ENDBRANCH  21  23
ENDBRANCH  16  17
ENDBRANCH  15  16
ENDBRANCH   1  15
TORSDOF 7
ENDMDL
MODEL 7
REMARK VINA RESULT:      -7.3      2.550      4.130
REMARK  7 active torsions:
REMARK  status: ('A' for Active; 'I' for Inactive)
REMARK    1  A    between atoms: C_3  and  O_4 
REMARK    2  A    between atoms: C_5  and  C_6 
REMARK       I    between atoms: C_6  and  N_7 
REMARK    3  A    between atoms: N_7  and  C_8 
REMARK    4  A    between atoms: C_8  and  C_9 
REMARK    5  A    between atoms: C_9  and  C_10 
REMARK    6  A    between atoms: C_10  and  C_11 
REMARK    7  A    between atoms: C_15  and  C_16 
ROOT
HETATM    1  C   UNL     1      41.502 -12.164   2.972  1.00  0.00     0.126 C 
ENDROOT
BRANCH   1   2
HETATM    2  N   UNL     1      40.108 -12.007   2.545  1.00  0.00    -0.352 N 
HETATM    3  C   UNL     1      39.403 -12.962   1.803  1.00  0.00     0.256 C 
HETATM    4  O   UNL     1      38.173 -13.065   1.846  1.00  0.00    -0.267 OA
HETATM    5  C   UNL     1      39.305 -11.076   3.327  1.00  0.00     0.152 C 
BRANCH   3   6
HETATM    6  C   UNL     1      40.110 -13.955   0.959  1.00  0.00     0.065 A 
HETATM    7  C   UNL     1      40.125 -15.303   1.357  1.00  0.00     0.087 A 
HETATM    8  C   UNL     1      40.786 -16.271   0.590  1.00  0.00    -0.028 A 
HETATM    9  C   UNL     1      40.806 -17.711   1.019  1.00  0.00     0.051 C 
HETATM   10  C   UNL     1      41.411 -15.877  -0.601  1.00  0.00     0.009 A 
HETATM   11  C   UNL     1      41.350 -14.550  -1.032  1.00  0.00     0.002 A 
HETATM   12  C   UNL     1      40.684 -13.593  -0.264  1.00  0.00     0.020 A 
BRANCH   7  13
HETATM   13  O   UNL     1      39.480 -15.724   2.494  1.00  0.00    -0.359 OA
HETATM   14  H   UNL     1      38.533 -15.853   2.262  1.00  0.00     0.218 HD
ENDBRANCH   7  13
ENDBRANCH   3   6
ENDBRANCH   1   2
BRANCH   1  15
HETATM   15  C   UNL     1      41.696 -13.302   3.978  1.00  0.00     0.026 C 
BRANCH  15  16
HETATM   16  C   UNL     1      42.972 -14.078   3.649  1.00  0.00     0.060 C 
BRANCH  16  17
HETATM   17  C   UNL     1      42.869 -15.560   3.768  1.00  0.00     0.030 A 
HETATM   18  N   UNL     1      41.879 -16.236   4.424  1.00  0.00    -0.282 N 
HETATM   19  H   UNL     1      41.084 -15.857   4.928  1.00  0.00     0.189 HD
HETATM   20  N   UNL     1      42.004 -17.569   4.371  1.00  0.00    -0.174 NA
HETATM   21  C   UNL     1      43.107 -17.788   3.634  1.00  0.00     0.089 A 
HETATM   22  C   UNL     1      43.682 -16.546   3.248  1.00  0.00     0.060 A 
BRANCH  21  23
HETATM   23  C   UNL     1      43.573 -19.145   3.317  1.00  0.00    -0.006 A 
HETATM   24  C   UNL     1      44.380 -19.851   4.223  1.00  0.00     0.014 A 
HETATM   25  C   UNL     1      44.823 -21.145   3.935  1.00  0.00     0.001 A 
HETATM   26  C   UNL     1      44.463 -21.754   2.734  1.00  0.00     0.000 A 
HETATM   27  C   UNL     1      43.660 -21.069   1.824  1.00  0.00     0.001 A 
HETATM   28  C   UNL     1      43.219 -19.774   2.113  1.00  0.00     0.014 A 
ENDBRANCH  21  23
ENDBRANCH  16  17
ENDBRANCH  15  16
ENDBRANCH   1  15
TORSDOF 7
ENDMDL
MODEL 8
REMARK VINA RESULT:      -7.2      3.698      5.973
REMARK  7 active torsions:
REMARK  status: ('A' for Active; 'I' for Inactive)
REMARK    1  A    between atoms: C_3  and  O_4 
REMARK    2  A    between atoms: C_5  and  C_6 
REMARK       I    between atoms: C_6  and  N_7 
REMARK    3  A    between atoms: N_7  and  C_8 
REMARK    4  A    between atoms: C_8  and  C_9 
REMARK    5  A    between atoms: C_9  and  C_10 
REMARK    6  A    between atoms: C_10  and  C_11 
REMARK    7  A    between atoms: C_15  and  C_16 
ROOT
HETATM    1  C   UNL     1      39.659 -12.939   1.271  1.00  0.00     0.126 C 
ENDROOT
BRANCH   1   2
HETATM    2  N   UNL     1      41.006 -13.009   0.697  1.00  0.00    -0.352 N 
HETATM    3  C   UNL     1      41.278 -12.953  -0.675  1.00  0.00     0.256 C 
HETATM    4  O   UNL     1      42.353 -12.548  -1.126  1.00  0.00    -0.267 OA
HETATM    5  C   UNL     1      42.096 -12.629   1.586  1.00  0.00     0.152 C 
BRANCH   3   6
HETATM    6  C   UNL     1      40.251 -13.327  -1.678  1.00  0.00     0.065 A 
HETATM    7  C   UNL     1      40.301 -14.603  -2.265  1.00  0.00     0.087 A 
HETATM    8  C   UNL     1      39.353 -14.993  -3.219  1.00  0.00    -0.028 A 
HETATM    9  C   UNL     1      39.411 -16.355  -3.849  1.00  0.00     0.051 C 
HETATM   10  C   UNL     1      38.331 -14.097  -3.560  1.00  0.00     0.009 A 
HETATM   11  C   UNL     1      38.241 -12.850  -2.937  1.00  0.00     0.002 A 
HETATM   12  C   UNL     1      39.188 -12.472  -1.983  1.00  0.00     0.020 A 
BRANCH   7  13
HETATM   13  O   UNL     1      41.263 -15.518  -1.913  1.00  0.00    -0.359 OA
HETATM   14  H   UNL     1      41.016 -16.376  -2.325  1.00  0.00     0.218 HD
ENDBRANCH   7  13
ENDBRANCH   3   6
ENDBRANCH   1   2
BRANCH   1  15
HETATM   15  C   UNL     1      39.480 -13.848   2.491  1.00  0.00     0.026 C 
BRANCH  15  16
HETATM   16  C   UNL     1      39.087 -15.255   2.040  1.00  0.00     0.060 C 
BRANCH  16  17
HETATM   17  C   UNL     1      40.215 -16.216   1.882  1.00  0.00     0.030 A 
HETATM   18  N   UNL     1      40.853 -16.501   0.708  1.00  0.00    -0.282 N 
HETATM   19  H   UNL     1      40.667 -16.130  -0.218  1.00  0.00     0.189 HD
HETATM   20  N   UNL     1      41.849 -17.389   0.833  1.00  0.00    -0.174 NA
HETATM   21  C   UNL     1      41.888 -17.689   2.143  1.00  0.00     0.089 A 
HETATM   22  C   UNL     1      40.867 -16.977   2.829  1.00  0.00     0.060 A 
BRANCH  21  23
HETATM   23  C   UNL     1      42.880 -18.620   2.697  1.00  0.00    -0.006 A 
HETATM   24  C   UNL     1      43.313 -19.728   1.952  1.00  0.00     0.014 A 
HETATM   25  C   UNL     1      44.261 -20.617   2.467  1.00  0.00     0.001 A 
HETATM   26  C   UNL     1      44.792 -20.409   3.738  1.00  0.00     0.000 A 
HETATM   27  C   UNL     1      44.376 -19.314   4.492  1.00  0.00     0.001 A 
HETATM   28  C   UNL     1      43.427 -18.426   3.976  1.00  0.00     0.014 A 
ENDBRANCH  21  23
ENDBRANCH  16  17
ENDBRANCH  15  16
ENDBRANCH   1  15
TORSDOF 7
ENDMDL
MODEL 9
REMARK VINA RESULT:      -7.1      1.979      5.937
REMARK  7 active torsions:
REMARK  status: ('A' for Active; 'I' for Inactive)
REMARK    1  A    between atoms: C_3  and  O_4 
REMARK    2  A    between atoms: C_5  and  C_6 
REMARK       I    between atoms: C_6  and  N_7 
REMARK    3  A    between atoms: N_7  and  C_8 
REMARK    4  A    between atoms: C_8  and  C_9 
REMARK    5  A    between atoms: C_9  and  C_10 
REMARK    6  A    between atoms: C_10  and  C_11 
REMARK    7  A    between atoms: C_15  and  C_16 
ROOT
HETATM    1  C   UNL     1      43.551 -19.464   2.821  1.00  0.00     0.126 C 
ENDROOT
BRANCH   1   2
HETATM    2  N   UNL     1      44.162 -19.994   4.044  1.00  0.00    -0.352 N 
HETATM    3  C   UNL     1      43.796 -19.604   5.337  1.00  0.00     0.256 C 
HETATM    4  O   UNL     1      43.942 -20.335   6.321  1.00  0.00    -0.267 OA
HETATM    5  C   UNL     1      44.803 -21.297   3.920  1.00  0.00     0.152 C 
BRANCH   3   6
HETATM    6  C   UNL     1      43.147 -18.294   5.590  1.00  0.00     0.065 A 
HETATM    7  C   UNL     1      43.909 -17.249   6.141  1.00  0.00     0.087 A 
HETATM    8  C   UNL     1      43.333 -15.999   6.400  1.00  0.00    -0.028 A 
HETATM    9  C   UNL     1      44.146 -14.885   6.993  1.00  0.00     0.051 C 
HETATM   10  C   UNL     1      41.985 -15.797   6.072  1.00  0.00     0.009 A 
HETATM   11  C   UNL     1      41.238 -16.812   5.470  1.00  0.00     0.002 A 
HETATM   12  C   UNL     1      41.823 -18.054   5.211  1.00  0.00     0.020 A 
BRANCH   7  13
HETATM   13  O   UNL     1      45.243 -17.406   6.426  1.00  0.00    -0.359 OA
HETATM   14  H   UNL     1      45.554 -16.569   6.838  1.00  0.00     0.218 HD
ENDBRANCH   7  13
ENDBRANCH   3   6
ENDBRANCH   1   2
BRANCH   1  15
HETATM   15  C   UNL     1      44.396 -18.375   2.152  1.00  0.00     0.026 C 
BRANCH  15  16
HETATM   16  C   UNL     1      43.643 -17.793   0.955  1.00  0.00     0.060 C 
BRANCH  16  17
HETATM   17  C   UNL     1      42.879 -16.541   1.226  1.00  0.00     0.030 A 
HETATM   18  N   UNL     1      42.134 -15.854   0.310  1.00  0.00    -0.282 N 
HETATM   19  H   UNL     1      41.989 -16.066  -0.672  1.00  0.00     0.189 HD
HETATM   20  N   UNL     1      41.529 -14.767   0.807  1.00  0.00    -0.174 NA
HETATM   21  C   UNL     1      41.868 -14.743   2.108  1.00  0.00     0.089 A 
HETATM   22  C   UNL     1      42.725 -15.838   2.402  1.00  0.00     0.060 A 
BRANCH  21  23
HETATM   23  C   UNL     1      41.371 -13.704   3.021  1.00  0.00    -0.006 A 
HETATM   24  C   UNL     1      39.995 -13.455   3.138  1.00  0.00     0.014 A 
HETATM   25  C   UNL     1      39.511 -12.474   4.007  1.00  0.00     0.001 A 
HETATM   26  C   UNL     1      40.400 -11.726   4.776  1.00  0.00     0.000 A 
HETATM   27  C   UNL     1      41.770 -11.960   4.675  1.00  0.00     0.001 A 
HETATM   28  C   UNL     1      42.252 -12.941   3.804  1.00  0.00     0.014 A 
ENDBRANCH  21  23
ENDBRANCH  16  17
ENDBRANCH  15  16
ENDBRANCH   1  15
TORSDOF 7
ENDMDL
MODEL 10
REMARK VINA RESULT:      -7.0      2.986      6.417
REMARK  7 active torsions:
REMARK  status: ('A' for Active; 'I' for Inactive)
REMARK    1  A    between atoms: C_3  and  O_4 
REMARK    2  A    between atoms: C_5  and  C_6 
REMARK       I    between atoms: C_6  and  N_7 
REMARK    3  A    between atoms: N_7  and  C_8 
REMARK    4  A    between atoms: C_8  and  C_9 
REMARK    5  A    between atoms: C_9  and  C_10 
REMARK    6  A    between atoms: C_10  and  C_11 
REMARK    7  A    between atoms: C_15  and  C_16 
ROOT
HETATM    1  C   UNL     1      41.324 -17.726   4.975  1.00  0.00     0.126 C 
ENDROOT
BRANCH   1   2
HETATM    2  N   UNL     1      42.459 -17.594   5.894  1.00  0.00    -0.352 N 
HETATM    3  C   UNL     1      43.770 -17.973   5.582  1.00  0.00     0.256 C 
HETATM    4  O   UNL     1      44.757 -17.461   6.116  1.00  0.00    -0.267 OA
HETATM    5  C   UNL     1      42.309 -16.601   6.950  1.00  0.00     0.152 C 
BRANCH   3   6
HETATM    6  C   UNL     1      44.048 -18.984   4.533  1.00  0.00     0.065 A 
HETATM    7  C   UNL     1      44.278 -20.318   4.912  1.00  0.00     0.087 A 
HETATM    8  C   UNL     1      44.550 -21.301   3.953  1.00  0.00    -0.028 A 
HETATM    9  C   UNL     1      44.801 -22.725   4.360  1.00  0.00     0.051 C 
HETATM   10  C   UNL     1      44.559 -20.938   2.599  1.00  0.00     0.009 A 
HETATM   11  C   UNL     1      44.273 -19.627   2.211  1.00  0.00     0.002 A 
HETATM   12  C   UNL     1      43.999 -18.655   3.175  1.00  0.00     0.020 A 
BRANCH   7  13
HETATM   13  O   UNL     1      44.227 -20.709   6.228  1.00  0.00    -0.359 OA
HETATM   14  H   UNL     1      45.154 -20.822   6.536  1.00  0.00     0.218 HD
ENDBRANCH   7  13
ENDBRANCH   3   6
ENDBRANCH   1   2
BRANCH   1  15
HETATM   15  C   UNL     1      41.210 -16.557   3.992  1.00  0.00     0.026 C 
BRANCH  15  16
HETATM   16  C   UNL     1      40.803 -17.074   2.612  1.00  0.00     0.060 C 
BRANCH  16  17
HETATM   17  C   UNL     1      40.638 -16.031   1.560  1.00  0.00     0.030 A 
HETATM   18  N   UNL     1      39.486 -15.341   1.303  1.00  0.00    -0.282 N 
HETATM   19  H   UNL     1      38.585 -15.427   1.760  1.00  0.00     0.189 HD
HETATM   20  N   UNL     1      39.601 -14.443   0.316  1.00  0.00    -0.174 NA
HETATM   21  C   UNL     1      40.881 -14.524  -0.084  1.00  0.00     0.089 A 
HETATM   22  C   UNL     1      41.559 -15.521   0.670  1.00  0.00     0.060 A 
BRANCH  21  23
HETATM   23  C   UNL     1      41.419 -13.663  -1.147  1.00  0.00    -0.006 A 
HETATM   24  C   UNL     1      42.259 -12.583  -0.834  1.00  0.00     0.014 A 
HETATM   25  C   UNL     1      42.781 -11.762  -1.838  1.00  0.00     0.001 A 
HETATM   26  C   UNL     1      42.472 -12.012  -3.173  1.00  0.00     0.000 A 
HETATM   27  C   UNL     1      41.642 -13.081  -3.503  1.00  0.00     0.001 A 
HETATM   28  C   UNL     1      41.119 -13.901  -2.498  1.00  0.00     0.014 A 
ENDBRANCH  21  23
ENDBRANCH  16  17
ENDBRANCH  15  16
ENDBRANCH   1  15
TORSDOF 7
ENDMDL
