MODEL 1
REMARK VINA RESULT:     -10.0      0.000      0.000
REMARK  6 active torsions:
REMARK  status: ('A' for Active; 'I' for Inactive)
REMARK    1  A    between atoms: N_3  and  C_4 
REMARK    2  A    between atoms: C_12  and  C_13 
REMARK       I    between atoms: C_13  and  N_14 
REMARK    3  A    between atoms: N_14  and  N_15 
REMARK       I    between atoms: N_15  and  C_16 
REMARK    4  A    between atoms: C_16  and  C_17 
REMARK    5  A    between atoms: C_17  and  C_18 
REMARK    6  A    between atoms: C_23  and  O_24 
ROOT
HETATM    1  C   UNL     1      44.698 -13.062   8.180  1.00  0.00     0.272 C 
HETATM    2  N   UNL     1      43.979 -14.199   7.866  1.00  0.00    -0.263 N 
HETATM    3  O   UNL     1      45.870 -12.922   7.832  1.00  0.00    -0.266 OA
HETATM    4  H   UNL     1      42.983 -14.297   8.035  1.00  0.00     0.190 HD
ENDROOT
BRANCH   2   5
HETATM    5  N   UNL     1      44.564 -15.158   7.030  1.00  0.00    -0.267 N 
HETATM    6  C   UNL     1      44.051 -16.439   7.044  1.00  0.00     0.240 C 
HETATM    7  O   UNL     1      43.063 -16.744   7.715  1.00  0.00    -0.272 OA
HETATM    8  H   UNL     1      45.454 -14.912   6.600  1.00  0.00     0.190 HD
BRANCH   6   9
HETATM    9  C   UNL     1      44.736 -17.412   6.102  1.00  0.00     0.145 C 
BRANCH   9  10
HETATM   10  C   UNL     1      44.019 -17.560   4.799  1.00  0.00    -0.021 A 
HETATM   11  C   UNL     1      43.989 -18.720   3.958  1.00  0.00     0.001 A 
HETATM   12  C   UNL     1      43.195 -18.417   2.854  1.00  0.00     0.043 A 
HETATM   13  C   UNL     1      44.558 -20.008   4.039  1.00  0.00     0.051 A 
HETATM   14  C   UNL     1      42.940 -19.336   1.831  1.00  0.00     0.033 A 
HETATM   15  N   UNL     1      42.770 -17.118   3.004  1.00  0.00    -0.365 N 
HETATM   16  C   UNL     1      43.502 -20.614   1.947  1.00  0.00     0.039 A 
HETATM   17  C   UNL     1      44.294 -20.956   3.042  1.00  0.00     0.069 A 
HETATM   18  H   UNL     1      42.180 -16.627   2.346  1.00  0.00     0.165 HD
HETATM   19  C   UNL     1      43.257 -16.594   4.170  1.00  0.00     0.097 A 
BRANCH  17  20
HETATM   20  O   UNL     1      44.885 -22.175   3.246  1.00  0.00    -0.356 OA
HETATM   21  C   UNL     1      44.682 -22.766   4.523  1.00  0.00     0.210 C 
ENDBRANCH  17  20
ENDBRANCH   9  10
ENDBRANCH   6   9
ENDBRANCH   2   5
BRANCH   1  22
HETATM   22  C   UNL     1      43.959 -12.057   8.953  1.00  0.00     0.058 A 
HETATM   23  C   UNL     1      44.013 -11.898  10.338  1.00  0.00     0.029 A 
HETATM   24  N   UNL     1      43.124 -10.891  10.715  1.00  0.00    -0.319 N 
HETATM   25  C   UNL     1      44.917 -12.603  11.302  1.00  0.00     0.070 C 
HETATM   26  C   UNL     1      42.573 -10.350   9.557  1.00  0.00     0.014 A 
HETATM   27  C   UNL     1      41.531  -9.283   9.524  1.00  0.00     0.068 C 
HETATM   28  C   UNL     1      43.069 -11.057   8.480  1.00  0.00     0.044 A 
BRANCH  24  29
HETATM   29  C   UNL     1      42.809 -10.504  12.052  1.00  0.00     0.039 A 
HETATM   30  C   UNL     1      41.691 -11.056  12.691  1.00  0.00     0.030 A 
HETATM   31  C   UNL     1      41.371 -10.671  13.994  1.00  0.00     0.002 A 
HETATM   32  C   UNL     1      42.163  -9.740  14.663  1.00  0.00     0.000 A 
HETATM   33  C   UNL     1      43.278  -9.191  14.030  1.00  0.00     0.002 A 
HETATM   34  C   UNL     1      43.602  -9.570  12.726  1.00  0.00     0.030 A 
ENDBRANCH  24  29
ENDBRANCH   1  22
TORSDOF 6
ENDMDL
MODEL 2
REMARK VINA RESULT:      -9.3      3.140     10.375
REMARK  6 active torsions:
REMARK  status: ('A' for Active; 'I' for Inactive)
REMARK    1  A    between atoms: N_3  and  C_4 
REMARK    2  A    between atoms: C_12  and  C_13 
REMARK       I    between atoms: C_13  and  N_14 
REMARK    3  A    between atoms: N_14  and  N_15 
REMARK       I    between atoms: N_15  and  C_16 
REMARK    4  A    between atoms: C_16  and  C_17 
REMARK    5  A    between atoms: C_17  and  C_18 
REMARK    6  A    between atoms: C_23  and  O_24 
ROOT
HETATM    1  C   UNL     1      41.171 -12.667   5.186  1.00  0.00     0.272 C 
HETATM    2  N   UNL     1      40.566 -12.750   6.425  1.00  0.00    -0.263 N 
HETATM    3  O   UNL     1      41.682 -11.622   4.786  1.00  0.00    -0.266 OA
HETATM    4  H   UNL     1      40.239 -13.621   6.832  1.00  0.00     0.190 HD
ENDROOT
BRANCH   2   5
HETATM    5  N   UNL     1      40.645 -11.652   7.290  1.00  0.00    -0.267 N 
HETATM    6  C   UNL     1      39.630 -11.465   8.207  1.00  0.00     0.240 C 
HETATM    7  O   UNL     1      38.700 -12.265   8.328  1.00  0.00    -0.272 OA
HETATM    8  H   UNL     1      41.344 -10.944   7.072  1.00  0.00     0.190 HD
BRANCH   6   9
HETATM    9  C   UNL     1      39.799 -10.258   9.110  1.00  0.00     0.145 C 
BRANCH   9  10
HETATM   10  C   UNL     1      40.518 -10.581  10.381  1.00  0.00    -0.021 A 
HETATM   11  C   UNL     1      41.935 -10.690  10.565  1.00  0.00     0.001 A 
HETATM   12  C   UNL     1      42.160 -10.995  11.906  1.00  0.00     0.043 A 
HETATM   13  C   UNL     1      43.051 -10.548   9.715  1.00  0.00     0.051 A 
HETATM   14  C   UNL     1      43.443 -11.161  12.438  1.00  0.00     0.033 A 
HETATM   15  N   UNL     1      40.930 -11.087  12.514  1.00  0.00    -0.365 N 
HETATM   16  C   UNL     1      44.534 -10.995  11.575  1.00  0.00     0.039 A 
HETATM   17  C   UNL     1      44.347 -10.680  10.231  1.00  0.00     0.069 A 
HETATM   18  H   UNL     1      40.787 -11.303  13.491  1.00  0.00     0.165 HD
HETATM   19  C   UNL     1      39.936 -10.837  11.607  1.00  0.00     0.097 A 
BRANCH  17  20
HETATM   20  O   UNL     1      45.346 -10.497   9.311  1.00  0.00    -0.356 OA
HETATM   21  C   UNL     1      45.954 -11.676   8.801  1.00  0.00     0.210 C 
ENDBRANCH  17  20
ENDBRANCH   9  10
ENDBRANCH   6   9
ENDBRANCH   2   5
BRANCH   1  22
HETATM   22  C   UNL     1      41.148 -13.908   4.402  1.00  0.00     0.058 A 
HETATM   23  C   UNL     1      42.162 -14.866   4.373  1.00  0.00     0.029 A 
HETATM   24  N   UNL     1      41.816 -15.867   3.465  1.00  0.00    -0.319 N 
HETATM   25  C   UNL     1      43.400 -14.911   5.216  1.00  0.00     0.070 C 
HETATM   26  C   UNL     1      40.540 -15.587   2.985  1.00  0.00     0.014 A 
HETATM   27  C   UNL     1      39.822 -16.386   1.949  1.00  0.00     0.068 C 
HETATM   28  C   UNL     1      40.127 -14.395   3.545  1.00  0.00     0.044 A 
BRANCH  24  29
HETATM   29  C   UNL     1      42.637 -16.965   3.070  1.00  0.00     0.039 A 
HETATM   30  C   UNL     1      43.398 -16.878   1.896  1.00  0.00     0.030 A 
HETATM   31  C   UNL     1      44.192 -17.956   1.499  1.00  0.00     0.002 A 
HETATM   32  C   UNL     1      44.232 -19.117   2.268  1.00  0.00     0.000 A 
HETATM   33  C   UNL     1      43.477 -19.205   3.437  1.00  0.00     0.002 A 
HETATM   34  C   UNL     1      42.679 -18.133   3.839  1.00  0.00     0.030 A 
ENDBRANCH  24  29
ENDBRANCH   1  22
TORSDOF 6
ENDMDL
MODEL 3
REMARK VINA RESULT:      -9.2      1.757      3.274
REMARK  6 active torsions:
REMARK  status: ('A' for Active; 'I' for Inactive)
REMARK    1  A    between atoms: N_3  and  C_4 
REMARK    2  A    between atoms: C_12  and  C_13 
REMARK       I    between atoms: C_13  and  N_14 
REMARK    3  A    between atoms: N_14  and  N_15 
REMARK       I    between atoms: N_15  and  C_16 
REMARK    4  A    between atoms: C_16  and  C_17 
REMARK    5  A    between atoms: C_17  and  C_18 
REMARK    6  A    between atoms: C_23  and  O_24 
ROOT
HETATM    1  C   UNL     1      44.706 -13.017   8.194  1.00  0.00     0.272 C 
HETATM    2  N   UNL     1      43.970 -14.110   7.779  1.00  0.00    -0.263 N 
HETATM    3  O   UNL     1      45.902 -12.905   7.927  1.00  0.00    -0.266 OA
HETATM    4  H   UNL     1      42.962 -14.177   7.881  1.00  0.00     0.190 HD
ENDROOT
BRANCH   2   5
HETATM    5  N   UNL     1      44.573 -15.050   6.937  1.00  0.00    -0.267 N 
HETATM    6  C   UNL     1      44.057 -16.330   6.906  1.00  0.00     0.240 C 
HETATM    7  O   UNL     1      43.051 -16.647   7.544  1.00  0.00    -0.272 OA
HETATM    8  H   UNL     1      45.476 -14.798   6.536  1.00  0.00     0.190 HD
BRANCH   6   9
HETATM    9  C   UNL     1      44.764 -17.282   5.961  1.00  0.00     0.145 C 
BRANCH   9  10
HETATM   10  C   UNL     1      43.929 -17.649   4.775  1.00  0.00    -0.021 A 
HETATM   11  C   UNL     1      43.378 -16.755   3.800  1.00  0.00     0.001 A 
HETATM   12  C   UNL     1      42.682 -17.527   2.872  1.00  0.00     0.043 A 
HETATM   13  C   UNL     1      43.416 -15.358   3.613  1.00  0.00     0.051 A 
HETATM   14  C   UNL     1      42.025 -16.972   1.768  1.00  0.00     0.033 A 
HETATM   15  N   UNL     1      42.785 -18.838   3.274  1.00  0.00    -0.365 N 
HETATM   16  C   UNL     1      42.096 -15.583   1.598  1.00  0.00     0.039 A 
HETATM   17  C   UNL     1      42.792 -14.781   2.500  1.00  0.00     0.069 A 
HETATM   18  H   UNL     1      42.370 -19.621   2.788  1.00  0.00     0.165 HD
HETATM   19  C   UNL     1      43.535 -18.923   4.415  1.00  0.00     0.097 A 
BRANCH  17  20
HETATM   20  O   UNL     1      42.920 -13.419   2.419  1.00  0.00    -0.356 OA
HETATM   21  C   UNL     1      42.132 -12.773   1.427  1.00  0.00     0.210 C 
ENDBRANCH  17  20
ENDBRANCH   9  10
ENDBRANCH   6   9
ENDBRANCH   2   5
BRANCH   1  22
HETATM   22  C   UNL     1      43.954 -12.021   8.966  1.00  0.00     0.058 A 
HETATM   23  C   UNL     1      44.003 -11.863  10.351  1.00  0.00     0.029 A 
HETATM   24  N   UNL     1      43.103 -10.866  10.728  1.00  0.00    -0.319 N 
HETATM   25  C   UNL     1      44.914 -12.558  11.317  1.00  0.00     0.070 C 
HETATM   26  C   UNL     1      42.547 -10.331   9.569  1.00  0.00     0.014 A 
HETATM   27  C   UNL     1      41.493  -9.275   9.536  1.00  0.00     0.068 C 
HETATM   28  C   UNL     1      43.054 -11.030   8.492  1.00  0.00     0.044 A 
BRANCH  24  29
HETATM   29  C   UNL     1      42.781 -10.485  12.064  1.00  0.00     0.039 A 
HETATM   30  C   UNL     1      43.587  -9.558  12.737  1.00  0.00     0.030 A 
HETATM   31  C   UNL     1      43.283  -9.192  14.050  1.00  0.00     0.002 A 
HETATM   32  C   UNL     1      42.178  -9.745  14.693  1.00  0.00     0.000 A 
HETATM   33  C   UNL     1      41.372 -10.666  14.025  1.00  0.00     0.002 A 
HETATM   34  C   UNL     1      41.671 -11.039  12.713  1.00  0.00     0.030 A 
ENDBRANCH  24  29
ENDBRANCH   1  22
TORSDOF 6
ENDMDL
MODEL 4
REMARK VINA RESULT:      -9.0      2.701     10.356
REMARK  6 active torsions:
REMARK  status: ('A' for Active; 'I' for Inactive)
REMARK    1  A    between atoms: N_3  and  C_4 
REMARK    2  A    between atoms: C_12  and  C_13 
REMARK       I    between atoms: C_13  and  N_14 
REMARK    3  A    between atoms: N_14  and  N_15 
REMARK       I    between atoms: N_15  and  C_16 
REMARK    4  A    between atoms: C_16  and  C_17 
REMARK    5  A    between atoms: C_17  and  C_18 
REMARK    6  A    between atoms: C_23  and  O_24 
ROOT
HETATM    1  C   UNL     1      44.698 -13.688   7.183  1.00  0.00     0.272 C 
HETATM    2  N   UNL     1      43.710 -12.993   7.852  1.00  0.00    -0.263 N 
HETATM    3  O   UNL     1      45.865 -13.297   7.167  1.00  0.00    -0.266 OA
HETATM    4  H   UNL     1      42.766 -13.346   7.982  1.00  0.00     0.190 HD
ENDROOT
BRANCH   2   5
HETATM    5  N   UNL     1      44.070 -11.885   8.627  1.00  0.00    -0.267 N 
HETATM    6  C   UNL     1      44.307 -12.075   9.974  1.00  0.00     0.240 C 
HETATM    7  O   UNL     1      44.275 -13.192  10.494  1.00  0.00    -0.272 OA
HETATM    8  H   UNL     1      43.951 -10.967   8.201  1.00  0.00     0.190 HD
BRANCH   6   9
HETATM    9  C   UNL     1      44.700 -10.824  10.737  1.00  0.00     0.145 C 
BRANCH   9  10
HETATM   10  C   UNL     1      43.610 -10.323  11.630  1.00  0.00    -0.021 A 
HETATM   11  C   UNL     1      42.207 -10.295  11.344  1.00  0.00     0.001 A 
HETATM   12  C   UNL     1      41.564  -9.759  12.458  1.00  0.00     0.043 A 
HETATM   13  C   UNL     1      41.419 -10.686  10.242  1.00  0.00     0.051 A 
HETATM   14  C   UNL     1      40.176  -9.597  12.525  1.00  0.00     0.033 A 
HETATM   15  N   UNL     1      42.536  -9.454  13.381  1.00  0.00    -0.365 N 
HETATM   16  C   UNL     1      39.417 -10.013  11.423  1.00  0.00     0.039 A 
HETATM   17  C   UNL     1      40.025 -10.563  10.296  1.00  0.00     0.069 A 
HETATM   18  H   UNL     1      42.359  -9.044  14.288  1.00  0.00     0.165 HD
HETATM   19  C   UNL     1      43.770  -9.792  12.895  1.00  0.00     0.097 A 
BRANCH  17  20
HETATM   20  O   UNL     1      39.372 -10.998   9.173  1.00  0.00    -0.356 OA
HETATM   21  C   UNL     1      40.085 -10.887   7.948  1.00  0.00     0.210 C 
ENDBRANCH  17  20
ENDBRANCH   9  10
ENDBRANCH   6   9
ENDBRANCH   2   5
BRANCH   1  22
HETATM   22  C   UNL     1      44.245 -14.909   6.504  1.00  0.00     0.058 A 
HETATM   23  C   UNL     1      43.757 -14.976   5.199  1.00  0.00     0.029 A 
HETATM   24  N   UNL     1      43.361 -16.286   4.929  1.00  0.00    -0.319 N 
HETATM   25  C   UNL     1      43.719 -13.877   4.181  1.00  0.00     0.070 C 
HETATM   26  C   UNL     1      43.682 -17.067   6.035  1.00  0.00     0.014 A 
HETATM   27  C   UNL     1      43.373 -18.520   6.174  1.00  0.00     0.068 C 
HETATM   28  C   UNL     1      44.215 -16.238   7.002  1.00  0.00     0.044 A 
BRANCH  24  29
HETATM   29  C   UNL     1      42.711 -16.741   3.743  1.00  0.00     0.039 A 
HETATM   30  C   UNL     1      43.462 -17.339   2.723  1.00  0.00     0.030 A 
HETATM   31  C   UNL     1      42.831 -17.773   1.555  1.00  0.00     0.002 A 
HETATM   32  C   UNL     1      41.456 -17.615   1.403  1.00  0.00     0.000 A 
HETATM   33  C   UNL     1      40.705 -17.022   2.417  1.00  0.00     0.002 A 
HETATM   34  C   UNL     1      41.330 -16.583   3.586  1.00  0.00     0.030 A 
ENDBRANCH  24  29
ENDBRANCH   1  22
TORSDOF 6
ENDMDL
MODEL 5
REMARK VINA RESULT:      -9.0      1.286      2.057
REMARK  6 active torsions:
REMARK  status: ('A' for Active; 'I' for Inactive)
REMARK    1  A    between atoms: N_3  and  C_4 
REMARK    2  A    between atoms: C_12  and  C_13 
REMARK       I    between atoms: C_13  and  N_14 
REMARK    3  A    between atoms: N_14  and  N_15 
REMARK       I    between atoms: N_15  and  C_16 
REMARK    4  A    between atoms: C_16  and  C_17 
REMARK    5  A    between atoms: C_17  and  C_18 
REMARK    6  A    between atoms: C_23  and  O_24 
ROOT
HETATM    1  C   UNL     1      44.196 -12.909   8.192  1.00  0.00     0.272 C 
HETATM    2  N   UNL     1      43.343 -13.519   7.293  1.00  0.00    -0.263 N 
HETATM    3  O   UNL     1      45.379 -13.238   8.285  1.00  0.00    -0.266 OA
HETATM    4  H   UNL     1      42.398 -13.195   7.110  1.00  0.00     0.190 HD
ENDROOT
BRANCH   2   5
HETATM    5  N   UNL     1      43.868 -14.447   6.387  1.00  0.00    -0.267 N 
HETATM    6  C   UNL     1      43.030 -15.428   5.894  1.00  0.00     0.240 C 
HETATM    7  O   UNL     1      41.831 -15.469   6.175  1.00  0.00    -0.272 OA
HETATM    8  H   UNL     1      44.882 -14.470   6.285  1.00  0.00     0.190 HD
BRANCH   6   9
HETATM    9  C   UNL     1      43.677 -16.386   4.912  1.00  0.00     0.145 C 
BRANCH   9  10
HETATM   10  C   UNL     1      43.956 -17.728   5.509  1.00  0.00    -0.021 A 
HETATM   11  C   UNL     1      44.169 -18.958   4.805  1.00  0.00     0.001 A 
HETATM   12  C   UNL     1      44.403 -19.949   5.756  1.00  0.00     0.043 A 
HETATM   13  C   UNL     1      44.193 -19.319   3.442  1.00  0.00     0.051 A 
HETATM   14  C   UNL     1      44.663 -21.280   5.412  1.00  0.00     0.033 A 
HETATM   15  N   UNL     1      44.319 -19.354   6.993  1.00  0.00    -0.365 N 
HETATM   16  C   UNL     1      44.701 -21.607   4.050  1.00  0.00     0.039 A 
HETATM   17  C   UNL     1      44.481 -20.639   3.071  1.00  0.00     0.069 A 
HETATM   18  H   UNL     1      44.442 -19.838   7.872  1.00  0.00     0.165 HD
HETATM   19  C   UNL     1      44.054 -18.019   6.856  1.00  0.00     0.097 A 
BRANCH  17  20
HETATM   20  O   UNL     1      44.497 -20.858   1.719  1.00  0.00    -0.356 OA
HETATM   21  C   UNL     1      43.836 -22.032   1.265  1.00  0.00     0.210 C 
ENDBRANCH  17  20
ENDBRANCH   9  10
ENDBRANCH   6   9
ENDBRANCH   2   5
BRANCH   1  22
HETATM   22  C   UNL     1      43.583 -11.858   9.012  1.00  0.00     0.058 A 
HETATM   23  C   UNL     1      43.695 -11.742  10.398  1.00  0.00     0.029 A 
HETATM   24  N   UNL     1      42.921 -10.664  10.828  1.00  0.00    -0.319 N 
HETATM   25  C   UNL     1      44.556 -12.557  11.315  1.00  0.00     0.070 C 
HETATM   26  C   UNL     1      42.390 -10.042   9.703  1.00  0.00     0.014 A 
HETATM   27  C   UNL     1      41.456  -8.878   9.730  1.00  0.00     0.068 C 
HETATM   28  C   UNL     1      42.781 -10.764   8.593  1.00  0.00     0.044 A 
BRANCH  24  29
HETATM   29  C   UNL     1      42.687 -10.285  12.184  1.00  0.00     0.039 A 
HETATM   30  C   UNL     1      43.562  -9.393  12.818  1.00  0.00     0.030 A 
HETATM   31  C   UNL     1      43.344  -9.030  14.149  1.00  0.00     0.002 A 
HETATM   32  C   UNL     1      42.257  -9.550  14.847  1.00  0.00     0.000 A 
HETATM   33  C   UNL     1      41.383 -10.436  14.218  1.00  0.00     0.002 A 
HETATM   34  C   UNL     1      41.597 -10.806  12.888  1.00  0.00     0.030 A 
ENDBRANCH  24  29
ENDBRANCH   1  22
TORSDOF 6
ENDMDL
MODEL 6
REMARK VINA RESULT:      -8.9      2.591     10.125
REMARK  6 active torsions:
REMARK  status: ('A' for Active; 'I' for Inactive)
REMARK    1  A    between atoms: N_3  and  C_4 
REMARK    2  A    between atoms: C_12  and  C_13 
REMARK       I    between atoms: C_13  and  N_14 
REMARK    3  A    between atoms: N_14  and  N_15 
REMARK       I    between atoms: N_15  and  C_16 
REMARK    4  A    between atoms: C_16  and  C_17 
REMARK    5  A    between atoms: C_17  and  C_18 
REMARK    6  A    between atoms: C_23  and  O_24 
ROOT
HETATM    1  C   UNL     1      42.713 -14.054   5.246  1.00  0.00     0.272 C 
HETATM    2  N   UNL     1      41.609 -13.722   6.008  1.00  0.00    -0.263 N 
HETATM    3  O   UNL     1      43.609 -13.241   5.020  1.00  0.00    -0.266 OA
HETATM    4  H   UNL     1      40.913 -14.397   6.309  1.00  0.00     0.190 HD
ENDROOT
BRANCH   2   5
HETATM    5  N   UNL     1      41.571 -12.470   6.632  1.00  0.00    -0.267 N 
HETATM    6  C   UNL     1      40.339 -11.923   6.931  1.00  0.00     0.240 C 
HETATM    7  O   UNL     1      39.286 -12.529   6.725  1.00  0.00    -0.272 OA
HETATM    8  H   UNL     1      42.443 -11.942   6.660  1.00  0.00     0.190 HD
BRANCH   6   9
HETATM    9  C   UNL     1      40.389 -10.570   7.615  1.00  0.00     0.145 C 
BRANCH   9  10
HETATM   10  C   UNL     1      40.712 -10.668   9.071  1.00  0.00    -0.021 A 
HETATM   11  C   UNL     1      42.015 -10.679   9.666  1.00  0.00     0.001 A 
HETATM   12  C   UNL     1      41.844 -10.773  11.046  1.00  0.00     0.043 A 
HETATM   13  C   UNL     1      43.329 -10.608   9.158  1.00  0.00     0.051 A 
HETATM   14  C   UNL     1      42.920 -10.796  11.941  1.00  0.00     0.033 A 
HETATM   15  N   UNL     1      40.492 -10.835  11.285  1.00  0.00    -0.365 N 
HETATM   16  C   UNL     1      44.213 -10.705  11.409  1.00  0.00     0.039 A 
HETATM   17  C   UNL     1      44.421 -10.600  10.035  1.00  0.00     0.069 A 
HETATM   18  H   UNL     1      40.074 -10.912  12.202  1.00  0.00     0.165 HD
HETATM   19  C   UNL     1      39.801 -10.770  10.106  1.00  0.00     0.097 A 
BRANCH  17  20
HETATM   20  O   UNL     1      45.642 -10.505   9.422  1.00  0.00    -0.356 OA
HETATM   21  C   UNL     1      46.133 -11.692   8.811  1.00  0.00     0.210 C 
ENDBRANCH  17  20
ENDBRANCH   9  10
ENDBRANCH   6   9
ENDBRANCH   2   5
BRANCH   1  22
HETATM   22  C   UNL     1      42.724 -15.431   4.739  1.00  0.00     0.058 A 
HETATM   23  C   UNL     1      43.294 -16.528   5.386  1.00  0.00     0.029 A 
HETATM   24  N   UNL     1      43.170 -17.652   4.569  1.00  0.00    -0.319 N 
HETATM   25  C   UNL     1      43.879 -16.572   6.764  1.00  0.00     0.070 C 
HETATM   26  C   UNL     1      42.441 -17.284   3.442  1.00  0.00     0.014 A 
HETATM   27  C   UNL     1      42.134 -18.184   2.292  1.00  0.00     0.068 C 
HETATM   28  C   UNL     1      42.170 -15.934   3.533  1.00  0.00     0.044 A 
BRANCH  24  29
HETATM   29  C   UNL     1      43.721 -18.943   4.825  1.00  0.00     0.039 A 
HETATM   30  C   UNL     1      44.543 -19.552   3.867  1.00  0.00     0.030 A 
HETATM   31  C   UNL     1      45.073 -20.821   4.108  1.00  0.00     0.002 A 
HETATM   32  C   UNL     1      44.790 -21.482   5.300  1.00  0.00     0.000 A 
HETATM   33  C   UNL     1      43.975 -20.878   6.257  1.00  0.00     0.002 A 
HETATM   34  C   UNL     1      43.439 -19.611   6.022  1.00  0.00     0.030 A 
ENDBRANCH  24  29
ENDBRANCH   1  22
TORSDOF 6
ENDMDL
MODEL 7
REMARK VINA RESULT:      -8.8      5.854      9.738
REMARK  6 active torsions:
REMARK  status: ('A' for Active; 'I' for Inactive)
REMARK    1  A    between atoms: N_3  and  C_4 
REMARK    2  A    between atoms: C_12  and  C_13 
REMARK       I    between atoms: C_13  and  N_14 
REMARK    3  A    between atoms: N_14  and  N_15 
REMARK       I    between atoms: N_15  and  C_16 
REMARK    4  A    between atoms: C_16  and  C_17 
REMARK    5  A    between atoms: C_17  and  C_18 
REMARK    6  A    between atoms: C_23  and  O_24 
ROOT
HETATM    1  C   UNL     1      41.300 -14.959  -0.121  1.00  0.00     0.272 C 
HETATM    2  N   UNL     1      42.221 -15.989  -0.120  1.00  0.00    -0.263 N 
HETATM    3  O   UNL     1      40.232 -15.048   0.485  1.00  0.00    -0.266 OA
HETATM    4  H   UNL     1      43.155 -15.905  -0.510  1.00  0.00     0.190 HD
ENDROOT
BRANCH   2   5
HETATM    5  N   UNL     1      41.982 -17.108   0.686  1.00  0.00    -0.267 N 
HETATM    6  C   UNL     1      43.065 -17.759   1.241  1.00  0.00     0.240 C 
HETATM    7  O   UNL     1      44.219 -17.348   1.103  1.00  0.00    -0.272 OA
HETATM    8  H   UNL     1      41.041 -17.498   0.665  1.00  0.00     0.190 HD
BRANCH   6   9
HETATM    9  C   UNL     1      42.717 -18.955   2.107  1.00  0.00     0.145 C 
BRANCH   9  10
HETATM   10  C   UNL     1      43.632 -19.107   3.280  1.00  0.00    -0.021 A 
HETATM   11  C   UNL     1      43.791 -18.195   4.373  1.00  0.00     0.001 A 
HETATM   12  C   UNL     1      44.737 -18.740   5.239  1.00  0.00     0.043 A 
HETATM   13  C   UNL     1      43.211 -16.955   4.712  1.00  0.00     0.051 A 
HETATM   14  C   UNL     1      45.127 -18.110   6.426  1.00  0.00     0.033 A 
HETATM   15  N   UNL     1      45.153 -19.930   4.690  1.00  0.00    -0.365 N 
HETATM   16  C   UNL     1      44.519 -16.889   6.747  1.00  0.00     0.039 A 
HETATM   17  C   UNL     1      43.562 -16.319   5.909  1.00  0.00     0.069 A 
HETATM   18  H   UNL     1      45.843 -20.542   5.103  1.00  0.00     0.165 HD
HETATM   19  C   UNL     1      44.493 -20.162   3.514  1.00  0.00     0.097 A 
BRANCH  17  20
HETATM   20  O   UNL     1      42.913 -15.134   6.135  1.00  0.00    -0.356 OA
HETATM   21  C   UNL     1      43.734 -13.979   6.250  1.00  0.00     0.210 C 
ENDBRANCH  17  20
ENDBRANCH   9  10
ENDBRANCH   6   9
ENDBRANCH   2   5
BRANCH   1  22
HETATM   22  C   UNL     1      41.696 -13.775  -0.892  1.00  0.00     0.058 A 
HETATM   23  C   UNL     1      41.995 -12.522  -0.356  1.00  0.00     0.029 A 
HETATM   24  N   UNL     1      42.259 -11.633  -1.399  1.00  0.00    -0.319 N 
HETATM   25  C   UNL     1      42.112 -12.153   1.091  1.00  0.00     0.070 C 
HETATM   26  C   UNL     1      42.215 -12.347  -2.592  1.00  0.00     0.014 A 
HETATM   27  C   UNL     1      42.388 -11.754  -3.950  1.00  0.00     0.068 C 
HETATM   28  C   UNL     1      41.867 -13.650  -2.296  1.00  0.00     0.044 A 
BRANCH  24  29
HETATM   29  C   UNL     1      42.499 -10.233  -1.269  1.00  0.00     0.039 A 
HETATM   30  C   UNL     1      43.814  -9.756  -1.187  1.00  0.00     0.030 A 
HETATM   31  C   UNL     1      44.052  -8.387  -1.046  1.00  0.00     0.002 A 
HETATM   32  C   UNL     1      42.985  -7.493  -0.991  1.00  0.00     0.000 A 
HETATM   33  C   UNL     1      41.676  -7.964  -1.076  1.00  0.00     0.002 A 
HETATM   34  C   UNL     1      41.430  -9.332  -1.213  1.00  0.00     0.030 A 
ENDBRANCH  24  29
ENDBRANCH   1  22
TORSDOF 6
ENDMDL
MODEL 8
REMARK VINA RESULT:      -8.6      3.414      4.531
REMARK  6 active torsions:
REMARK  status: ('A' for Active; 'I' for Inactive)
REMARK    1  A    between atoms: N_3  and  C_4 
REMARK    2  A    between atoms: C_12  and  C_13 
REMARK       I    between atoms: C_13  and  N_14 
REMARK    3  A    between atoms: N_14  and  N_15 
REMARK       I    between atoms: N_15  and  C_16 
REMARK    4  A    between atoms: C_16  and  C_17 
REMARK    5  A    between atoms: C_17  and  C_18 
REMARK    6  A    between atoms: C_23  and  O_24 
ROOT
HETATM    1  C   UNL     1      39.303 -11.213   7.878  1.00  0.00     0.272 C 
HETATM    2  N   UNL     1      39.466 -12.584   7.903  1.00  0.00    -0.263 N 
HETATM    3  O   UNL     1      39.079 -10.608   6.830  1.00  0.00    -0.266 OA
HETATM    4  H   UNL     1      39.536 -13.124   8.760  1.00  0.00     0.190 HD
ENDROOT
BRANCH   2   5
HETATM    5  N   UNL     1      39.251 -13.311   6.726  1.00  0.00    -0.267 N 
HETATM    6  C   UNL     1      40.305 -13.463   5.848  1.00  0.00     0.240 C 
HETATM    7  O   UNL     1      41.434 -13.037   6.098  1.00  0.00    -0.272 OA
HETATM    8  H   UNL     1      38.284 -13.526   6.488  1.00  0.00     0.190 HD
BRANCH   6   9
HETATM    9  C   UNL     1      39.989 -14.272   4.604  1.00  0.00     0.145 C 
BRANCH   9  10
HETATM   10  C   UNL     1      40.757 -15.553   4.535  1.00  0.00    -0.021 A 
HETATM   11  C   UNL     1      41.204 -16.227   3.352  1.00  0.00     0.001 A 
HETATM   12  C   UNL     1      41.886 -17.373   3.756  1.00  0.00     0.043 A 
HETATM   13  C   UNL     1      41.100 -15.963   1.971  1.00  0.00     0.051 A 
HETATM   14  C   UNL     1      42.470 -18.264   2.849  1.00  0.00     0.033 A 
HETATM   15  N   UNL     1      41.843 -17.409   5.130  1.00  0.00    -0.365 N 
HETATM   16  C   UNL     1      42.367 -17.967   1.484  1.00  0.00     0.039 A 
HETATM   17  C   UNL     1      41.701 -16.824   1.044  1.00  0.00     0.069 A 
HETATM   18  H   UNL     1      42.255 -18.136   5.698  1.00  0.00     0.165 HD
HETATM   19  C   UNL     1      41.169 -16.318   5.609  1.00  0.00     0.097 A 
BRANCH  17  20
HETATM   20  O   UNL     1      41.549 -16.448  -0.264  1.00  0.00    -0.356 OA
HETATM   21  C   UNL     1      41.336 -15.061  -0.498  1.00  0.00     0.210 C 
ENDBRANCH  17  20
ENDBRANCH   9  10
ENDBRANCH   6   9
ENDBRANCH   2   5
BRANCH   1  22
HETATM   22  C   UNL     1      39.421 -10.552   9.183  1.00  0.00     0.058 A 
HETATM   23  C   UNL     1      40.598 -10.417   9.920  1.00  0.00     0.029 A 
HETATM   24  N   UNL     1      40.305  -9.798  11.135  1.00  0.00    -0.319 N 
HETATM   25  C   UNL     1      41.988 -10.780   9.494  1.00  0.00     0.070 C 
HETATM   26  C   UNL     1      38.955  -9.459  11.129  1.00  0.00     0.014 A 
HETATM   27  C   UNL     1      38.227  -8.828  12.269  1.00  0.00     0.068 C 
HETATM   28  C   UNL     1      38.407  -9.919   9.949  1.00  0.00     0.044 A 
BRANCH  24  29
HETATM   29  C   UNL     1      41.218  -9.579  12.209  1.00  0.00     0.039 A 
HETATM   30  C   UNL     1      41.928  -8.373  12.286  1.00  0.00     0.030 A 
HETATM   31  C   UNL     1      42.833  -8.161  13.328  1.00  0.00     0.002 A 
HETATM   32  C   UNL     1      43.030  -9.145  14.294  1.00  0.00     0.000 A 
HETATM   33  C   UNL     1      42.324 -10.345  14.222  1.00  0.00     0.002 A 
HETATM   34  C   UNL     1      41.420 -10.565  13.181  1.00  0.00     0.030 A 
ENDBRANCH  24  29
ENDBRANCH   1  22
TORSDOF 6
ENDMDL
MODEL 9
REMARK VINA RESULT:      -8.6      5.218      9.708
REMARK  6 active torsions:
REMARK  status: ('A' for Active; 'I' for Inactive)
REMARK    1  A    between atoms: N_3  and  C_4 
REMARK    2  A    between atoms: C_12  and  C_13 
REMARK       I    between atoms: C_13  and  N_14 
REMARK    3  A    between atoms: N_14  and  N_15 
REMARK       I    between atoms: N_15  and  C_16 
REMARK    4  A    between atoms: C_16  and  C_17 
REMARK    5  A    between atoms: C_17  and  C_18 
REMARK    6  A    between atoms: C_23  and  O_24 
ROOT
HETATM    1  C   UNL     1      42.322 -13.296   2.330  1.00  0.00     0.272 C 
HETATM    2  N   UNL     1      43.060 -14.434   2.591  1.00  0.00    -0.263 N 
HETATM    3  O   UNL     1      42.115 -12.448   3.197  1.00  0.00    -0.266 OA
HETATM    4  H   UNL     1      43.346 -15.093   1.873  1.00  0.00     0.190 HD
ENDROOT
BRANCH   2   5
HETATM    5  N   UNL     1      43.685 -14.563   3.836  1.00  0.00    -0.267 N 
HETATM    6  C   UNL     1      43.053 -15.303   4.815  1.00  0.00     0.240 C 
HETATM    7  O   UNL     1      41.996 -15.901   4.604  1.00  0.00    -0.272 OA
HETATM    8  H   UNL     1      44.478 -13.949   4.019  1.00  0.00     0.190 HD
BRANCH   6   9
HETATM    9  C   UNL     1      43.803 -15.399   6.130  1.00  0.00     0.145 C 
BRANCH   9  10
HETATM   10  C   UNL     1      43.696 -16.750   6.761  1.00  0.00    -0.021 A 
HETATM   11  C   UNL     1      43.945 -18.015   6.136  1.00  0.00     0.001 A 
HETATM   12  C   UNL     1      43.735 -19.004   7.094  1.00  0.00     0.043 A 
HETATM   13  C   UNL     1      44.339 -18.412   4.841  1.00  0.00     0.051 A 
HETATM   14  C   UNL     1      43.903 -20.366   6.824  1.00  0.00     0.033 A 
HETATM   15  N   UNL     1      43.356 -18.371   8.255  1.00  0.00    -0.365 N 
HETATM   16  C   UNL     1      44.314 -20.730   5.535  1.00  0.00     0.039 A 
HETATM   17  C   UNL     1      44.542 -19.767   4.554  1.00  0.00     0.069 A 
HETATM   18  H   UNL     1      43.134 -18.844   9.120  1.00  0.00     0.165 HD
HETATM   19  C   UNL     1      43.332 -17.016   8.067  1.00  0.00     0.097 A 
BRANCH  17  20
HETATM   20  O   UNL     1      44.945 -20.022   3.269  1.00  0.00    -0.356 OA
HETATM   21  C   UNL     1      43.915 -20.111   2.293  1.00  0.00     0.210 C 
ENDBRANCH  17  20
ENDBRANCH   9  10
ENDBRANCH   6   9
ENDBRANCH   2   5
BRANCH   1  22
HETATM   22  C   UNL     1      41.813 -13.190   0.957  1.00  0.00     0.058 A 
HETATM   23  C   UNL     1      40.870 -14.037   0.375  1.00  0.00     0.029 A 
HETATM   24  N   UNL     1      40.690 -13.668  -0.959  1.00  0.00    -0.319 N 
HETATM   25  C   UNL     1      40.084 -15.124   1.043  1.00  0.00     0.070 C 
HETATM   26  C   UNL     1      41.454 -12.530  -1.195  1.00  0.00     0.014 A 
HETATM   27  C   UNL     1      41.585 -11.848  -2.516  1.00  0.00     0.068 C 
HETATM   28  C   UNL     1      42.146 -12.234  -0.038  1.00  0.00     0.044 A 
BRANCH  24  29
HETATM   29  C   UNL     1      39.890 -14.355  -1.920  1.00  0.00     0.039 A 
HETATM   30  C   UNL     1      40.456 -15.379  -2.692  1.00  0.00     0.030 A 
HETATM   31  C   UNL     1      39.681 -16.045  -3.644  1.00  0.00     0.002 A 
HETATM   32  C   UNL     1      38.345 -15.695  -3.827  1.00  0.00     0.000 A 
HETATM   33  C   UNL     1      37.779 -14.678  -3.060  1.00  0.00     0.002 A 
HETATM   34  C   UNL     1      38.549 -14.006  -2.108  1.00  0.00     0.030 A 
ENDBRANCH  24  29
ENDBRANCH   1  22
TORSDOF 6
ENDMDL
MODEL 10
REMARK VINA RESULT:      -8.6      2.459     10.455
REMARK  6 active torsions:
REMARK  status: ('A' for Active; 'I' for Inactive)
REMARK    1  A    between atoms: N_3  and  C_4 
REMARK    2  A    between atoms: C_12  and  C_13 
REMARK       I    between atoms: C_13  and  N_14 
REMARK    3  A    between atoms: N_14  and  N_15 
REMARK       I    between atoms: N_15  and  C_16 
REMARK    4  A    between atoms: C_16  and  C_17 
REMARK    5  A    between atoms: C_17  and  C_18 
REMARK    6  A    between atoms: C_23  and  O_24 
ROOT
HETATM    1  C   UNL     1      43.386 -14.657   6.234  1.00  0.00     0.272 C 
HETATM    2  N   UNL     1      42.082 -14.209   6.155  1.00  0.00    -0.263 N 
HETATM    3  O   UNL     1      44.316 -13.893   6.489  1.00  0.00    -0.266 OA
HETATM    4  H   UNL     1      41.282 -14.827   6.062  1.00  0.00     0.190 HD
ENDROOT
BRANCH   2   5
HETATM    5  N   UNL     1      41.802 -12.879   6.491  1.00  0.00    -0.267 N 
HETATM    6  C   UNL     1      40.505 -12.428   6.357  1.00  0.00     0.240 C 
HETATM    7  O   UNL     1      39.583 -13.172   6.017  1.00  0.00    -0.272 OA
HETATM    8  H   UNL     1      42.601 -12.262   6.631  1.00  0.00     0.190 HD
BRANCH   6   9
HETATM    9  C   UNL     1      40.288 -10.979   6.751  1.00  0.00     0.145 C 
BRANCH   9  10
HETATM   10  C   UNL     1      40.201 -10.787   8.232  1.00  0.00    -0.021 A 
HETATM   11  C   UNL     1      41.293 -10.654   9.149  1.00  0.00     0.001 A 
HETATM   12  C   UNL     1      40.751 -10.485  10.422  1.00  0.00     0.043 A 
HETATM   13  C   UNL     1      42.697 -10.653   9.015  1.00  0.00     0.051 A 
HETATM   14  C   UNL     1      41.542 -10.312  11.563  1.00  0.00     0.033 A 
HETATM   15  N   UNL     1      39.383 -10.531  10.291  1.00  0.00    -0.365 N 
HETATM   16  C   UNL     1      42.933 -10.295  11.397  1.00  0.00     0.039 A 
HETATM   17  C   UNL     1      43.509 -10.451  10.137  1.00  0.00     0.069 A 
HETATM   18  H   UNL     1      38.730 -10.440  11.057  1.00  0.00     0.165 HD
HETATM   19  C   UNL     1      39.041 -10.709   8.979  1.00  0.00     0.097 A 
BRANCH  17  20
HETATM   20  O   UNL     1      44.853 -10.448   9.873  1.00  0.00    -0.356 OA
HETATM   21  C   UNL     1      45.371 -11.609   9.234  1.00  0.00     0.210 C 
ENDBRANCH  17  20
ENDBRANCH   9  10
ENDBRANCH   6   9
ENDBRANCH   2   5
BRANCH   1  22
HETATM   22  C   UNL     1      43.563 -16.093   5.990  1.00  0.00     0.058 A 
HETATM   23  C   UNL     1      43.660 -16.696   4.735  1.00  0.00     0.029 A 
HETATM   24  N   UNL     1      43.750 -18.079   4.901  1.00  0.00    -0.319 N 
HETATM   25  C   UNL     1      43.745 -16.019   3.401  1.00  0.00     0.070 C 
HETATM   26  C   UNL     1      43.800 -18.344   6.266  1.00  0.00     0.014 A 
HETATM   27  C   UNL     1      43.842 -19.707   6.871  1.00  0.00     0.068 C 
HETATM   28  C   UNL     1      43.680 -17.144   6.938  1.00  0.00     0.044 A 
BRANCH  24  29
HETATM   29  C   UNL     1      43.755 -19.052   3.858  1.00  0.00     0.039 A 
HETATM   30  C   UNL     1      44.688 -20.098   3.886  1.00  0.00     0.030 A 
HETATM   31  C   UNL     1      44.705 -21.045   2.860  1.00  0.00     0.002 A 
HETATM   32  C   UNL     1      43.795 -20.954   1.809  1.00  0.00     0.000 A 
HETATM   33  C   UNL     1      42.865 -19.917   1.779  1.00  0.00     0.002 A 
HETATM   34  C   UNL     1      42.843 -18.964   2.800  1.00  0.00     0.030 A 
ENDBRANCH  24  29
ENDBRANCH   1  22
TORSDOF 6
ENDMDL
