MODEL 1
REMARK VINA RESULT:      -8.2      0.000      0.000
REMARK  7 active torsions:
REMARK  status: ('A' for Active; 'I' for Inactive)
REMARK    1  A    between atoms: C_2  and  O_3 
REMARK    2  A    between atoms: O_3  and  C_4 
REMARK    3  A    between atoms: C_4  and  C_5 
REMARK    4  A    between atoms: C_6  and  C_7 
REMARK    5  A    between atoms: C_18  and  S_19 
REMARK    6  A    between atoms: S_19  and  C_20 
REMARK    7  A    between atoms: C_20  and  C_21 
ROOT
HETATM    1  C   UNL     1      41.156 -14.077   4.778  1.00  0.00     0.070 A 
HETATM    2  C   UNL     1      41.152 -15.573   4.498  1.00  0.00     0.204 A 
HETATM    3  N   UNL     1      42.054 -16.295   5.404  1.00  0.00    -0.082 N 
HETATM    4  C   UNL     1      42.781 -15.700   6.398  1.00  0.00     0.726 A 
HETATM    5  N   UNL     1      42.689 -14.368   6.572  1.00  0.00    -0.192 N 
HETATM    6  N   UNL     1      42.214 -17.631   5.411  1.00  0.00    -0.128 NA
HETATM    7  C   UNL     1      43.127 -17.767   6.380  1.00  0.00     0.226 A 
HETATM    8  N   UNL     1      43.476 -16.609   7.031  1.00  0.00    -0.035 NA
HETATM    9  C   UNL     1      41.890 -13.543   5.785  1.00  0.00     0.037 A 
HETATM   10  C   UNL     1      41.882 -12.084   6.169  1.00  0.00     0.070 C 
HETATM   11  H   UNL     1      43.253 -13.928   7.295  1.00  0.00     0.184 HD
ENDROOT
BRANCH   7  12
HETATM   12  S   UNL     1      43.795 -19.330   6.753  1.00  0.00    -0.083 SA
BRANCH  12  13
HETATM   13  C   UNL     1      45.116 -19.420   5.515  1.00  0.00     0.123 C 
BRANCH  13  14
HETATM   14  C   UNL     1      44.629 -20.068   4.239  1.00  0.00    -0.027 A 
HETATM   15  C   UNL     1      44.694 -21.453   4.014  1.00  0.00     0.041 A 
HETATM   16 CL   UNL     1      45.319 -22.548   5.196  1.00  0.00    -0.084 Cl
HETATM   17  C   UNL     1      44.250 -21.999   2.805  1.00  0.00     0.024 A 
HETATM   18  C   UNL     1      43.746 -21.173   1.802  1.00  0.00     0.002 A 
HETATM   19  C   UNL     1      43.685 -19.798   2.004  1.00  0.00     0.001 A 
HETATM   20  C   UNL     1      44.124 -19.249   3.211  1.00  0.00     0.009 A 
ENDBRANCH  13  14
ENDBRANCH  12  13
ENDBRANCH   7  12
BRANCH   2  21
HETATM   21  C   UNL     1      41.426 -15.954   3.044  1.00  0.00    -0.006 A 
HETATM   22  C   UNL     1      42.593 -15.609   2.339  1.00  0.00     0.042 A 
HETATM   23 CL   UNL     1      43.860 -14.663   3.034  1.00  0.00    -0.084 Cl
HETATM   24  C   UNL     1      42.771 -16.017   1.011  1.00  0.00     0.024 A 
HETATM   25  C   UNL     1      41.793 -16.772   0.365  1.00  0.00     0.002 A 
HETATM   26  C   UNL     1      40.629 -17.117   1.043  1.00  0.00     0.001 A 
HETATM   27  C   UNL     1      40.447 -16.713   2.366  1.00  0.00     0.011 A 
ENDBRANCH   2  21
BRANCH   1  28
HETATM   28  C   UNL     1      40.260 -13.304   3.897  1.00  0.00     0.293 C 
HETATM   29  O   UNL     1      39.049 -13.453   3.890  1.00  0.00    -0.259 OA
BRANCH  28  30
HETATM   30  O   UNL     1      40.983 -12.515   3.066  1.00  0.00    -0.318 OA
BRANCH  30  31
HETATM   31  C   UNL     1      40.487 -12.401   1.724  1.00  0.00     0.174 C 
HETATM   32  C   UNL     1      41.622 -12.505   0.722  1.00  0.00     0.034 C 
ENDBRANCH  30  31
ENDBRANCH  28  30
ENDBRANCH   1  28
TORSDOF 7
ENDMDL
MODEL 2
REMARK VINA RESULT:      -7.7      3.296      5.346
REMARK  7 active torsions:
REMARK  status: ('A' for Active; 'I' for Inactive)
REMARK    1  A    between atoms: C_2  and  O_3 
REMARK    2  A    between atoms: O_3  and  C_4 
REMARK    3  A    between atoms: C_4  and  C_5 
REMARK    4  A    between atoms: C_6  and  C_7 
REMARK    5  A    between atoms: C_18  and  S_19 
REMARK    6  A    between atoms: S_19  and  C_20 
REMARK    7  A    between atoms: C_20  and  C_21 
ROOT
HETATM    1  C   UNL     1      40.862 -13.530  -1.401  1.00  0.00     0.070 A 
HETATM    2  C   UNL     1      41.331 -13.519   0.047  1.00  0.00     0.204 A 
HETATM    3  N   UNL     1      41.446 -14.879   0.587  1.00  0.00    -0.082 N 
HETATM    4  C   UNL     1      41.194 -16.015  -0.132  1.00  0.00     0.726 A 
HETATM    5  N   UNL     1      40.808 -15.907  -1.417  1.00  0.00    -0.192 N 
HETATM    6  N   UNL     1      41.882 -15.171   1.827  1.00  0.00    -0.128 NA
HETATM    7  C   UNL     1      41.780 -16.505   1.820  1.00  0.00     0.226 A 
HETATM    8  N   UNL     1      41.394 -17.063   0.626  1.00  0.00    -0.035 NA
HETATM    9  C   UNL     1      40.637 -14.688  -2.069  1.00  0.00     0.037 A 
HETATM   10  C   UNL     1      40.248 -14.775  -3.524  1.00  0.00     0.070 C 
HETATM   11  H   UNL     1      40.596 -16.754  -1.938  1.00  0.00     0.184 HD
ENDROOT
BRANCH   7  12
HETATM   12  S   UNL     1      42.129 -17.426   3.254  1.00  0.00    -0.083 SA
BRANCH  12  13
HETATM   13  C   UNL     1      43.851 -17.892   2.928  1.00  0.00     0.123 C 
BRANCH  13  14
HETATM   14  C   UNL     1      44.032 -19.392   2.978  1.00  0.00    -0.027 A 
HETATM   15  C   UNL     1      44.596 -20.055   4.079  1.00  0.00     0.041 A 
HETATM   16 CL   UNL     1      45.114 -19.210   5.495  1.00  0.00    -0.084 Cl
HETATM   17  C   UNL     1      44.762 -21.444   4.064  1.00  0.00     0.024 A 
HETATM   18  C   UNL     1      44.378 -22.188   2.950  1.00  0.00     0.002 A 
HETATM   19  C   UNL     1      43.828 -21.545   1.846  1.00  0.00     0.001 A 
HETATM   20  C   UNL     1      43.656 -20.159   1.858  1.00  0.00     0.009 A 
ENDBRANCH  13  14
ENDBRANCH  12  13
ENDBRANCH   7  12
BRANCH   2  21
HETATM   21  C   UNL     1      40.509 -12.633   0.982  1.00  0.00    -0.006 A 
HETATM   22  C   UNL     1      39.151 -12.841   1.282  1.00  0.00     0.042 A 
HETATM   23 CL   UNL     1      38.225 -14.123   0.589  1.00  0.00    -0.084 Cl
HETATM   24  C   UNL     1      38.479 -11.989   2.167  1.00  0.00     0.024 A 
HETATM   25  C   UNL     1      39.143 -10.918   2.763  1.00  0.00     0.002 A 
HETATM   26  C   UNL     1      40.484 -10.692   2.472  1.00  0.00     0.001 A 
HETATM   27  C   UNL     1      41.160 -11.539   1.592  1.00  0.00     0.011 A 
ENDBRANCH   2  21
BRANCH   1  28
HETATM   28  C   UNL     1      40.735 -12.186  -1.995  1.00  0.00     0.293 C 
HETATM   29  O   UNL     1      39.657 -11.658  -2.212  1.00  0.00    -0.259 OA
BRANCH  28  30
HETATM   30  O   UNL     1      41.955 -11.705  -2.337  1.00  0.00    -0.318 OA
BRANCH  30  31
HETATM   31  C   UNL     1      42.217 -10.344  -1.965  1.00  0.00     0.174 C 
HETATM   32  C   UNL     1      43.501 -10.245  -1.163  1.00  0.00     0.034 C 
ENDBRANCH  30  31
ENDBRANCH  28  30
ENDBRANCH   1  28
TORSDOF 7
ENDMDL
MODEL 3
REMARK VINA RESULT:      -7.6      3.899      7.600
REMARK  7 active torsions:
REMARK  status: ('A' for Active; 'I' for Inactive)
REMARK    1  A    between atoms: C_2  and  O_3 
REMARK    2  A    between atoms: O_3  and  C_4 
REMARK    3  A    between atoms: C_4  and  C_5 
REMARK    4  A    between atoms: C_6  and  C_7 
REMARK    5  A    between atoms: C_18  and  S_19 
REMARK    6  A    between atoms: S_19  and  C_20 
REMARK    7  A    between atoms: C_20  and  C_21 
ROOT
HETATM    1  C   UNL     1      43.347 -18.590   4.128  1.00  0.00     0.070 A 
HETATM    2  C   UNL     1      42.397 -17.458   4.492  1.00  0.00     0.204 A 
HETATM    3  N   UNL     1      41.621 -17.009   3.329  1.00  0.00    -0.082 N 
HETATM    4  C   UNL     1      41.717 -17.563   2.082  1.00  0.00     0.726 A 
HETATM    5  N   UNL     1      42.576 -18.580   1.879  1.00  0.00    -0.192 N 
HETATM    6  N   UNL     1      40.674 -16.053   3.370  1.00  0.00    -0.128 NA
HETATM    7  C   UNL     1      40.301 -16.017   2.085  1.00  0.00     0.226 A 
HETATM    8  N   UNL     1      40.894 -16.950   1.270  1.00  0.00    -0.035 NA
HETATM    9  C   UNL     1      43.393 -19.107   2.875  1.00  0.00     0.037 A 
HETATM   10  C   UNL     1      44.251 -20.277   2.463  1.00  0.00     0.070 C 
HETATM   11  H   UNL     1      42.662 -18.968   0.943  1.00  0.00     0.184 HD
ENDROOT
BRANCH   7  12
HETATM   12  S   UNL     1      39.136 -14.848   1.536  1.00  0.00    -0.083 SA
BRANCH  12  13
HETATM   13  C   UNL     1      40.164 -13.873   0.405  1.00  0.00     0.123 C 
BRANCH  13  14
HETATM   14  C   UNL     1      39.959 -14.301  -1.030  1.00  0.00    -0.027 A 
HETATM   15  C   UNL     1      38.863 -13.883  -1.801  1.00  0.00     0.041 A 
HETATM   16 CL   UNL     1      37.655 -12.814  -1.178  1.00  0.00    -0.084 Cl
HETATM   17  C   UNL     1      38.708 -14.327  -3.118  1.00  0.00     0.024 A 
HETATM   18  C   UNL     1      39.638 -15.200  -3.680  1.00  0.00     0.002 A 
HETATM   19  C   UNL     1      40.724 -15.633  -2.927  1.00  0.00     0.001 A 
HETATM   20  C   UNL     1      40.884 -15.189  -1.612  1.00  0.00     0.009 A 
ENDBRANCH  13  14
ENDBRANCH  12  13
ENDBRANCH   7  12
BRANCH   2  21
HETATM   21  C   UNL     1      43.052 -16.271   5.196  1.00  0.00    -0.006 A 
HETATM   22  C   UNL     1      43.203 -16.158   6.589  1.00  0.00     0.042 A 
HETATM   23 CL   UNL     1      42.621 -17.352   7.692  1.00  0.00    -0.084 Cl
HETATM   24  C   UNL     1      43.835 -15.041   7.149  1.00  0.00     0.024 A 
HETATM   25  C   UNL     1      44.322 -14.020   6.335  1.00  0.00     0.002 A 
HETATM   26  C   UNL     1      44.177 -14.110   4.956  1.00  0.00     0.001 A 
HETATM   27  C   UNL     1      43.548 -15.221   4.392  1.00  0.00     0.011 A 
ENDBRANCH   2  21
BRANCH   1  28
HETATM   28  C   UNL     1      44.148 -19.083   5.264  1.00  0.00     0.293 C 
HETATM   29  O   UNL     1      45.301 -18.735   5.461  1.00  0.00    -0.259 OA
BRANCH  28  30
HETATM   30  O   UNL     1      43.456 -20.020   5.957  1.00  0.00    -0.318 OA
BRANCH  30  31
HETATM   31  C   UNL     1      44.236 -21.090   6.510  1.00  0.00     0.174 C 
HETATM   32  C   UNL     1      44.617 -22.089   5.432  1.00  0.00     0.034 C 
ENDBRANCH  30  31
ENDBRANCH  28  30
ENDBRANCH   1  28
TORSDOF 7
ENDMDL
MODEL 4
REMARK VINA RESULT:      -7.5      2.273      4.204
REMARK  7 active torsions:
REMARK  status: ('A' for Active; 'I' for Inactive)
REMARK    1  A    between atoms: C_2  and  O_3 
REMARK    2  A    between atoms: O_3  and  C_4 
REMARK    3  A    between atoms: C_4  and  C_5 
REMARK    4  A    between atoms: C_6  and  C_7 
REMARK    5  A    between atoms: C_18  and  S_19 
REMARK    6  A    between atoms: S_19  and  C_20 
REMARK    7  A    between atoms: C_20  and  C_21 
ROOT
HETATM    1  C   UNL     1      41.019 -14.487   2.402  1.00  0.00     0.070 A 
HETATM    2  C   UNL     1      42.323 -15.211   2.705  1.00  0.00     0.204 A 
HETATM    3  N   UNL     1      42.251 -16.630   2.334  1.00  0.00    -0.082 N 
HETATM    4  C   UNL     1      41.160 -17.218   1.757  1.00  0.00     0.726 A 
HETATM    5  N   UNL     1      40.065 -16.474   1.510  1.00  0.00    -0.192 N 
HETATM    6  N   UNL     1      43.273 -17.499   2.449  1.00  0.00    -0.128 NA
HETATM    7  C   UNL     1      42.697 -18.622   2.006  1.00  0.00     0.226 A 
HETATM    8  N   UNL     1      41.411 -18.484   1.542  1.00  0.00    -0.035 NA
HETATM    9  C   UNL     1      39.971 -15.120   1.819  1.00  0.00     0.037 A 
HETATM   10  C   UNL     1      38.681 -14.448   1.420  1.00  0.00     0.070 C 
HETATM   11  H   UNL     1      39.248 -16.924   1.107  1.00  0.00     0.184 HD
ENDROOT
BRANCH   7  12
HETATM   12  S   UNL     1      43.563 -20.130   2.035  1.00  0.00    -0.083 SA
BRANCH  12  13
HETATM   13  C   UNL     1      44.904 -19.712   3.181  1.00  0.00     0.123 C 
BRANCH  13  14
HETATM   14  C   UNL     1      44.509 -19.993   4.613  1.00  0.00    -0.027 A 
HETATM   15  C   UNL     1      44.427 -21.292   5.140  1.00  0.00     0.041 A 
HETATM   16 CL   UNL     1      44.796 -22.692   4.197  1.00  0.00    -0.084 Cl
HETATM   17  C   UNL     1      44.034 -21.498   6.467  1.00  0.00     0.024 A 
HETATM   18  C   UNL     1      43.710 -20.414   7.281  1.00  0.00     0.002 A 
HETATM   19  C   UNL     1      43.775 -19.122   6.772  1.00  0.00     0.001 A 
HETATM   20  C   UNL     1      44.171 -18.911   5.449  1.00  0.00     0.009 A 
ENDBRANCH  13  14
ENDBRANCH  12  13
ENDBRANCH   7  12
BRANCH   2  21
HETATM   21  C   UNL     1      42.828 -15.052   4.138  1.00  0.00    -0.006 A 
HETATM   22  C   UNL     1      42.301 -15.738   5.247  1.00  0.00     0.042 A 
HETATM   23 CL   UNL     1      40.972 -16.833   5.124  1.00  0.00    -0.084 Cl
HETATM   24  C   UNL     1      42.838 -15.545   6.526  1.00  0.00     0.024 A 
HETATM   25  C   UNL     1      43.903 -14.668   6.722  1.00  0.00     0.002 A 
HETATM   26  C   UNL     1      44.433 -13.975   5.639  1.00  0.00     0.001 A 
HETATM   27  C   UNL     1      43.902 -14.163   4.363  1.00  0.00     0.011 A 
ENDBRANCH   2  21
BRANCH   1  28
HETATM   28  C   UNL     1      41.039 -13.054   2.752  1.00  0.00     0.293 C 
HETATM   29  O   UNL     1      41.661 -12.225   2.108  1.00  0.00    -0.259 OA
BRANCH  28  30
HETATM   30  O   UNL     1      40.368 -12.843   3.910  1.00  0.00    -0.318 OA
BRANCH  30  31
HETATM   31  C   UNL     1      40.871 -11.784   4.739  1.00  0.00     0.174 C 
HETATM   32  C   UNL     1      41.054 -12.262   6.167  1.00  0.00     0.034 C 
ENDBRANCH  30  31
ENDBRANCH  28  30
ENDBRANCH   1  28
TORSDOF 7
ENDMDL
MODEL 5
REMARK VINA RESULT:      -7.4      3.350      4.542
REMARK  7 active torsions:
REMARK  status: ('A' for Active; 'I' for Inactive)
REMARK    1  A    between atoms: C_2  and  O_3 
REMARK    2  A    between atoms: O_3  and  C_4 
REMARK    3  A    between atoms: C_4  and  C_5 
REMARK    4  A    between atoms: C_6  and  C_7 
REMARK    5  A    between atoms: C_18  and  S_19 
REMARK    6  A    between atoms: S_19  and  C_20 
REMARK    7  A    between atoms: C_20  and  C_21 
ROOT
HETATM    1  C   UNL     1      39.452 -13.284   0.767  1.00  0.00     0.070 A 
HETATM    2  C   UNL     1      40.197 -14.286  -0.104  1.00  0.00     0.204 A 
HETATM    3  N   UNL     1      41.112 -15.115   0.689  1.00  0.00    -0.082 N 
HETATM    4  C   UNL     1      41.253 -15.020   2.046  1.00  0.00     0.726 A 
HETATM    5  N   UNL     1      40.523 -14.112   2.721  1.00  0.00    -0.192 N 
HETATM    6  N   UNL     1      41.864 -16.112   0.186  1.00  0.00    -0.128 NA
HETATM    7  C   UNL     1      42.506 -16.520   1.287  1.00  0.00     0.226 A 
HETATM    8  N   UNL     1      42.135 -15.897   2.454  1.00  0.00    -0.035 NA
HETATM    9  C   UNL     1      39.624 -13.242   2.111  1.00  0.00     0.037 A 
HETATM   10  C   UNL     1      38.864 -12.331   3.043  1.00  0.00     0.070 C 
HETATM   11  H   UNL     1      40.653 -14.028   3.726  1.00  0.00     0.184 HD
ENDROOT
BRANCH   7  12
HETATM   12  S   UNL     1      43.721 -17.761   1.193  1.00  0.00    -0.083 SA
BRANCH  12  13
HETATM   13  C   UNL     1      43.873 -18.198   2.946  1.00  0.00     0.123 C 
BRANCH  13  14
HETATM   14  C   UNL     1      44.107 -19.681   3.124  1.00  0.00    -0.027 A 
HETATM   15  C   UNL     1      44.606 -20.237   4.313  1.00  0.00     0.041 A 
HETATM   16 CL   UNL     1      44.979 -19.269   5.695  1.00  0.00    -0.084 Cl
HETATM   17  C   UNL     1      44.826 -21.615   4.417  1.00  0.00     0.024 A 
HETATM   18  C   UNL     1      44.560 -22.454   3.336  1.00  0.00     0.002 A 
HETATM   19  C   UNL     1      44.074 -21.918   2.148  1.00  0.00     0.001 A 
HETATM   20  C   UNL     1      43.850 -20.543   2.041  1.00  0.00     0.009 A 
ENDBRANCH  13  14
ENDBRANCH  12  13
ENDBRANCH   7  12
BRANCH   2  21
HETATM   21  C   UNL     1      40.920 -13.679  -1.306  1.00  0.00    -0.006 A 
HETATM   22  C   UNL     1      40.569 -13.916  -2.646  1.00  0.00     0.042 A 
HETATM   23 CL   UNL     1      39.280 -14.970  -3.103  1.00  0.00    -0.084 Cl
HETATM   24  C   UNL     1      41.276 -13.302  -3.687  1.00  0.00     0.024 A 
HETATM   25  C   UNL     1      42.342 -12.447  -3.412  1.00  0.00     0.002 A 
HETATM   26  C   UNL     1      42.709 -12.205  -2.093  1.00  0.00     0.001 A 
HETATM   27  C   UNL     1      42.007 -12.814  -1.052  1.00  0.00     0.011 A 
ENDBRANCH   2  21
BRANCH   1  28
HETATM   28  C   UNL     1      38.513 -12.427   0.018  1.00  0.00     0.293 C 
HETATM   29  O   UNL     1      37.522 -12.865  -0.541  1.00  0.00    -0.259 OA
BRANCH  28  30
HETATM   30  O   UNL     1      38.972 -11.153  -0.026  1.00  0.00    -0.318 OA
BRANCH  30  31
HETATM   31  C   UNL     1      38.457 -10.341  -1.092  1.00  0.00     0.174 C 
HETATM   32  C   UNL     1      39.398 -10.358  -2.282  1.00  0.00     0.034 C 
ENDBRANCH  30  31
ENDBRANCH  28  30
ENDBRANCH   1  28
TORSDOF 7
ENDMDL
MODEL 6
REMARK VINA RESULT:      -7.4      3.617      5.230
REMARK  7 active torsions:
REMARK  status: ('A' for Active; 'I' for Inactive)
REMARK    1  A    between atoms: C_2  and  O_3 
REMARK    2  A    between atoms: O_3  and  C_4 
REMARK    3  A    between atoms: C_4  and  C_5 
REMARK    4  A    between atoms: C_6  and  C_7 
REMARK    5  A    between atoms: C_18  and  S_19 
REMARK    6  A    between atoms: S_19  and  C_20 
REMARK    7  A    between atoms: C_20  and  C_21 
ROOT
HETATM    1  C   UNL     1      39.168 -13.577  -0.540  1.00  0.00     0.070 A 
HETATM    2  C   UNL     1      40.658 -13.862  -0.659  1.00  0.00     0.204 A 
HETATM    3  N   UNL     1      41.131 -14.726   0.428  1.00  0.00    -0.082 N 
HETATM    4  C   UNL     1      40.325 -15.239   1.407  1.00  0.00     0.726 A 
HETATM    5  N   UNL     1      39.013 -14.940   1.402  1.00  0.00    -0.192 N 
HETATM    6  N   UNL     1      42.395 -15.175   0.548  1.00  0.00    -0.128 NA
HETATM    7  C   UNL     1      42.302 -15.884   1.680  1.00  0.00     0.226 A 
HETATM    8  N   UNL     1      41.042 -15.974   2.219  1.00  0.00    -0.035 NA
HETATM    9  C   UNL     1      38.415 -14.121   0.448  1.00  0.00     0.037 A 
HETATM   10  C   UNL     1      36.923 -13.946   0.582  1.00  0.00     0.070 C 
HETATM   11  H   UNL     1      38.424 -15.302   2.148  1.00  0.00     0.184 HD
ENDROOT
BRANCH   7  12
HETATM   12  S   UNL     1      43.713 -16.624   2.378  1.00  0.00    -0.083 SA
BRANCH  12  13
HETATM   13  C   UNL     1      42.932 -17.843   3.469  1.00  0.00     0.123 C 
BRANCH  13  14
HETATM   14  C   UNL     1      43.478 -19.231   3.220  1.00  0.00    -0.027 A 
HETATM   15  C   UNL     1      44.374 -19.865   4.095  1.00  0.00     0.041 A 
HETATM   16 CL   UNL     1      44.918 -19.118   5.555  1.00  0.00    -0.084 Cl
HETATM   17  C   UNL     1      44.867 -21.142   3.805  1.00  0.00     0.024 A 
HETATM   18  C   UNL     1      44.481 -21.798   2.638  1.00  0.00     0.002 A 
HETATM   19  C   UNL     1      43.602 -21.179   1.755  1.00  0.00     0.001 A 
HETATM   20  C   UNL     1      43.104 -19.906   2.042  1.00  0.00     0.009 A 
ENDBRANCH  13  14
ENDBRANCH  12  13
ENDBRANCH   7  12
BRANCH   2  21
HETATM   21  C   UNL     1      41.541 -12.621  -0.787  1.00  0.00    -0.006 A 
HETATM   22  C   UNL     1      42.338 -12.325  -1.907  1.00  0.00     0.042 A 
HETATM   23 CL   UNL     1      42.446 -13.367  -3.279  1.00  0.00    -0.084 Cl
HETATM   24  C   UNL     1      43.103 -11.153  -1.947  1.00  0.00     0.024 A 
HETATM   25  C   UNL     1      43.089 -10.261  -0.877  1.00  0.00     0.002 A 
HETATM   26  C   UNL     1      42.313 -10.538   0.242  1.00  0.00     0.001 A 
HETATM   27  C   UNL     1      41.548 -11.705   0.288  1.00  0.00     0.011 A 
ENDBRANCH   2  21
BRANCH   1  28
HETATM   28  C   UNL     1      38.639 -12.715  -1.614  1.00  0.00     0.293 C 
HETATM   29  O   UNL     1      38.105 -11.639  -1.396  1.00  0.00    -0.259 OA
BRANCH  28  30
HETATM   30  O   UNL     1      38.747 -13.337  -2.813  1.00  0.00    -0.318 OA
BRANCH  30  31
HETATM   31  C   UNL     1      37.674 -14.227  -3.154  1.00  0.00     0.174 C 
HETATM   32  C   UNL     1      38.206 -15.465  -3.853  1.00  0.00     0.034 C 
ENDBRANCH  30  31
ENDBRANCH  28  30
ENDBRANCH   1  28
TORSDOF 7
ENDMDL
MODEL 7
REMARK VINA RESULT:      -7.4      1.684      2.022
REMARK  7 active torsions:
REMARK  status: ('A' for Active; 'I' for Inactive)
REMARK    1  A    between atoms: C_2  and  O_3 
REMARK    2  A    between atoms: O_3  and  C_4 
REMARK    3  A    between atoms: C_4  and  C_5 
REMARK    4  A    between atoms: C_6  and  C_7 
REMARK    5  A    between atoms: C_18  and  S_19 
REMARK    6  A    between atoms: S_19  and  C_20 
REMARK    7  A    between atoms: C_20  and  C_21 
ROOT
HETATM    1  C   UNL     1      40.797 -12.766   5.349  1.00  0.00     0.070 A 
HETATM    2  C   UNL     1      40.809 -14.221   4.903  1.00  0.00     0.204 A 
HETATM    3  N   UNL     1      41.936 -14.956   5.488  1.00  0.00    -0.082 N 
HETATM    4  C   UNL     1      42.843 -14.409   6.353  1.00  0.00     0.726 A 
HETATM    5  N   UNL     1      42.722 -13.113   6.699  1.00  0.00    -0.192 N 
HETATM    6  N   UNL     1      42.167 -16.270   5.302  1.00  0.00    -0.128 NA
HETATM    7  C   UNL     1      43.289 -16.429   6.014  1.00  0.00     0.226 A 
HETATM    8  N   UNL     1      43.717 -15.319   6.700  1.00  0.00    -0.035 NA
HETATM    9  C   UNL     1      41.717 -12.279   6.217  1.00  0.00     0.037 A 
HETATM   10  C   UNL     1      41.720 -10.873   6.762  1.00  0.00     0.070 C 
HETATM   11  H   UNL     1      43.416 -12.705   7.321  1.00  0.00     0.184 HD
ENDROOT
BRANCH   7  12
HETATM   12  S   UNL     1      44.110 -17.963   6.038  1.00  0.00    -0.083 SA
BRANCH  12  13
HETATM   13  C   UNL     1      44.131 -18.346   4.267  1.00  0.00     0.123 C 
BRANCH  13  14
HETATM   14  C   UNL     1      44.327 -19.826   4.028  1.00  0.00    -0.027 A 
HETATM   15  C   UNL     1      44.104 -20.433   2.782  1.00  0.00     0.041 A 
HETATM   16 CL   UNL     1      43.605 -19.530   1.395  1.00  0.00    -0.084 Cl
HETATM   17  C   UNL     1      44.278 -21.812   2.620  1.00  0.00     0.024 A 
HETATM   18  C   UNL     1      44.667 -22.603   3.700  1.00  0.00     0.002 A 
HETATM   19  C   UNL     1      44.882 -22.019   4.944  1.00  0.00     0.001 A 
HETATM   20  C   UNL     1      44.713 -20.643   5.108  1.00  0.00     0.009 A 
ENDBRANCH  13  14
ENDBRANCH  12  13
ENDBRANCH   7  12
BRANCH   2  21
HETATM   21  C   UNL     1      40.754 -14.430   3.390  1.00  0.00    -0.006 A 
HETATM   22  C   UNL     1      41.826 -14.181   2.515  1.00  0.00     0.042 A 
HETATM   23 CL   UNL     1      43.347 -13.564   3.051  1.00  0.00    -0.084 Cl
HETATM   24  C   UNL     1      41.694 -14.418   1.141  1.00  0.00     0.024 A 
HETATM   25  C   UNL     1      40.497 -14.902   0.617  1.00  0.00     0.002 A 
HETATM   26  C   UNL     1      39.423 -15.148   1.465  1.00  0.00     0.001 A 
HETATM   27  C   UNL     1      39.549 -14.913   2.835  1.00  0.00     0.011 A 
ENDBRANCH   2  21
BRANCH   1  28
HETATM   28  C   UNL     1      39.678 -11.982   4.792  1.00  0.00     0.293 C 
HETATM   29  O   UNL     1      38.541 -12.052   5.228  1.00  0.00    -0.259 OA
BRANCH  28  30
HETATM   30  O   UNL     1      40.087 -11.286   3.703  1.00  0.00    -0.318 OA
BRANCH  30  31
HETATM   31  C   UNL     1      39.126 -11.163   2.644  1.00  0.00     0.174 C 
HETATM   32  C   UNL     1      39.808 -11.229   1.290  1.00  0.00     0.034 C 
ENDBRANCH  30  31
ENDBRANCH  28  30
ENDBRANCH   1  28
TORSDOF 7
ENDMDL
MODEL 8
REMARK VINA RESULT:      -7.3      4.074      8.003
REMARK  7 active torsions:
REMARK  status: ('A' for Active; 'I' for Inactive)
REMARK    1  A    between atoms: C_2  and  O_3 
REMARK    2  A    between atoms: O_3  and  C_4 
REMARK    3  A    between atoms: C_4  and  C_5 
REMARK    4  A    between atoms: C_6  and  C_7 
REMARK    5  A    between atoms: C_18  and  S_19 
REMARK    6  A    between atoms: S_19  and  C_20 
REMARK    7  A    between atoms: C_20  and  C_21 
ROOT
HETATM    1  C   UNL     1      41.692 -14.326   3.390  1.00  0.00     0.070 A 
HETATM    2  C   UNL     1      41.351 -14.226   4.870  1.00  0.00     0.204 A 
HETATM    3  N   UNL     1      41.294 -12.829   5.317  1.00  0.00    -0.082 N 
HETATM    4  C   UNL     1      41.490 -11.752   4.498  1.00  0.00     0.726 A 
HETATM    5  N   UNL     1      41.762 -11.957   3.195  1.00  0.00    -0.192 N 
HETATM    6  N   UNL     1      40.971 -12.443   6.566  1.00  0.00    -0.128 NA
HETATM    7  C   UNL     1      41.081 -11.114   6.453  1.00  0.00     0.226 A 
HETATM    8  N   UNL     1      41.366 -10.650   5.192  1.00  0.00    -0.035 NA
HETATM    9  C   UNL     1      41.865 -13.222   2.622  1.00  0.00     0.037 A 
HETATM   10  C   UNL     1      42.127 -13.245   1.137  1.00  0.00     0.070 C 
HETATM   11  H   UNL     1      41.934 -11.153   2.597  1.00  0.00     0.184 HD
ENDROOT
BRANCH   7  12
HETATM   12  S   UNL     1      40.866 -10.088   7.840  1.00  0.00    -0.083 SA
BRANCH  12  13
HETATM   13  C   UNL     1      42.345 -10.521   8.796  1.00  0.00     0.123 C 
BRANCH  13  14
HETATM   14  C   UNL     1      42.006 -10.774  10.247  1.00  0.00    -0.027 A 
HETATM   15  C   UNL     1      42.984 -10.917  11.244  1.00  0.00     0.041 A 
HETATM   16 CL   UNL     1      44.673 -10.792  10.901  1.00  0.00    -0.084 Cl
HETATM   17  C   UNL     1      42.616 -11.174  12.569  1.00  0.00     0.024 A 
HETATM   18  C   UNL     1      41.272 -11.300  12.916  1.00  0.00     0.002 A 
HETATM   19  C   UNL     1      40.291 -11.172  11.938  1.00  0.00     0.001 A 
HETATM   20  C   UNL     1      40.653 -10.912  10.614  1.00  0.00     0.009 A 
ENDBRANCH  13  14
ENDBRANCH  12  13
ENDBRANCH   7  12
BRANCH   2  21
HETATM   21  C   UNL     1      42.246 -15.053   5.792  1.00  0.00    -0.006 A 
HETATM   22  C   UNL     1      41.832 -16.215   6.467  1.00  0.00     0.042 A 
HETATM   23 CL   UNL     1      40.223 -16.834   6.362  1.00  0.00    -0.084 Cl
HETATM   24  C   UNL     1      42.725 -16.924   7.279  1.00  0.00     0.024 A 
HETATM   25  C   UNL     1      44.040 -16.489   7.434  1.00  0.00     0.002 A 
HETATM   26  C   UNL     1      44.467 -15.338   6.780  1.00  0.00     0.001 A 
HETATM   27  C   UNL     1      43.580 -14.628   5.969  1.00  0.00     0.011 A 
ENDBRANCH   2  21
BRANCH   1  28
HETATM   28  C   UNL     1      41.756 -15.711   2.886  1.00  0.00     0.293 C 
HETATM   29  O   UNL     1      40.769 -16.417   2.764  1.00  0.00    -0.259 OA
BRANCH  28  30
HETATM   30  O   UNL     1      43.045 -16.082   2.692  1.00  0.00    -0.318 OA
BRANCH  30  31
HETATM   31  C   UNL     1      43.287 -17.496   2.640  1.00  0.00     0.174 C 
HETATM   32  C   UNL     1      43.909 -17.982   3.936  1.00  0.00     0.034 C 
ENDBRANCH  30  31
ENDBRANCH  28  30
ENDBRANCH   1  28
TORSDOF 7
ENDMDL
MODEL 9
REMARK VINA RESULT:      -7.2      4.094      6.853
REMARK  7 active torsions:
REMARK  status: ('A' for Active; 'I' for Inactive)
REMARK    1  A    between atoms: C_2  and  O_3 
REMARK    2  A    between atoms: O_3  and  C_4 
REMARK    3  A    between atoms: C_4  and  C_5 
REMARK    4  A    between atoms: C_6  and  C_7 
REMARK    5  A    between atoms: C_18  and  S_19 
REMARK    6  A    between atoms: S_19  and  C_20 
REMARK    7  A    between atoms: C_20  and  C_21 
ROOT
HETATM    1  C   UNL     1      41.388 -13.848   4.682  1.00  0.00     0.070 A 
HETATM    2  C   UNL     1      42.227 -13.818   3.412  1.00  0.00     0.204 A 
HETATM    3  N   UNL     1      41.833 -12.711   2.532  1.00  0.00    -0.082 N 
HETATM    4  C   UNL     1      40.857 -11.801   2.832  1.00  0.00     0.726 A 
HETATM    5  N   UNL     1      40.193 -11.910   3.999  1.00  0.00    -0.192 N 
HETATM    6  N   UNL     1      42.434 -12.417   1.363  1.00  0.00    -0.128 NA
HETATM    7  C   UNL     1      41.706 -11.368   0.965  1.00  0.00     0.226 A 
HETATM    8  N   UNL     1      40.751 -10.939   1.854  1.00  0.00    -0.035 NA
HETATM    9  C   UNL     1      40.439 -12.913   4.932  1.00  0.00     0.037 A 
HETATM   10  C   UNL     1      39.626 -12.837   6.201  1.00  0.00     0.070 C 
HETATM   11  H   UNL     1      39.450 -11.247   4.203  1.00  0.00     0.184 HD
ENDROOT
BRANCH   7  12
HETATM   12  S   UNL     1      41.993 -10.630  -0.584  1.00  0.00    -0.083 SA
BRANCH  12  13
HETATM   13  C   UNL     1      40.550 -11.231  -1.501  1.00  0.00     0.123 C 
BRANCH  13  14
HETATM   14  C   UNL     1      40.739 -12.663  -1.944  1.00  0.00    -0.027 A 
HETATM   15  C   UNL     1      41.471 -13.017  -3.088  1.00  0.00     0.041 A 
HETATM   16 CL   UNL     1      42.247 -11.837  -4.085  1.00  0.00    -0.084 Cl
HETATM   17  C   UNL     1      41.596 -14.358  -3.467  1.00  0.00     0.024 A 
HETATM   18  C   UNL     1      40.985 -15.362  -2.717  1.00  0.00     0.002 A 
HETATM   19  C   UNL     1      40.247 -15.028  -1.586  1.00  0.00     0.001 A 
HETATM   20  C   UNL     1      40.123 -13.690  -1.202  1.00  0.00     0.009 A 
ENDBRANCH  13  14
ENDBRANCH  12  13
ENDBRANCH   7  12
BRANCH   2  21
HETATM   21  C   UNL     1      42.270 -15.135   2.639  1.00  0.00    -0.006 A 
HETATM   22  C   UNL     1      41.148 -15.750   2.056  1.00  0.00     0.042 A 
HETATM   23 CL   UNL     1      39.554 -15.098   2.178  1.00  0.00    -0.084 Cl
HETATM   24  C   UNL     1      41.282 -16.950   1.347  1.00  0.00     0.024 A 
HETATM   25  C   UNL     1      42.529 -17.557   1.209  1.00  0.00     0.002 A 
HETATM   26  C   UNL     1      43.649 -16.968   1.785  1.00  0.00     0.001 A 
HETATM   27  C   UNL     1      43.522 -15.771   2.492  1.00  0.00     0.011 A 
ENDBRANCH   2  21
BRANCH   1  28
HETATM   28  C   UNL     1      41.747 -14.941   5.606  1.00  0.00     0.293 C 
HETATM   29  O   UNL     1      42.811 -14.980   6.201  1.00  0.00    -0.259 OA
BRANCH  28  30
HETATM   30  O   UNL     1      40.787 -15.897   5.600  1.00  0.00    -0.318 OA
BRANCH  30  31
HETATM   31  C   UNL     1      41.188 -17.188   6.083  1.00  0.00     0.174 C 
HETATM   32  C   UNL     1      41.703 -18.049   4.944  1.00  0.00     0.034 C 
ENDBRANCH  30  31
ENDBRANCH  28  30
ENDBRANCH   1  28
TORSDOF 7
ENDMDL
MODEL 10
REMARK VINA RESULT:      -7.2      3.829      7.907
REMARK  7 active torsions:
REMARK  status: ('A' for Active; 'I' for Inactive)
REMARK    1  A    between atoms: C_2  and  O_3 
REMARK    2  A    between atoms: O_3  and  C_4 
REMARK    3  A    between atoms: C_4  and  C_5 
REMARK    4  A    between atoms: C_6  and  C_7 
REMARK    5  A    between atoms: C_18  and  S_19 
REMARK    6  A    between atoms: S_19  and  C_20 
REMARK    7  A    between atoms: C_20  and  C_21 
ROOT
HETATM    1  C   UNL     1      43.194 -16.719   4.646  1.00  0.00     0.070 A 
HETATM    2  C   UNL     1      43.513 -15.231   4.679  1.00  0.00     0.204 A 
HETATM    3  N   UNL     1      43.899 -14.791   6.025  1.00  0.00    -0.082 N 
HETATM    4  C   UNL     1      43.992 -15.623   7.107  1.00  0.00     0.726 A 
HETATM    5  N   UNL     1      43.710 -16.931   6.957  1.00  0.00    -0.192 N 
HETATM    6  N   UNL     1      44.276 -13.537   6.337  1.00  0.00    -0.128 NA
HETATM    7  C   UNL     1      44.497 -13.662   7.651  1.00  0.00     0.226 A 
HETATM    8  N   UNL     1      44.365 -14.934   8.154  1.00  0.00    -0.035 NA
HETATM    9  C   UNL     1      43.315 -17.499   5.748  1.00  0.00     0.037 A 
HETATM   10  C   UNL     1      43.092 -18.990   5.770  1.00  0.00     0.070 C 
HETATM   11  H   UNL     1      43.755 -17.539   7.770  1.00  0.00     0.184 HD
ENDROOT
BRANCH   7  12
HETATM   12  S   UNL     1      44.922 -12.276   8.611  1.00  0.00    -0.083 SA
BRANCH  12  13
HETATM   13  C   UNL     1      43.336 -11.399   8.634  1.00  0.00     0.123 C 
BRANCH  13  14
HETATM   14  C   UNL     1      43.142 -10.650   9.933  1.00  0.00    -0.027 A 
HETATM   15  C   UNL     1      42.141  -9.682  10.112  1.00  0.00     0.041 A 
HETATM   16 CL   UNL     1      41.021  -9.275   8.860  1.00  0.00    -0.084 Cl
HETATM   17  C   UNL     1      42.019  -9.001  11.328  1.00  0.00     0.024 A 
HETATM   18  C   UNL     1      42.898  -9.270  12.376  1.00  0.00     0.002 A 
HETATM   19  C   UNL     1      43.901 -10.219  12.212  1.00  0.00     0.001 A 
HETATM   20  C   UNL     1      44.024 -10.903  11.001  1.00  0.00     0.009 A 
ENDBRANCH  13  14
ENDBRANCH  12  13
ENDBRANCH   7  12
BRANCH   2  21
HETATM   21  C   UNL     1      42.421 -14.328   4.107  1.00  0.00    -0.006 A 
HETATM   22  C   UNL     1      41.119 -14.229   4.628  1.00  0.00     0.042 A 
HETATM   23 CL   UNL     1      40.578 -15.160   5.978  1.00  0.00    -0.084 Cl
HETATM   24  C   UNL     1      40.185 -13.359   4.051  1.00  0.00     0.024 A 
HETATM   25  C   UNL     1      40.530 -12.579   2.949  1.00  0.00     0.002 A 
HETATM   26  C   UNL     1      41.810 -12.668   2.414  1.00  0.00     0.001 A 
HETATM   27  C   UNL     1      42.745 -13.534   2.985  1.00  0.00     0.011 A 
ENDBRANCH   2  21
BRANCH   1  28
HETATM   28  C   UNL     1      42.806 -17.215   3.311  1.00  0.00     0.293 C 
HETATM   29  O   UNL     1      41.643 -17.308   2.954  1.00  0.00    -0.259 OA
BRANCH  28  30
HETATM   30  O   UNL     1      43.900 -17.626   2.625  1.00  0.00    -0.318 OA
BRANCH  30  31
HETATM   31  C   UNL     1      43.721 -18.790   1.804  1.00  0.00     0.174 C 
HETATM   32  C   UNL     1      44.343 -20.009   2.460  1.00  0.00     0.034 C 
ENDBRANCH  30  31
ENDBRANCH  28  30
ENDBRANCH   1  28
TORSDOF 7
ENDMDL
