MODEL 1
REMARK VINA RESULT:      -8.8      0.000      0.000
REMARK  3 active torsions:
REMARK  status: ('A' for Active; 'I' for Inactive)
REMARK    1  A    between atoms: N_7  and  C_9 
REMARK    2  A    between atoms: C_9  and  C_10 
REMARK    3  A    between atoms: C_13  and  C_14 
ROOT
HETATM    1  C   UNL     1      37.500 -13.228   0.729  1.00  0.00     0.269 C 
HETATM    2  N   UNL     1      38.476 -14.362   0.529  1.00  0.00    -0.074 N 
HETATM    3  H   UNL     1      37.906 -15.042   0.000  1.00  0.00     0.279 HD
HETATM    4  C   UNL     1      38.909 -15.109   1.765  1.00  0.00     0.245 C 
HETATM    5  C   UNL     1      40.090 -14.457   2.555  1.00  0.00     0.008 C 
HETATM    6  C   UNL     1      40.578 -15.537   3.576  1.00  0.00     0.246 C 
HETATM    7  N   UNL     1      41.502 -15.028   4.659  1.00  0.00    -0.063 N 
HETATM    8  H   UNL     1      41.495 -15.774   5.378  1.00  0.00     0.280 HD
HETATM    9  C   UNL     1      40.987 -13.816   5.384  1.00  0.00     0.235 C 
HETATM   10  C   UNL     1      40.629 -12.727   4.391  1.00  0.00     0.029 C 
HETATM   11  C   UNL     1      39.617 -13.213   3.349  1.00  0.00     0.014 C 
HETATM   12  C   UNL     1      41.206 -14.089   1.544  1.00  0.00     0.014 C 
HETATM   13  C   UNL     1      40.709 -13.301   0.329  1.00  0.00     0.029 C 
HETATM   14  C   UNL     1      39.603 -14.029  -0.413  1.00  0.00     0.234 C 
ENDROOT
BRANCH   7  15
HETATM   15  C   UNL     1      43.005 -14.975   4.335  1.00  0.00     0.323 C 
BRANCH  15  16
HETATM   16  C   UNL     1      43.467 -16.187   3.614  1.00  0.00     0.199 A 
HETATM   17  O   UNL     1      43.811 -16.043   2.309  1.00  0.00    -0.194 OA
HETATM   18  N   UNL     1      44.042 -17.324   1.827  1.00  0.00    -0.106 NA
HETATM   19  C   UNL     1      43.855 -18.121   2.893  1.00  0.00     0.189 A 
HETATM   20  N   UNL     1      43.420 -17.436   4.015  1.00  0.00    -0.202 NA
BRANCH  19  21
HETATM   21  C   UNL     1      44.037 -19.567   2.882  1.00  0.00     0.016 A 
HETATM   22  C   UNL     1      44.547 -20.237   4.003  1.00  0.00     0.039 A 
HETATM   23  C   UNL     1      44.718 -21.622   3.974  1.00  0.00     0.035 A 
HETATM   24 CL   UNL     1      45.365 -22.426   5.349  1.00  0.00    -0.084 Cl
HETATM   25  C   UNL     1      44.376 -22.356   2.841  1.00  0.00     0.024 A 
HETATM   26  C   UNL     1      43.862 -21.700   1.723  1.00  0.00     0.003 A 
HETATM   27  C   UNL     1      43.697 -20.312   1.741  1.00  0.00     0.015 A 
ENDBRANCH  19  21
ENDBRANCH  15  16
ENDBRANCH   7  15
TORSDOF 3
ENDMDL
MODEL 2
REMARK VINA RESULT:      -8.4      1.711      2.177
REMARK  3 active torsions:
REMARK  status: ('A' for Active; 'I' for Inactive)
REMARK    1  A    between atoms: N_7  and  C_9 
REMARK    2  A    between atoms: C_9  and  C_10 
REMARK    3  A    between atoms: C_13  and  C_14 
ROOT
HETATM    1  C   UNL     1      38.684 -13.700   0.275  1.00  0.00     0.269 C 
HETATM    2  N   UNL     1      39.424 -14.991   0.529  1.00  0.00    -0.074 N 
HETATM    3  H   UNL     1      38.783 -15.688   0.117  1.00  0.00     0.279 HD
HETATM    4  C   UNL     1      39.572 -15.415   1.968  1.00  0.00     0.245 C 
HETATM    5  C   UNL     1      40.777 -14.773   2.730  1.00  0.00     0.008 C 
HETATM    6  C   UNL     1      40.933 -15.582   4.059  1.00  0.00     0.246 C 
HETATM    7  N   UNL     1      41.829 -14.947   5.097  1.00  0.00    -0.063 N 
HETATM    8  H   UNL     1      41.600 -15.445   5.977  1.00  0.00     0.280 HD
HETATM    9  C   UNL     1      41.503 -13.511   5.393  1.00  0.00     0.235 C 
HETATM   10  C   UNL     1      41.473 -12.706   4.108  1.00  0.00     0.029 C 
HETATM   11  C   UNL     1      40.491 -13.293   3.089  1.00  0.00     0.014 C 
HETATM   12  C   UNL     1      42.038 -14.901   1.838  1.00  0.00     0.014 C 
HETATM   13  C   UNL     1      41.834 -14.421   0.398  1.00  0.00     0.029 C 
HETATM   14  C   UNL     1      40.682 -15.135  -0.286  1.00  0.00     0.234 C 
ENDROOT
BRANCH   7  15
HETATM   15  C   UNL     1      43.336 -15.243   5.001  1.00  0.00     0.323 C 
BRANCH  15  16
HETATM   16  C   UNL     1      43.647 -16.669   5.266  1.00  0.00     0.199 A 
HETATM   17  O   UNL     1      44.088 -16.991   6.508  1.00  0.00    -0.194 OA
HETATM   18  N   UNL     1      44.460 -18.327   6.452  1.00  0.00    -0.106 NA
HETATM   19  C   UNL     1      44.174 -18.701   5.193  1.00  0.00     0.189 A 
HETATM   20  N   UNL     1      43.728 -17.654   4.403  1.00  0.00    -0.202 NA
BRANCH  19  21
HETATM   21  C   UNL     1      44.352 -20.051   4.673  1.00  0.00     0.016 A 
HETATM   22  C   UNL     1      44.232 -20.317   3.302  1.00  0.00     0.039 A 
HETATM   23  C   UNL     1      44.402 -21.616   2.823  1.00  0.00     0.035 A 
HETATM   24 CL   UNL     1      44.229 -21.930   1.141  1.00  0.00    -0.084 Cl
HETATM   25  C   UNL     1      44.703 -22.661   3.694  1.00  0.00     0.024 A 
HETATM   26  C   UNL     1      44.831 -22.406   5.059  1.00  0.00     0.003 A 
HETATM   27  C   UNL     1      44.652 -21.108   5.547  1.00  0.00     0.015 A 
ENDBRANCH  19  21
ENDBRANCH  15  16
ENDBRANCH   7  15
TORSDOF 3
ENDMDL
MODEL 3
REMARK VINA RESULT:      -8.4      1.749      2.693
REMARK  3 active torsions:
REMARK  status: ('A' for Active; 'I' for Inactive)
REMARK    1  A    between atoms: N_7  and  C_9 
REMARK    2  A    between atoms: C_9  and  C_10 
REMARK    3  A    between atoms: C_13  and  C_14 
ROOT
HETATM    1  C   UNL     1      40.388 -12.437  -3.193  1.00  0.00     0.269 C 
HETATM    2  N   UNL     1      41.547 -13.209  -2.612  1.00  0.00    -0.074 N 
HETATM    3  H   UNL     1      42.022 -13.553  -3.462  1.00  0.00     0.279 HD
HETATM    4  C   UNL     1      41.209 -14.456  -1.835  1.00  0.00     0.245 C 
HETATM    5  C   UNL     1      40.832 -14.224  -0.336  1.00  0.00     0.008 C 
HETATM    6  C   UNL     1      40.846 -15.635   0.339  1.00  0.00     0.246 C 
HETATM    7  N   UNL     1      40.209 -15.699   1.709  1.00  0.00    -0.063 N 
HETATM    8  H   UNL     1      40.053 -16.710   1.875  1.00  0.00     0.280 HD
HETATM    9  C   UNL     1      38.832 -15.100   1.773  1.00  0.00     0.235 C 
HETATM   10  C   UNL     1      38.852 -13.686   1.226  1.00  0.00     0.029 C 
HETATM   11  C   UNL     1      39.408 -13.631  -0.200  1.00  0.00     0.014 C 
HETATM   12  C   UNL     1      41.894 -13.286   0.292  1.00  0.00     0.014 C 
HETATM   13  C   UNL     1      42.167 -12.020  -0.525  1.00  0.00     0.029 C 
HETATM   14  C   UNL     1      42.582 -12.336  -1.951  1.00  0.00     0.234 C 
ENDROOT
BRANCH   7  15
HETATM   15  C   UNL     1      41.099 -15.358   2.916  1.00  0.00     0.323 C 
BRANCH  15  16
HETATM   16  C   UNL     1      42.060 -16.444   3.230  1.00  0.00     0.199 A 
HETATM   17  O   UNL     1      43.182 -16.105   3.915  1.00  0.00    -0.194 OA
HETATM   18  N   UNL     1      43.979 -17.242   3.937  1.00  0.00    -0.106 NA
HETATM   19  C   UNL     1      43.250 -18.174   3.299  1.00  0.00     0.189 A 
HETATM   20  N   UNL     1      42.066 -17.676   2.779  1.00  0.00    -0.202 NA
BRANCH  19  21
HETATM   21  C   UNL     1      43.662 -19.559   3.116  1.00  0.00     0.016 A 
HETATM   22  C   UNL     1      44.265 -20.275   4.160  1.00  0.00     0.039 A 
HETATM   23  C   UNL     1      44.656 -21.600   3.966  1.00  0.00     0.035 A 
HETATM   24 CL   UNL     1      45.414 -22.458   5.249  1.00  0.00    -0.084 Cl
HETATM   25  C   UNL     1      44.445 -22.231   2.742  1.00  0.00     0.024 A 
HETATM   26  C   UNL     1      43.841 -21.531   1.699  1.00  0.00     0.003 A 
HETATM   27  C   UNL     1      43.455 -20.199   1.883  1.00  0.00     0.015 A 
ENDBRANCH  19  21
ENDBRANCH  15  16
ENDBRANCH   7  15
TORSDOF 3
ENDMDL
MODEL 4
REMARK VINA RESULT:      -8.3      1.995      3.239
REMARK  3 active torsions:
REMARK  status: ('A' for Active; 'I' for Inactive)
REMARK    1  A    between atoms: N_7  and  C_9 
REMARK    2  A    between atoms: C_9  and  C_10 
REMARK    3  A    between atoms: C_13  and  C_14 
ROOT
HETATM    1  C   UNL     1      40.791 -12.665  -3.462  1.00  0.00     0.269 C 
HETATM    2  N   UNL     1      41.772 -13.440  -2.617  1.00  0.00    -0.074 N 
HETATM    3  H   UNL     1      42.362 -13.891  -3.334  1.00  0.00     0.279 HD
HETATM    4  C   UNL     1      41.214 -14.585  -1.809  1.00  0.00     0.245 C 
HETATM    5  C   UNL     1      40.599 -14.186  -0.428  1.00  0.00     0.008 C 
HETATM    6  C   UNL     1      40.392 -15.522   0.357  1.00  0.00     0.246 C 
HETATM    7  N   UNL     1      39.523 -15.416   1.590  1.00  0.00    -0.063 N 
HETATM    8  H   UNL     1      39.268 -16.395   1.812  1.00  0.00     0.280 HD
HETATM    9  C   UNL     1      38.203 -14.738   1.352  1.00  0.00     0.235 C 
HETATM   10  C   UNL     1      38.421 -13.387   0.698  1.00  0.00     0.029 C 
HETATM   11  C   UNL     1      39.220 -13.503  -0.604  1.00  0.00     0.014 C 
HETATM   12  C   UNL     1      41.601 -13.252   0.298  1.00  0.00     0.014 C 
HETATM   13  C   UNL     1      42.103 -12.089  -0.563  1.00  0.00     0.029 C 
HETATM   14  C   UNL     1      42.736 -12.567  -1.858  1.00  0.00     0.234 C 
ENDROOT
BRANCH   7  15
HETATM   15  C   UNL     1      40.212 -15.009   2.904  1.00  0.00     0.323 C 
BRANCH  15  16
HETATM   16  C   UNL     1      41.433 -15.809   3.169  1.00  0.00     0.199 A 
HETATM   17  O   UNL     1      42.619 -15.149   3.181  1.00  0.00    -0.194 OA
HETATM   18  N   UNL     1      43.602 -16.124   3.282  1.00  0.00    -0.106 NA
HETATM   19  C   UNL     1      42.920 -17.280   3.360  1.00  0.00     0.189 A 
HETATM   20  N   UNL     1      41.552 -17.114   3.218  1.00  0.00    -0.202 NA
BRANCH  19  21
HETATM   21  C   UNL     1      43.535 -18.590   3.529  1.00  0.00     0.016 A 
HETATM   22  C   UNL     1      43.557 -19.517   2.476  1.00  0.00     0.039 A 
HETATM   23  C   UNL     1      44.147 -20.768   2.657  1.00  0.00     0.035 A 
HETATM   24 CL   UNL     1      44.146 -21.901   1.364  1.00  0.00    -0.084 Cl
HETATM   25  C   UNL     1      44.731 -21.108   3.875  1.00  0.00     0.024 A 
HETATM   26  C   UNL     1      44.721 -20.192   4.926  1.00  0.00     0.003 A 
HETATM   27  C   UNL     1      44.122 -18.941   4.755  1.00  0.00     0.015 A 
ENDBRANCH  19  21
ENDBRANCH  15  16
ENDBRANCH   7  15
TORSDOF 3
ENDMDL
MODEL 5
REMARK VINA RESULT:      -7.9      3.249      5.065
REMARK  3 active torsions:
REMARK  status: ('A' for Active; 'I' for Inactive)
REMARK    1  A    between atoms: N_7  and  C_9 
REMARK    2  A    between atoms: C_9  and  C_10 
REMARK    3  A    between atoms: C_13  and  C_14 
ROOT
HETATM    1  C   UNL     1      42.232  -9.620  -4.221  1.00  0.00     0.269 C 
HETATM    2  N   UNL     1      42.319  -9.804  -2.726  1.00  0.00    -0.074 N 
HETATM    3  H   UNL     1      43.070  -9.142  -2.473  1.00  0.00     0.279 HD
HETATM    4  C   UNL     1      42.811 -11.142  -2.235  1.00  0.00     0.245 C 
HETATM    5  C   UNL     1      41.720 -12.257  -2.138  1.00  0.00     0.008 C 
HETATM    6  C   UNL     1      42.363 -13.424  -1.318  1.00  0.00     0.246 C 
HETATM    7  N   UNL     1      41.609 -14.734  -1.364  1.00  0.00    -0.063 N 
HETATM    8  H   UNL     1      42.290 -15.437  -1.025  1.00  0.00     0.280 HD
HETATM    9  C   UNL     1      41.267 -15.196  -2.752  1.00  0.00     0.235 C 
HETATM   10  C   UNL     1      40.535 -14.098  -3.502  1.00  0.00     0.029 C 
HETATM   11  C   UNL     1      41.341 -12.797  -3.540  1.00  0.00     0.014 C 
HETATM   12  C   UNL     1      40.486 -11.667  -1.411  1.00  0.00     0.014 C 
HETATM   13  C   UNL     1      40.012 -10.326  -1.978  1.00  0.00     0.029 C 
HETATM   14  C   UNL     1      41.116  -9.284  -1.983  1.00  0.00     0.234 C 
ENDROOT
BRANCH   7  15
HETATM   15  C   UNL     1      40.479 -14.932  -0.339  1.00  0.00     0.323 C 
BRANCH  15  16
HETATM   16  C   UNL     1      40.844 -15.906   0.719  1.00  0.00     0.199 A 
HETATM   17  O   UNL     1      40.104 -15.898   1.856  1.00  0.00    -0.194 OA
HETATM   18  N   UNL     1      40.736 -16.767   2.735  1.00  0.00    -0.106 NA
HETATM   19  C   UNL     1      41.778 -17.250   2.036  1.00  0.00     0.189 A 
HETATM   20  N   UNL     1      41.911 -16.667   0.786  1.00  0.00    -0.202 NA
BRANCH  19  21
HETATM   21  C   UNL     1      42.714 -18.247   2.537  1.00  0.00     0.016 A 
HETATM   22  C   UNL     1      42.951 -19.434   1.828  1.00  0.00     0.039 A 
HETATM   23  C   UNL     1      43.848 -20.379   2.324  1.00  0.00     0.035 A 
HETATM   24 CL   UNL     1      44.110 -21.839   1.455  1.00  0.00    -0.084 Cl
HETATM   25  C   UNL     1      44.528 -20.155   3.519  1.00  0.00     0.024 A 
HETATM   26  C   UNL     1      44.306 -18.975   4.229  1.00  0.00     0.003 A 
HETATM   27  C   UNL     1      43.400 -18.028   3.743  1.00  0.00     0.015 A 
ENDBRANCH  19  21
ENDBRANCH  15  16
ENDBRANCH   7  15
TORSDOF 3
ENDMDL
MODEL 6
REMARK VINA RESULT:      -7.9      1.948      4.274
REMARK  3 active torsions:
REMARK  status: ('A' for Active; 'I' for Inactive)
REMARK    1  A    between atoms: N_7  and  C_9 
REMARK    2  A    between atoms: C_9  and  C_10 
REMARK    3  A    between atoms: C_13  and  C_14 
ROOT
HETATM    1  C   UNL     1      44.372 -13.327   7.943  1.00  0.00     0.269 C 
HETATM    2  N   UNL     1      44.757 -14.416   6.971  1.00  0.00    -0.074 N 
HETATM    3  H   UNL     1      45.774 -14.495   7.132  1.00  0.00     0.279 HD
HETATM    4  C   UNL     1      44.628 -14.091   5.505  1.00  0.00     0.245 C 
HETATM    5  C   UNL     1      43.199 -14.294   4.902  1.00  0.00     0.008 C 
HETATM    6  C   UNL     1      43.368 -14.222   3.349  1.00  0.00     0.246 C 
HETATM    7  N   UNL     1      42.082 -14.079   2.568  1.00  0.00    -0.063 N 
HETATM    8  H   UNL     1      42.384 -13.770   1.626  1.00  0.00     0.280 HD
HETATM    9  C   UNL     1      41.193 -12.967   3.050  1.00  0.00     0.235 C 
HETATM   10  C   UNL     1      40.935 -13.113   4.538  1.00  0.00     0.029 C 
HETATM   11  C   UNL     1      42.238 -13.161   5.342  1.00  0.00     0.014 C 
HETATM   12  C   UNL     1      42.675 -15.682   5.351  1.00  0.00     0.014 C 
HETATM   13  C   UNL     1      42.801 -15.937   6.856  1.00  0.00     0.029 C 
HETATM   14  C   UNL     1      44.229 -15.775   7.347  1.00  0.00     0.234 C 
ENDROOT
BRANCH   7  15
HETATM   15  C   UNL     1      41.332 -15.371   2.204  1.00  0.00     0.323 C 
BRANCH  15  16
HETATM   16  C   UNL     1      42.252 -16.516   1.995  1.00  0.00     0.199 A 
HETATM   17  O   UNL     1      43.030 -16.494   0.883  1.00  0.00    -0.194 OA
HETATM   18  N   UNL     1      43.665 -17.728   0.832  1.00  0.00    -0.106 NA
HETATM   19  C   UNL     1      43.244 -18.367   1.937  1.00  0.00     0.189 A 
HETATM   20  N   UNL     1      42.295 -17.652   2.650  1.00  0.00    -0.202 NA
BRANCH  19  21
HETATM   21  C   UNL     1      43.686 -19.695   2.341  1.00  0.00     0.016 A 
HETATM   22  C   UNL     1      44.025 -19.968   3.674  1.00  0.00     0.039 A 
HETATM   23  C   UNL     1      44.450 -21.245   4.041  1.00  0.00     0.035 A 
HETATM   24 CL   UNL     1      44.882 -21.557   5.676  1.00  0.00    -0.084 Cl
HETATM   25  C   UNL     1      44.534 -22.265   3.096  1.00  0.00     0.024 A 
HETATM   26  C   UNL     1      44.194 -22.006   1.769  1.00  0.00     0.003 A 
HETATM   27  C   UNL     1      43.776 -20.726   1.392  1.00  0.00     0.015 A 
ENDBRANCH  19  21
ENDBRANCH  15  16
ENDBRANCH   7  15
TORSDOF 3
ENDMDL
MODEL 7
REMARK VINA RESULT:      -7.7      2.425      3.956
REMARK  3 active torsions:
REMARK  status: ('A' for Active; 'I' for Inactive)
REMARK    1  A    between atoms: N_7  and  C_9 
REMARK    2  A    between atoms: C_9  and  C_10 
REMARK    3  A    between atoms: C_13  and  C_14 
ROOT
HETATM    1  C   UNL     1      38.980  -9.421   0.989  1.00  0.00     0.269 C 
HETATM    2  N   UNL     1      39.187 -10.670   1.811  1.00  0.00    -0.074 N 
HETATM    3  H   UNL     1      39.328 -10.281   2.758  1.00  0.00     0.279 HD
HETATM    4  C   UNL     1      40.440 -11.462   1.536  1.00  0.00     0.245 C 
HETATM    5  C   UNL     1      40.340 -12.469   0.343  1.00  0.00     0.008 C 
HETATM    6  C   UNL     1      41.600 -13.390   0.446  1.00  0.00     0.246 C 
HETATM    7  N   UNL     1      41.881 -14.234  -0.776  1.00  0.00    -0.063 N 
HETATM    8  H   UNL     1      42.861 -14.549  -0.654  1.00  0.00     0.280 HD
HETATM    9  C   UNL     1      41.903 -13.460  -2.064  1.00  0.00     0.235 C 
HETATM   10  C   UNL     1      40.622 -12.661  -2.214  1.00  0.00     0.029 C 
HETATM   11  C   UNL     1      40.385 -11.732  -1.019  1.00  0.00     0.014 C 
HETATM   12  C   UNL     1      39.030 -13.280   0.501  1.00  0.00     0.014 C 
HETATM   13  C   UNL     1      37.788 -12.417   0.743  1.00  0.00     0.029 C 
HETATM   14  C   UNL     1      37.947 -11.512   1.952  1.00  0.00     0.234 C 
ENDROOT
BRANCH   7  15
HETATM   15  C   UNL     1      41.168 -15.594  -0.872  1.00  0.00     0.323 C 
BRANCH  15  16
HETATM   16  C   UNL     1      41.403 -16.437   0.327  1.00  0.00     0.199 A 
HETATM   17  O   UNL     1      40.531 -16.309   1.359  1.00  0.00    -0.194 OA
HETATM   18  N   UNL     1      41.053 -17.064   2.401  1.00  0.00    -0.106 NA
HETATM   19  C   UNL     1      42.171 -17.610   1.891  1.00  0.00     0.189 A 
HETATM   20  N   UNL     1      42.453 -17.172   0.607  1.00  0.00    -0.202 NA
BRANCH  19  21
HETATM   21  C   UNL     1      43.039 -18.531   2.611  1.00  0.00     0.016 A 
HETATM   22  C   UNL     1      43.431 -19.749   2.037  1.00  0.00     0.039 A 
HETATM   23  C   UNL     1      44.261 -20.621   2.742  1.00  0.00     0.035 A 
HETATM   24 CL   UNL     1      44.715 -22.120   2.033  1.00  0.00    -0.084 Cl
HETATM   25  C   UNL     1      44.719 -20.292   4.016  1.00  0.00     0.024 A 
HETATM   26  C   UNL     1      44.341 -19.081   4.593  1.00  0.00     0.003 A 
HETATM   27  C   UNL     1      43.501 -18.206   3.897  1.00  0.00     0.015 A 
ENDBRANCH  19  21
ENDBRANCH  15  16
ENDBRANCH   7  15
TORSDOF 3
ENDMDL
MODEL 8
REMARK VINA RESULT:      -7.6      2.250      3.853
REMARK  3 active torsions:
REMARK  status: ('A' for Active; 'I' for Inactive)
REMARK    1  A    between atoms: N_7  and  C_9 
REMARK    2  A    between atoms: C_9  and  C_10 
REMARK    3  A    between atoms: C_13  and  C_14 
ROOT
HETATM    1  C   UNL     1      38.998  -8.768   3.395  1.00  0.00     0.269 C 
HETATM    2  N   UNL     1      40.041  -9.798   3.756  1.00  0.00    -0.074 N 
HETATM    3  H   UNL     1      40.864  -9.207   3.957  1.00  0.00     0.279 HD
HETATM    4  C   UNL     1      40.495 -10.719   2.653  1.00  0.00     0.245 C 
HETATM    5  C   UNL     1      39.587 -11.970   2.416  1.00  0.00     0.008 C 
HETATM    6  C   UNL     1      40.401 -12.927   1.484  1.00  0.00     0.246 C 
HETATM    7  N   UNL     1      39.604 -14.054   0.867  1.00  0.00    -0.063 N 
HETATM    8  H   UNL     1      40.201 -14.399   0.093  1.00  0.00     0.280 HD
HETATM    9  C   UNL     1      38.340 -13.610   0.187  1.00  0.00     0.235 C 
HETATM   10  C   UNL     1      37.499 -12.782   1.138  1.00  0.00     0.029 C 
HETATM   11  C   UNL     1      38.274 -11.582   1.691  1.00  0.00     0.014 C 
HETATM   12  C   UNL     1      39.298 -12.627   3.789  1.00  0.00     0.014 C 
HETATM   13  C   UNL     1      38.806 -11.646   4.857  1.00  0.00     0.029 C 
HETATM   14  C   UNL     1      39.773 -10.493   5.065  1.00  0.00     0.234 C 
ENDROOT
BRANCH   7  15
HETATM   15  C   UNL     1      39.455 -15.344   1.692  1.00  0.00     0.323 C 
BRANCH  15  16
HETATM   16  C   UNL     1      40.688 -16.170   1.670  1.00  0.00     0.199 A 
HETATM   17  O   UNL     1      41.401 -16.195   0.516  1.00  0.00    -0.194 OA
HETATM   18  N   UNL     1      42.393 -17.150   0.696  1.00  0.00    -0.106 NA
HETATM   19  C   UNL     1      42.213 -17.586   1.954  1.00  0.00     0.189 A 
HETATM   20  N   UNL     1      41.098 -17.037   2.566  1.00  0.00    -0.202 NA
BRANCH  19  21
HETATM   21  C   UNL     1      43.060 -18.572   2.613  1.00  0.00     0.016 A 
HETATM   22  C   UNL     1      43.406 -19.769   1.971  1.00  0.00     0.039 A 
HETATM   23  C   UNL     1      44.216 -20.703   2.619  1.00  0.00     0.035 A 
HETATM   24 CL   UNL     1      44.613 -22.176   1.827  1.00  0.00    -0.084 Cl
HETATM   25  C   UNL     1      44.698 -20.455   3.903  1.00  0.00     0.024 A 
HETATM   26  C   UNL     1      44.365 -19.265   4.548  1.00  0.00     0.003 A 
HETATM   27  C   UNL     1      43.546 -18.329   3.908  1.00  0.00     0.015 A 
ENDBRANCH  19  21
ENDBRANCH  15  16
ENDBRANCH   7  15
TORSDOF 3
ENDMDL
MODEL 9
REMARK VINA RESULT:      -7.5      1.923      3.743
REMARK  3 active torsions:
REMARK  status: ('A' for Active; 'I' for Inactive)
REMARK    1  A    between atoms: N_7  and  C_9 
REMARK    2  A    between atoms: C_9  and  C_10 
REMARK    3  A    between atoms: C_13  and  C_14 
ROOT
HETATM    1  C   UNL     1      40.226 -10.036   5.323  1.00  0.00     0.269 C 
HETATM    2  N   UNL     1      41.137 -11.238   5.256  1.00  0.00    -0.074 N 
HETATM    3  H   UNL     1      42.015 -10.862   5.649  1.00  0.00     0.279 HD
HETATM    4  C   UNL     1      41.515 -11.725   3.880  1.00  0.00     0.245 C 
HETATM    5  C   UNL     1      40.481 -12.685   3.207  1.00  0.00     0.008 C 
HETATM    6  C   UNL     1      41.207 -13.310   1.972  1.00  0.00     0.246 C 
HETATM    7  N   UNL     1      40.307 -14.027   0.991  1.00  0.00    -0.063 N 
HETATM    8  H   UNL     1      40.882 -14.123   0.135  1.00  0.00     0.280 HD
HETATM    9  C   UNL     1      39.119 -13.221   0.548  1.00  0.00     0.235 C 
HETATM   10  C   UNL     1      38.350 -12.718   1.754  1.00  0.00     0.029 C 
HETATM   11  C   UNL     1      39.239 -11.908   2.702  1.00  0.00     0.014 C 
HETATM   12  C   UNL     1      40.083 -13.770   4.240  1.00  0.00     0.014 C 
HETATM   13  C   UNL     1      39.675 -13.210   5.605  1.00  0.00     0.029 C 
HETATM   14  C   UNL     1      40.758 -12.337   6.213  1.00  0.00     0.234 C 
ENDROOT
BRANCH   7  15
HETATM   15  C   UNL     1      39.993 -15.506   1.276  1.00  0.00     0.323 C 
BRANCH  15  16
HETATM   16  C   UNL     1      41.222 -16.311   1.486  1.00  0.00     0.199 A 
HETATM   17  O   UNL     1      42.010 -16.539   0.405  1.00  0.00    -0.194 OA
HETATM   18  N   UNL     1      42.985 -17.436   0.819  1.00  0.00    -0.106 NA
HETATM   19  C   UNL     1      42.721 -17.638   2.122  1.00  0.00     0.189 A 
HETATM   20  N   UNL     1      41.570 -16.997   2.549  1.00  0.00    -0.202 NA
BRANCH  19  21
HETATM   21  C   UNL     1      43.519 -18.480   3.003  1.00  0.00     0.016 A 
HETATM   22  C   UNL     1      43.887 -18.038   4.282  1.00  0.00     0.039 A 
HETATM   23  C   UNL     1      44.655 -18.856   5.112  1.00  0.00     0.035 A 
HETATM   24 CL   UNL     1      45.116 -18.292   6.669  1.00  0.00    -0.084 Cl
HETATM   25  C   UNL     1      45.056 -20.121   4.688  1.00  0.00     0.024 A 
HETATM   26  C   UNL     1      44.690 -20.573   3.420  1.00  0.00     0.003 A 
HETATM   27  C   UNL     1      43.929 -19.755   2.580  1.00  0.00     0.015 A 
ENDBRANCH  19  21
ENDBRANCH  15  16
ENDBRANCH   7  15
TORSDOF 3
ENDMDL
MODEL 10
REMARK VINA RESULT:      -7.5      2.546      4.141
REMARK  3 active torsions:
REMARK  status: ('A' for Active; 'I' for Inactive)
REMARK    1  A    between atoms: N_7  and  C_9 
REMARK    2  A    between atoms: C_9  and  C_10 
REMARK    3  A    between atoms: C_13  and  C_14 
ROOT
HETATM    1  C   UNL     1      39.004  -8.557   5.978  1.00  0.00     0.269 C 
HETATM    2  N   UNL     1      40.452  -8.749   5.596  1.00  0.00    -0.074 N 
HETATM    3  H   UNL     1      40.666  -7.859   5.117  1.00  0.00     0.279 HD
HETATM    4  C   UNL     1      40.746  -9.813   4.570  1.00  0.00     0.245 C 
HETATM    5  C   UNL     1      40.879 -11.264   5.137  1.00  0.00     0.008 C 
HETATM    6  C   UNL     1      41.496 -12.126   3.987  1.00  0.00     0.246 C 
HETATM    7  N   UNL     1      41.426 -13.622   4.194  1.00  0.00    -0.063 N 
HETATM    8  H   UNL     1      41.607 -14.022   3.256  1.00  0.00     0.280 HD
HETATM    9  C   UNL     1      40.057 -14.127   4.552  1.00  0.00     0.235 C 
HETATM   10  C   UNL     1      39.515 -13.367   5.747  1.00  0.00     0.029 C 
HETATM   11  C   UNL     1      39.494 -11.855   5.501  1.00  0.00     0.014 C 
HETATM   12  C   UNL     1      41.813 -11.219   6.373  1.00  0.00     0.014 C 
HETATM   13  C   UNL     1      41.441 -10.141   7.395  1.00  0.00     0.029 C 
HETATM   14  C   UNL     1      41.390  -8.756   6.775  1.00  0.00     0.234 C 
ENDROOT
BRANCH   7  15
HETATM   15  C   UNL     1      42.566 -14.275   4.994  1.00  0.00     0.323 C 
BRANCH  15  16
HETATM   16  C   UNL     1      43.104 -15.483   4.321  1.00  0.00     0.199 A 
HETATM   17  O   UNL     1      43.304 -15.413   2.981  1.00  0.00    -0.194 OA
HETATM   18  N   UNL     1      43.645 -16.695   2.573  1.00  0.00    -0.106 NA
HETATM   19  C   UNL     1      43.658 -17.414   3.709  1.00  0.00     0.189 A 
HETATM   20  N   UNL     1      43.249 -16.689   4.816  1.00  0.00    -0.202 NA
BRANCH  19  21
HETATM   21  C   UNL     1      44.014 -18.825   3.787  1.00  0.00     0.016 A 
HETATM   22  C   UNL     1      43.950 -19.648   2.654  1.00  0.00     0.039 A 
HETATM   23  C   UNL     1      44.291 -20.998   2.748  1.00  0.00     0.035 A 
HETATM   24 CL   UNL     1      44.185 -21.999   1.354  1.00  0.00    -0.084 Cl
HETATM   25  C   UNL     1      44.711 -21.541   3.960  1.00  0.00     0.024 A 
HETATM   26  C   UNL     1      44.785 -20.730   5.091  1.00  0.00     0.003 A 
HETATM   27  C   UNL     1      44.434 -19.380   5.007  1.00  0.00     0.015 A 
ENDBRANCH  19  21
ENDBRANCH  15  16
ENDBRANCH   7  15
TORSDOF 3
ENDMDL
