MODEL 1
REMARK VINA RESULT:     -10.7      0.000      0.000
REMARK  6 active torsions:
REMARK  status: ('A' for Active; 'I' for Inactive)
REMARK    1  A    between atoms: C_4  and  C_5 
REMARK    2  A    between atoms: C_9  and  C_10 
REMARK       I    between atoms: C_10  and  N_11 
REMARK    3  A    between atoms: N_11  and  N_12 
REMARK       I    between atoms: N_12  and  C_13 
REMARK    4  A    between atoms: C_13  and  C_14 
REMARK    5  A    between atoms: C_14  and  O_15 
REMARK    6  A    between atoms: O_15  and  C_16 
ROOT
HETATM    1  C   UNL     1      45.044 -13.258   7.899  1.00  0.00     0.288 C 
HETATM    2  N   UNL     1      44.050 -14.221   7.988  1.00  0.00    -0.262 N 
HETATM    3  O   UNL     1      45.932 -13.328   7.050  1.00  0.00    -0.264 OA
HETATM    4  H   UNL     1      43.132 -13.948   8.339  1.00  0.00     0.190 HD
ENDROOT
BRANCH   2   5
HETATM    5  N   UNL     1      43.991 -15.176   6.949  1.00  0.00    -0.265 N 
HETATM    6  C   UNL     1      43.646 -16.466   7.307  1.00  0.00     0.260 C 
HETATM    7  O   UNL     1      43.611 -16.830   8.483  1.00  0.00    -0.269 OA
HETATM    8  H   UNL     1      43.724 -14.827   6.027  1.00  0.00     0.190 HD
BRANCH   6   9
HETATM    9  C   UNL     1      43.267 -17.376   6.144  1.00  0.00     0.280 C 
BRANCH   9  10
HETATM   10  O   UNL     1      44.385 -18.170   5.735  1.00  0.00    -0.341 OA
BRANCH  10  11
HETATM   11  C   UNL     1      44.181 -18.650   4.463  1.00  0.00     0.080 A 
HETATM   12  C   UNL     1      44.349 -20.021   4.172  1.00  0.00     0.007 A 
HETATM   13  C   UNL     1      44.147 -20.449   2.839  1.00  0.00    -0.023 A 
HETATM   14  C   UNL     1      44.708 -20.980   5.143  1.00  0.00     0.015 A 
HETATM   15  C   UNL     1      44.328 -21.804   2.512  1.00  0.00     0.012 A 
HETATM   16  C   UNL     1      43.764 -19.517   1.859  1.00  0.00     0.012 A 
HETATM   17  C   UNL     1      44.694 -22.734   3.486  1.00  0.00     0.001 A 
HETATM   18  C   UNL     1      44.878 -22.323   4.801  1.00  0.00     0.001 A 
HETATM   19  C   UNL     1      43.567 -18.174   2.183  1.00  0.00     0.004 A 
HETATM   20  C   UNL     1      43.769 -17.740   3.487  1.00  0.00     0.037 A 
ENDBRANCH  10  11
ENDBRANCH   9  10
ENDBRANCH   6   9
ENDBRANCH   2   5
BRANCH   1  21
HETATM   21  C   UNL     1      44.939 -12.183   8.849  1.00  0.00     0.121 A 
HETATM   22  N   UNL     1      45.889 -11.238   9.111  1.00  0.00    -0.272 N 
HETATM   23  N   UNL     1      45.525 -10.325  10.019  1.00  0.00    -0.174 NA
HETATM   24  H   UNL     1      46.803 -11.138   8.683  1.00  0.00     0.189 HD
HETATM   25  C   UNL     1      44.275 -10.670  10.367  1.00  0.00     0.089 A 
HETATM   26  C   UNL     1      43.868 -11.824   9.646  1.00  0.00     0.071 A 
BRANCH  25  27
HETATM   27  C   UNL     1      43.505  -9.899  11.345  1.00  0.00    -0.006 A 
HETATM   28  C   UNL     1      43.854  -9.928  12.704  1.00  0.00     0.014 A 
HETATM   29  C   UNL     1      43.135  -9.182  13.641  1.00  0.00     0.001 A 
HETATM   30  C   UNL     1      42.053  -8.406  13.232  1.00  0.00     0.000 A 
HETATM   31  C   UNL     1      41.689  -8.375  11.887  1.00  0.00     0.001 A 
HETATM   32  C   UNL     1      42.411  -9.117  10.947  1.00  0.00     0.014 A 
ENDBRANCH  25  27
ENDBRANCH   1  21
TORSDOF 6
ENDMDL
MODEL 2
REMARK VINA RESULT:      -9.9      1.687     11.137
REMARK  6 active torsions:
REMARK  status: ('A' for Active; 'I' for Inactive)
REMARK    1  A    between atoms: C_4  and  C_5 
REMARK    2  A    between atoms: C_9  and  C_10 
REMARK       I    between atoms: C_10  and  N_11 
REMARK    3  A    between atoms: N_11  and  N_12 
REMARK       I    between atoms: N_12  and  C_13 
REMARK    4  A    between atoms: C_13  and  C_14 
REMARK    5  A    between atoms: C_14  and  O_15 
REMARK    6  A    between atoms: O_15  and  C_16 
ROOT
HETATM    1  C   UNL     1      43.957 -15.889   7.235  1.00  0.00     0.288 C 
HETATM    2  N   UNL     1      44.437 -14.607   7.015  1.00  0.00    -0.262 N 
HETATM    3  O   UNL     1      43.682 -16.286   8.366  1.00  0.00    -0.264 OA
HETATM    4  H   UNL     1      44.234 -14.153   6.125  1.00  0.00     0.190 HD
ENDROOT
BRANCH   2   5
HETATM    5  N   UNL     1      44.415 -13.719   8.114  1.00  0.00    -0.265 N 
HETATM    6  C   UNL     1      45.422 -12.774   8.172  1.00  0.00     0.260 C 
HETATM    7  O   UNL     1      46.415 -12.832   7.445  1.00  0.00    -0.269 OA
HETATM    8  H   UNL     1      43.494 -13.489   8.493  1.00  0.00     0.190 HD
BRANCH   6   9
HETATM    9  C   UNL     1      45.183 -11.640   9.163  1.00  0.00     0.280 C 
BRANCH   9  10
HETATM   10  O   UNL     1      43.915 -11.019   8.928  1.00  0.00    -0.341 OA
BRANCH  10  11
HETATM   11  C   UNL     1      43.368 -10.600  10.118  1.00  0.00     0.080 A 
HETATM   12  C   UNL     1      41.983 -10.360  10.232  1.00  0.00     0.007 A 
HETATM   13  C   UNL     1      41.484  -9.908  11.477  1.00  0.00    -0.023 A 
HETATM   14  C   UNL     1      41.074 -10.545   9.168  1.00  0.00     0.015 A 
HETATM   15  C   UNL     1      40.112  -9.638  11.616  1.00  0.00     0.012 A 
HETATM   16  C   UNL     1      42.364  -9.741  12.560  1.00  0.00     0.012 A 
HETATM   17  C   UNL     1      39.234  -9.819  10.547  1.00  0.00     0.001 A 
HETATM   18  C   UNL     1      39.713 -10.277   9.326  1.00  0.00     0.001 A 
HETATM   19  C   UNL     1      43.725 -10.023  12.430  1.00  0.00     0.004 A 
HETATM   20  C   UNL     1      44.227 -10.461  11.211  1.00  0.00     0.037 A 
ENDBRANCH  10  11
ENDBRANCH   9  10
ENDBRANCH   6   9
ENDBRANCH   2   5
BRANCH   1  21
HETATM   21  C   UNL     1      43.794 -16.690   6.051  1.00  0.00     0.121 A 
HETATM   22  N   UNL     1      43.277 -16.274   4.857  1.00  0.00    -0.272 N 
HETATM   23  N   UNL     1      43.268 -17.213   3.902  1.00  0.00    -0.174 NA
HETATM   24  H   UNL     1      42.937 -15.351   4.613  1.00  0.00     0.189 HD
HETATM   25  C   UNL     1      43.813 -18.294   4.483  1.00  0.00     0.089 A 
HETATM   26  C   UNL     1      44.166 -18.002   5.827  1.00  0.00     0.071 A 
BRANCH  25  27
HETATM   27  C   UNL     1      43.997 -19.551   3.754  1.00  0.00    -0.006 A 
HETATM   28  C   UNL     1      44.615 -20.647   4.375  1.00  0.00     0.014 A 
HETATM   29  C   UNL     1      44.779 -21.854   3.693  1.00  0.00     0.001 A 
HETATM   30  C   UNL     1      44.336 -21.977   2.378  1.00  0.00     0.000 A 
HETATM   31  C   UNL     1      43.729 -20.895   1.745  1.00  0.00     0.001 A 
HETATM   32  C   UNL     1      43.558 -19.687   2.429  1.00  0.00     0.014 A 
ENDBRANCH  25  27
ENDBRANCH   1  21
TORSDOF 6
ENDMDL
MODEL 3
REMARK VINA RESULT:      -9.5      1.498      2.962
REMARK  6 active torsions:
REMARK  status: ('A' for Active; 'I' for Inactive)
REMARK    1  A    between atoms: C_4  and  C_5 
REMARK    2  A    between atoms: C_9  and  C_10 
REMARK       I    between atoms: C_10  and  N_11 
REMARK    3  A    between atoms: N_11  and  N_12 
REMARK       I    between atoms: N_12  and  C_13 
REMARK    4  A    between atoms: C_13  and  C_14 
REMARK    5  A    between atoms: C_14  and  O_15 
REMARK    6  A    between atoms: O_15  and  C_16 
ROOT
HETATM    1  C   UNL     1      44.835 -13.607   7.730  1.00  0.00     0.288 C 
HETATM    2  N   UNL     1      44.013 -14.661   8.099  1.00  0.00    -0.262 N 
HETATM    3  O   UNL     1      45.500 -13.643   6.695  1.00  0.00    -0.264 OA
HETATM    4  H   UNL     1      43.178 -14.462   8.650  1.00  0.00     0.190 HD
ENDROOT
BRANCH   2   5
HETATM    5  N   UNL     1      43.826 -15.689   7.149  1.00  0.00    -0.265 N 
HETATM    6  C   UNL     1      43.508 -16.941   7.640  1.00  0.00     0.260 C 
HETATM    7  O   UNL     1      43.600 -17.216   8.837  1.00  0.00    -0.269 OA
HETATM    8  H   UNL     1      43.462 -15.404   6.238  1.00  0.00     0.190 HD
BRANCH   6   9
HETATM    9  C   UNL     1      42.990 -17.927   6.598  1.00  0.00     0.280 C 
BRANCH   9  10
HETATM   10  O   UNL     1      42.218 -17.254   5.600  1.00  0.00    -0.341 OA
BRANCH  10  11
HETATM   11  C   UNL     1      42.601 -17.670   4.347  1.00  0.00     0.080 A 
HETATM   12  C   UNL     1      42.019 -17.111   3.189  1.00  0.00     0.007 A 
HETATM   13  C   UNL     1      42.439 -17.598   1.929  1.00  0.00    -0.023 A 
HETATM   14  C   UNL     1      41.041 -16.094   3.229  1.00  0.00     0.015 A 
HETATM   15  C   UNL     1      41.862 -17.078   0.758  1.00  0.00     0.012 A 
HETATM   16  C   UNL     1      43.430 -18.592   1.863  1.00  0.00     0.012 A 
HETATM   17  C   UNL     1      40.889 -16.080   0.821  1.00  0.00     0.001 A 
HETATM   18  C   UNL     1      40.482 -15.585   2.055  1.00  0.00     0.001 A 
HETATM   19  C   UNL     1      44.017 -19.100   3.023  1.00  0.00     0.004 A 
HETATM   20  C   UNL     1      43.608 -18.634   4.267  1.00  0.00     0.037 A 
ENDBRANCH  10  11
ENDBRANCH   9  10
ENDBRANCH   6   9
ENDBRANCH   2   5
BRANCH   1  21
HETATM   21  C   UNL     1      44.828 -12.483   8.630  1.00  0.00     0.121 A 
HETATM   22  N   UNL     1      45.816 -11.551   8.768  1.00  0.00    -0.272 N 
HETATM   23  N   UNL     1      45.544 -10.585   9.654  1.00  0.00    -0.174 NA
HETATM   24  H   UNL     1      46.695 -11.495   8.266  1.00  0.00     0.189 HD
HETATM   25  C   UNL     1      44.318 -10.881  10.115  1.00  0.00     0.089 A 
HETATM   26  C   UNL     1      43.831 -12.059   9.487  1.00  0.00     0.071 A 
BRANCH  25  27
HETATM   27  C   UNL     1      43.644 -10.044  11.109  1.00  0.00    -0.006 A 
HETATM   28  C   UNL     1      43.928 -10.196  12.474  1.00  0.00     0.014 A 
HETATM   29  C   UNL     1      43.302  -9.390  13.428  1.00  0.00     0.001 A 
HETATM   30  C   UNL     1      42.378  -8.427  13.028  1.00  0.00     0.000 A 
HETATM   31  C   UNL     1      42.078  -8.271  11.676  1.00  0.00     0.001 A 
HETATM   32  C   UNL     1      42.709  -9.074  10.720  1.00  0.00     0.014 A 
ENDBRANCH  25  27
ENDBRANCH   1  21
TORSDOF 6
ENDMDL
MODEL 4
REMARK VINA RESULT:      -9.4      1.629      2.191
REMARK  6 active torsions:
REMARK  status: ('A' for Active; 'I' for Inactive)
REMARK    1  A    between atoms: C_4  and  C_5 
REMARK    2  A    between atoms: C_9  and  C_10 
REMARK       I    between atoms: C_10  and  N_11 
REMARK    3  A    between atoms: N_11  and  N_12 
REMARK       I    between atoms: N_12  and  C_13 
REMARK    4  A    between atoms: C_13  and  C_14 
REMARK    5  A    between atoms: C_14  and  O_15 
REMARK    6  A    between atoms: O_15  and  C_16 
ROOT
HETATM    1  C   UNL     1      42.955 -11.504   8.241  1.00  0.00     0.288 C 
HETATM    2  N   UNL     1      43.662 -12.627   7.842  1.00  0.00    -0.262 N 
HETATM    3  O   UNL     1      42.143 -10.956   7.496  1.00  0.00    -0.264 OA
HETATM    4  H   UNL     1      43.951 -13.302   8.549  1.00  0.00     0.190 HD
ENDROOT
BRANCH   2   5
HETATM    5  N   UNL     1      43.275 -13.225   6.622  1.00  0.00    -0.265 N 
HETATM    6  C   UNL     1      43.897 -14.412   6.285  1.00  0.00     0.260 C 
HETATM    7  O   UNL     1      44.892 -14.822   6.885  1.00  0.00    -0.269 OA
HETATM    8  H   UNL     1      42.310 -13.067   6.326  1.00  0.00     0.190 HD
BRANCH   6   9
HETATM    9  C   UNL     1      43.229 -15.190   5.157  1.00  0.00     0.280 C 
BRANCH   9  10
HETATM   10  O   UNL     1      43.362 -16.600   5.363  1.00  0.00    -0.341 OA
BRANCH  10  11
HETATM   11  C   UNL     1      43.537 -17.238   4.158  1.00  0.00     0.080 A 
HETATM   12  C   UNL     1      43.945 -18.588   4.107  1.00  0.00     0.007 A 
HETATM   13  C   UNL     1      44.131 -19.182   2.836  1.00  0.00    -0.023 A 
HETATM   14  C   UNL     1      44.179 -19.370   5.258  1.00  0.00     0.015 A 
HETATM   15  C   UNL     1      44.559 -20.517   2.751  1.00  0.00     0.012 A 
HETATM   16  C   UNL     1      43.880 -18.431   1.674  1.00  0.00     0.012 A 
HETATM   17  C   UNL     1      44.793 -21.269   3.903  1.00  0.00     0.001 A 
HETATM   18  C   UNL     1      44.599 -20.698   5.155  1.00  0.00     0.001 A 
HETATM   19  C   UNL     1      43.439 -17.109   1.754  1.00  0.00     0.004 A 
HETATM   20  C   UNL     1      43.260 -16.513   2.996  1.00  0.00     0.037 A 
ENDBRANCH  10  11
ENDBRANCH   9  10
ENDBRANCH   6   9
ENDBRANCH   2   5
BRANCH   1  21
HETATM   21  C   UNL     1      43.229 -11.054   9.581  1.00  0.00     0.121 A 
HETATM   22  N   UNL     1      44.445 -11.063  10.204  1.00  0.00    -0.272 N 
HETATM   23  N   UNL     1      44.434 -10.556  11.443  1.00  0.00    -0.174 NA
HETATM   24  H   UNL     1      45.334 -11.375   9.831  1.00  0.00     0.189 HD
HETATM   25  C   UNL     1      43.159 -10.184  11.647  1.00  0.00     0.089 A 
HETATM   26  C   UNL     1      42.377 -10.470  10.497  1.00  0.00     0.071 A 
BRANCH  25  27
HETATM   27  C   UNL     1      42.729  -9.560  12.900  1.00  0.00    -0.006 A 
HETATM   28  C   UNL     1      42.406  -8.195  12.939  1.00  0.00     0.014 A 
HETATM   29  C   UNL     1      41.978  -7.597  14.126  1.00  0.00     0.001 A 
HETATM   30  C   UNL     1      41.876  -8.354  15.291  1.00  0.00     0.000 A 
HETATM   31  C   UNL     1      42.202  -9.709  15.270  1.00  0.00     0.001 A 
HETATM   32  C   UNL     1      42.625 -10.311  14.080  1.00  0.00     0.014 A 
ENDBRANCH  25  27
ENDBRANCH   1  21
TORSDOF 6
ENDMDL
MODEL 5
REMARK VINA RESULT:      -9.4      2.775     10.825
REMARK  6 active torsions:
REMARK  status: ('A' for Active; 'I' for Inactive)
REMARK    1  A    between atoms: C_4  and  C_5 
REMARK    2  A    between atoms: C_9  and  C_10 
REMARK       I    between atoms: C_10  and  N_11 
REMARK    3  A    between atoms: N_11  and  N_12 
REMARK       I    between atoms: N_12  and  C_13 
REMARK    4  A    between atoms: C_13  and  C_14 
REMARK    5  A    between atoms: C_14  and  O_15 
REMARK    6  A    between atoms: O_15  and  C_16 
ROOT
HETATM    1  C   UNL     1      42.327 -14.307   5.633  1.00  0.00     0.288 C 
HETATM    2  N   UNL     1      41.103 -13.769   6.002  1.00  0.00    -0.262 N 
HETATM    3  O   UNL     1      43.360 -13.641   5.678  1.00  0.00    -0.264 OA
HETATM    4  H   UNL     1      40.391 -14.389   6.387  1.00  0.00     0.190 HD
ENDROOT
BRANCH   2   5
HETATM    5  N   UNL     1      41.122 -12.493   6.608  1.00  0.00    -0.265 N 
HETATM    6  C   UNL     1      39.899 -11.946   6.946  1.00  0.00     0.260 C 
HETATM    7  O   UNL     1      38.836 -12.423   6.545  1.00  0.00    -0.269 OA
HETATM    8  H   UNL     1      41.940 -12.274   7.179  1.00  0.00     0.190 HD
BRANCH   6   9
HETATM    9  C   UNL     1      39.969 -10.747   7.884  1.00  0.00     0.280 C 
BRANCH   9  10
HETATM   10  O   UNL     1      41.250 -10.115   7.808  1.00  0.00    -0.341 OA
BRANCH  10  11
HETATM   11  C   UNL     1      41.692  -9.790   9.069  1.00  0.00     0.080 A 
HETATM   12  C   UNL     1      42.849 -10.391   9.608  1.00  0.00     0.007 A 
HETATM   13  C   UNL     1      43.238 -10.033  10.920  1.00  0.00    -0.023 A 
HETATM   14  C   UNL     1      43.632 -11.332   8.904  1.00  0.00     0.015 A 
HETATM   15  C   UNL     1      44.373 -10.631  11.493  1.00  0.00     0.012 A 
HETATM   16  C   UNL     1      42.490  -9.079  11.631  1.00  0.00     0.012 A 
HETATM   17  C   UNL     1      45.127 -11.566  10.782  1.00  0.00     0.001 A 
HETATM   18  C   UNL     1      44.760 -11.912   9.488  1.00  0.00     0.001 A 
HETATM   19  C   UNL     1      41.372  -8.471  11.059  1.00  0.00     0.004 A 
HETATM   20  C   UNL     1      40.975  -8.820   9.774  1.00  0.00     0.037 A 
ENDBRANCH  10  11
ENDBRANCH   9  10
ENDBRANCH   6   9
ENDBRANCH   2   5
BRANCH   1  21
HETATM   21  C   UNL     1      42.289 -15.686   5.223  1.00  0.00     0.121 A 
HETATM   22  N   UNL     1      41.212 -16.523   5.299  1.00  0.00    -0.272 N 
HETATM   23  N   UNL     1      41.434 -17.752   4.816  1.00  0.00    -0.174 NA
HETATM   24  H   UNL     1      40.282 -16.314   5.643  1.00  0.00     0.189 HD
HETATM   25  C   UNL     1      42.708 -17.727   4.391  1.00  0.00     0.089 A 
HETATM   26  C   UNL     1      43.273 -16.444   4.619  1.00  0.00     0.071 A 
BRANCH  25  27
HETATM   27  C   UNL     1      43.339 -18.895   3.774  1.00  0.00    -0.006 A 
HETATM   28  C   UNL     1      43.013 -19.266   2.461  1.00  0.00     0.014 A 
HETATM   29  C   UNL     1      43.623 -20.369   1.859  1.00  0.00     0.001 A 
HETATM   30  C   UNL     1      44.560 -21.118   2.566  1.00  0.00     0.000 A 
HETATM   31  C   UNL     1      44.887 -20.767   3.874  1.00  0.00     0.001 A 
HETATM   32  C   UNL     1      44.282 -19.660   4.475  1.00  0.00     0.014 A 
ENDBRANCH  25  27
ENDBRANCH   1  21
TORSDOF 6
ENDMDL
MODEL 6
REMARK VINA RESULT:      -9.4      2.878     11.283
REMARK  6 active torsions:
REMARK  status: ('A' for Active; 'I' for Inactive)
REMARK    1  A    between atoms: C_4  and  C_5 
REMARK    2  A    between atoms: C_9  and  C_10 
REMARK       I    between atoms: C_10  and  N_11 
REMARK    3  A    between atoms: N_11  and  N_12 
REMARK       I    between atoms: N_12  and  C_13 
REMARK    4  A    between atoms: C_13  and  C_14 
REMARK    5  A    between atoms: C_14  and  O_15 
REMARK    6  A    between atoms: O_15  and  C_16 
ROOT
HETATM    1  C   UNL     1      42.044 -13.809   5.053  1.00  0.00     0.288 C 
HETATM    2  N   UNL     1      41.278 -13.486   6.162  1.00  0.00    -0.262 N 
HETATM    3  O   UNL     1      42.721 -12.962   4.472  1.00  0.00    -0.264 OA
HETATM    4  H   UNL     1      41.108 -14.204   6.867  1.00  0.00     0.190 HD
ENDROOT
BRANCH   2   5
HETATM    5  N   UNL     1      41.456 -12.196   6.709  1.00  0.00    -0.265 N 
HETATM    6  C   UNL     1      40.376 -11.645   7.372  1.00  0.00     0.260 C 
HETATM    7  O   UNL     1      39.248 -12.136   7.304  1.00  0.00    -0.269 OA
HETATM    8  H   UNL     1      42.402 -11.960   7.016  1.00  0.00     0.190 HD
BRANCH   6   9
HETATM    9  C   UNL     1      40.700 -10.423   8.224  1.00  0.00     0.280 C 
BRANCH   9  10
HETATM   10  O   UNL     1      40.607 -10.735   9.617  1.00  0.00    -0.341 OA
BRANCH  10  11
HETATM   11  C   UNL     1      41.836 -10.591  10.216  1.00  0.00     0.080 A 
HETATM   12  C   UNL     1      41.941 -10.194  11.566  1.00  0.00     0.007 A 
HETATM   13  C   UNL     1      43.234 -10.041  12.118  1.00  0.00    -0.023 A 
HETATM   14  C   UNL     1      40.821  -9.943  12.388  1.00  0.00     0.015 A 
HETATM   15  C   UNL     1      43.373  -9.625  13.454  1.00  0.00     0.012 A 
HETATM   16  C   UNL     1      44.365 -10.310  11.327  1.00  0.00     0.012 A 
HETATM   17  C   UNL     1      42.251  -9.372  14.245  1.00  0.00     0.001 A 
HETATM   18  C   UNL     1      40.977  -9.536  13.715  1.00  0.00     0.001 A 
HETATM   19  C   UNL     1      44.231 -10.739  10.006  1.00  0.00     0.004 A 
HETATM   20  C   UNL     1      42.967 -10.886   9.451  1.00  0.00     0.037 A 
ENDBRANCH  10  11
ENDBRANCH   9  10
ENDBRANCH   6   9
ENDBRANCH   2   5
BRANCH   1  21
HETATM   21  C   UNL     1      41.995 -15.193   4.659  1.00  0.00     0.121 A 
HETATM   22  N   UNL     1      40.869 -15.941   4.469  1.00  0.00    -0.272 N 
HETATM   23  N   UNL     1      41.102 -17.197   4.070  1.00  0.00    -0.174 NA
HETATM   24  H   UNL     1      39.903 -15.649   4.566  1.00  0.00     0.189 HD
HETATM   25  C   UNL     1      42.439 -17.284   3.979  1.00  0.00     0.089 A 
HETATM   26  C   UNL     1      43.034 -16.043   4.330  1.00  0.00     0.071 A 
BRANCH  25  27
HETATM   27  C   UNL     1      43.106 -18.515   3.552  1.00  0.00    -0.006 A 
HETATM   28  C   UNL     1      42.873 -19.041   2.273  1.00  0.00     0.014 A 
HETATM   29  C   UNL     1      43.518 -20.206   1.852  1.00  0.00     0.001 A 
HETATM   30  C   UNL     1      44.397 -20.864   2.708  1.00  0.00     0.000 A 
HETATM   31  C   UNL     1      44.632 -20.359   3.986  1.00  0.00     0.001 A 
HETATM   32  C   UNL     1      43.991 -19.189   4.406  1.00  0.00     0.014 A 
ENDBRANCH  25  27
ENDBRANCH   1  21
TORSDOF 6
ENDMDL
MODEL 7
REMARK VINA RESULT:      -9.3      8.005     11.680
REMARK  6 active torsions:
REMARK  status: ('A' for Active; 'I' for Inactive)
REMARK    1  A    between atoms: C_4  and  C_5 
REMARK    2  A    between atoms: C_9  and  C_10 
REMARK       I    between atoms: C_10  and  N_11 
REMARK    3  A    between atoms: N_11  and  N_12 
REMARK       I    between atoms: N_12  and  C_13 
REMARK    4  A    between atoms: C_13  and  C_14 
REMARK    5  A    between atoms: C_14  and  O_15 
REMARK    6  A    between atoms: O_15  and  C_16 
ROOT
HETATM    1  C   UNL     1      40.480 -15.217  -2.796  1.00  0.00     0.288 C 
HETATM    2  N   UNL     1      40.519 -15.244  -1.410  1.00  0.00    -0.262 N 
HETATM    3  O   UNL     1      41.479 -15.457  -3.471  1.00  0.00    -0.264 OA
HETATM    4  H   UNL     1      39.672 -15.494  -0.900  1.00  0.00     0.190 HD
ENDROOT
BRANCH   2   5
HETATM    5  N   UNL     1      41.699 -15.742  -0.814  1.00  0.00    -0.265 N 
HETATM    6  C   UNL     1      41.694 -15.876   0.562  1.00  0.00     0.260 C 
HETATM    7  O   UNL     1      40.808 -15.383   1.262  1.00  0.00    -0.269 OA
HETATM    8  H   UNL     1      42.251 -16.393  -1.375  1.00  0.00     0.190 HD
BRANCH   6   9
HETATM    9  C   UNL     1      42.832 -16.715   1.130  1.00  0.00     0.280 C 
BRANCH   9  10
HETATM   10  O   UNL     1      42.345 -17.969   1.617  1.00  0.00    -0.341 OA
BRANCH  10  11
HETATM   11  C   UNL     1      43.060 -18.353   2.727  1.00  0.00     0.080 A 
HETATM   12  C   UNL     1      43.602 -19.652   2.825  1.00  0.00     0.007 A 
HETATM   13  C   UNL     1      44.307 -19.995   4.003  1.00  0.00    -0.023 A 
HETATM   14  C   UNL     1      43.473 -20.623   1.809  1.00  0.00     0.015 A 
HETATM   15  C   UNL     1      44.840 -21.288   4.140  1.00  0.00     0.012 A 
HETATM   16  C   UNL     1      44.472 -19.036   5.018  1.00  0.00     0.012 A 
HETATM   17  C   UNL     1      44.691 -22.235   3.127  1.00  0.00     0.001 A 
HETATM   18  C   UNL     1      44.013 -21.902   1.960  1.00  0.00     0.001 A 
HETATM   19  C   UNL     1      43.959 -17.746   4.879  1.00  0.00     0.004 A 
HETATM   20  C   UNL     1      43.258 -17.400   3.730  1.00  0.00     0.037 A 
ENDBRANCH  10  11
ENDBRANCH   9  10
ENDBRANCH   6   9
ENDBRANCH   2   5
BRANCH   1  21
HETATM   21  C   UNL     1      39.193 -14.912  -3.364  1.00  0.00     0.121 A 
HETATM   22  N   UNL     1      38.389 -15.773  -4.056  1.00  0.00    -0.272 N 
HETATM   23  N   UNL     1      37.223 -15.244  -4.448  1.00  0.00    -0.174 NA
HETATM   24  H   UNL     1      38.561 -16.748  -4.274  1.00  0.00     0.189 HD
HETATM   25  C   UNL     1      37.248 -13.983  -3.986  1.00  0.00     0.089 A 
HETATM   26  C   UNL     1      38.463 -13.742  -3.291  1.00  0.00     0.071 A 
BRANCH  25  27
HETATM   27  C   UNL     1      36.130 -13.062  -4.198  1.00  0.00    -0.006 A 
HETATM   28  C   UNL     1      36.089 -11.831  -3.526  1.00  0.00     0.014 A 
HETATM   29  C   UNL     1      35.035 -10.939  -3.736  1.00  0.00     0.001 A 
HETATM   30  C   UNL     1      34.005 -11.270  -4.613  1.00  0.00     0.000 A 
HETATM   31  C   UNL     1      34.028 -12.494  -5.280  1.00  0.00     0.001 A 
HETATM   32  C   UNL     1      35.085 -13.385  -5.076  1.00  0.00     0.014 A 
ENDBRANCH  25  27
ENDBRANCH   1  21
TORSDOF 6
ENDMDL
MODEL 8
REMARK VINA RESULT:      -9.3      2.397     10.887
REMARK  6 active torsions:
REMARK  status: ('A' for Active; 'I' for Inactive)
REMARK    1  A    between atoms: C_4  and  C_5 
REMARK    2  A    between atoms: C_9  and  C_10 
REMARK       I    between atoms: C_10  and  N_11 
REMARK    3  A    between atoms: N_11  and  N_12 
REMARK       I    between atoms: N_12  and  C_13 
REMARK    4  A    between atoms: C_13  and  C_14 
REMARK    5  A    between atoms: C_14  and  O_15 
REMARK    6  A    between atoms: O_15  and  C_16 
ROOT
HETATM    1  C   UNL     1      43.944 -15.410   6.779  1.00  0.00     0.288 C 
HETATM    2  N   UNL     1      43.208 -14.573   5.955  1.00  0.00    -0.262 N 
HETATM    3  O   UNL     1      44.346 -15.036   7.881  1.00  0.00    -0.264 OA
HETATM    4  H   UNL     1      42.530 -14.987   5.315  1.00  0.00     0.190 HD
ENDROOT
BRANCH   2   5
HETATM    5  N   UNL     1      42.778 -13.347   6.509  1.00  0.00    -0.265 N 
HETATM    6  C   UNL     1      41.769 -12.681   5.841  1.00  0.00     0.260 C 
HETATM    7  O   UNL     1      41.410 -13.005   4.708  1.00  0.00    -0.269 OA
HETATM    8  H   UNL     1      42.844 -13.260   7.525  1.00  0.00     0.190 HD
BRANCH   6   9
HETATM    9  C   UNL     1      41.108 -11.556   6.630  1.00  0.00     0.280 C 
BRANCH   9  10
HETATM   10  O   UNL     1      42.054 -10.916   7.492  1.00  0.00    -0.341 OA
BRANCH  10  11
HETATM   11  C   UNL     1      41.473 -10.643   8.708  1.00  0.00     0.080 A 
HETATM   12  C   UNL     1      42.259 -10.521   9.874  1.00  0.00     0.007 A 
HETATM   13  C   UNL     1      41.601 -10.262  11.099  1.00  0.00    -0.023 A 
HETATM   14  C   UNL     1      43.666 -10.646   9.876  1.00  0.00     0.015 A 
HETATM   15  C   UNL     1      42.353 -10.157  12.281  1.00  0.00     0.012 A 
HETATM   16  C   UNL     1      40.204 -10.107  11.118  1.00  0.00     0.012 A 
HETATM   17  C   UNL     1      43.742 -10.294  12.261  1.00  0.00     0.001 A 
HETATM   18  C   UNL     1      44.398 -10.534  11.059  1.00  0.00     0.001 A 
HETATM   19  C   UNL     1      39.455 -10.194   9.944  1.00  0.00     0.004 A 
HETATM   20  C   UNL     1      40.089 -10.455   8.736  1.00  0.00     0.037 A 
ENDBRANCH  10  11
ENDBRANCH   9  10
ENDBRANCH   6   9
ENDBRANCH   2   5
BRANCH   1  21
HETATM   21  C   UNL     1      44.175 -16.731   6.257  1.00  0.00     0.121 A 
HETATM   22  N   UNL     1      44.736 -17.780   6.929  1.00  0.00    -0.272 N 
HETATM   23  N   UNL     1      44.806 -18.915   6.222  1.00  0.00    -0.174 NA
HETATM   24  H   UNL     1      45.069 -17.801   7.886  1.00  0.00     0.189 HD
HETATM   25  C   UNL     1      44.257 -18.610   5.034  1.00  0.00     0.089 A 
HETATM   26  C   UNL     1      43.839 -17.253   5.023  1.00  0.00     0.071 A 
BRANCH  25  27
HETATM   27  C   UNL     1      44.130 -19.603   3.966  1.00  0.00    -0.006 A 
HETATM   28  C   UNL     1      43.425 -19.295   2.792  1.00  0.00     0.014 A 
HETATM   29  C   UNL     1      43.313 -20.231   1.761  1.00  0.00     0.001 A 
HETATM   30  C   UNL     1      43.897 -21.488   1.895  1.00  0.00     0.000 A 
HETATM   31  C   UNL     1      44.592 -21.811   3.058  1.00  0.00     0.001 A 
HETATM   32  C   UNL     1      44.710 -20.874   4.089  1.00  0.00     0.014 A 
ENDBRANCH  25  27
ENDBRANCH   1  21
TORSDOF 6
ENDMDL
MODEL 9
REMARK VINA RESULT:      -9.2      2.378      2.757
REMARK  6 active torsions:
REMARK  status: ('A' for Active; 'I' for Inactive)
REMARK    1  A    between atoms: C_4  and  C_5 
REMARK    2  A    between atoms: C_9  and  C_10 
REMARK       I    between atoms: C_10  and  N_11 
REMARK    3  A    between atoms: N_11  and  N_12 
REMARK       I    between atoms: N_12  and  C_13 
REMARK    4  A    between atoms: C_13  and  C_14 
REMARK    5  A    between atoms: C_14  and  O_15 
REMARK    6  A    between atoms: O_15  and  C_16 
ROOT
HETATM    1  C   UNL     1      41.785 -11.010   7.128  1.00  0.00     0.288 C 
HETATM    2  N   UNL     1      42.315 -12.291   7.157  1.00  0.00    -0.262 N 
HETATM    3  O   UNL     1      41.403 -10.496   6.077  1.00  0.00    -0.264 OA
HETATM    4  H   UNL     1      42.201 -12.850   8.002  1.00  0.00     0.190 HD
ENDROOT
BRANCH   2   5
HETATM    5  N   UNL     1      42.222 -13.047   5.968  1.00  0.00    -0.265 N 
HETATM    6  C   UNL     1      43.159 -14.047   5.791  1.00  0.00     0.260 C 
HETATM    7  O   UNL     1      44.159 -14.140   6.504  1.00  0.00    -0.269 OA
HETATM    8  H   UNL     1      41.284 -13.169   5.580  1.00  0.00     0.190 HD
BRANCH   6   9
HETATM    9  C   UNL     1      42.833 -15.045   4.685  1.00  0.00     0.280 C 
BRANCH   9  10
HETATM   10  O   UNL     1      43.499 -16.291   4.911  1.00  0.00    -0.341 OA
BRANCH  10  11
HETATM   11  C   UNL     1      43.560 -17.012   3.742  1.00  0.00     0.080 A 
HETATM   12  C   UNL     1      43.930 -18.374   3.751  1.00  0.00     0.007 A 
HETATM   13  C   UNL     1      43.998 -19.055   2.513  1.00  0.00    -0.023 A 
HETATM   14  C   UNL     1      44.237 -19.085   4.931  1.00  0.00     0.015 A 
HETATM   15  C   UNL     1      44.384 -20.406   2.485  1.00  0.00     0.012 A 
HETATM   16  C   UNL     1      43.672 -18.375   1.326  1.00  0.00     0.012 A 
HETATM   17  C   UNL     1      44.693 -21.087   3.664  1.00  0.00     0.001 A 
HETATM   18  C   UNL     1      44.614 -20.429   4.886  1.00  0.00     0.001 A 
HETATM   19  C   UNL     1      43.272 -17.039   1.351  1.00  0.00     0.004 A 
HETATM   20  C   UNL     1      43.208 -16.357   2.560  1.00  0.00     0.037 A 
ENDBRANCH  10  11
ENDBRANCH   9  10
ENDBRANCH   6   9
ENDBRANCH   2   5
BRANCH   1  21
HETATM   21  C   UNL     1      41.703 -10.355   8.407  1.00  0.00     0.121 A 
HETATM   22  N   UNL     1      41.080  -9.168   8.670  1.00  0.00    -0.272 N 
HETATM   23  N   UNL     1      41.120  -8.796   9.956  1.00  0.00    -0.174 NA
HETATM   24  H   UNL     1      40.579  -8.570   8.023  1.00  0.00     0.189 HD
HETATM   25  C   UNL     1      41.788  -9.784  10.575  1.00  0.00     0.089 A 
HETATM   26  C   UNL     1      42.159 -10.784   9.638  1.00  0.00     0.071 A 
BRANCH  25  27
HETATM   27  C   UNL     1      42.036  -9.760  12.018  1.00  0.00    -0.006 A 
HETATM   28  C   UNL     1      43.256  -9.284  12.520  1.00  0.00     0.014 A 
HETATM   29  C   UNL     1      43.495  -9.243  13.895  1.00  0.00     0.001 A 
HETATM   30  C   UNL     1      42.519  -9.686  14.785  1.00  0.00     0.000 A 
HETATM   31  C   UNL     1      41.306 -10.171  14.301  1.00  0.00     0.001 A 
HETATM   32  C   UNL     1      41.064 -10.207  12.924  1.00  0.00     0.014 A 
ENDBRANCH  25  27
ENDBRANCH   1  21
TORSDOF 6
ENDMDL
MODEL 10
REMARK VINA RESULT:      -9.0      3.034      3.951
REMARK  6 active torsions:
REMARK  status: ('A' for Active; 'I' for Inactive)
REMARK    1  A    between atoms: C_4  and  C_5 
REMARK    2  A    between atoms: C_9  and  C_10 
REMARK       I    between atoms: C_10  and  N_11 
REMARK    3  A    between atoms: N_11  and  N_12 
REMARK       I    between atoms: N_12  and  C_13 
REMARK    4  A    between atoms: C_13  and  C_14 
REMARK    5  A    between atoms: C_14  and  O_15 
REMARK    6  A    between atoms: O_15  and  C_16 
ROOT
HETATM    1  C   UNL     1      41.170 -11.786   5.249  1.00  0.00     0.288 C 
HETATM    2  N   UNL     1      42.198 -11.992   4.342  1.00  0.00    -0.262 N 
HETATM    3  O   UNL     1      40.058 -12.287   5.085  1.00  0.00    -0.264 OA
HETATM    4  H   UNL     1      43.160 -11.978   4.680  1.00  0.00     0.190 HD
ENDROOT
BRANCH   2   5
HETATM    5  N   UNL     1      41.973 -12.949   3.328  1.00  0.00    -0.265 N 
HETATM    6  C   UNL     1      43.004 -13.831   3.064  1.00  0.00     0.260 C 
HETATM    7  O   UNL     1      44.138 -13.664   3.515  1.00  0.00    -0.269 OA
HETATM    8  H   UNL     1      41.008 -13.260   3.203  1.00  0.00     0.190 HD
BRANCH   6   9
HETATM    9  C   UNL     1      42.615 -15.040   2.221  1.00  0.00     0.280 C 
BRANCH   9  10
HETATM   10  O   UNL     1      41.921 -16.009   3.011  1.00  0.00    -0.341 OA
BRANCH  10  11
HETATM   11  C   UNL     1      42.648 -17.174   3.075  1.00  0.00     0.080 A 
HETATM   12  C   UNL     1      43.408 -17.491   4.221  1.00  0.00     0.007 A 
HETATM   13  C   UNL     1      44.154 -18.693   4.217  1.00  0.00    -0.023 A 
HETATM   14  C   UNL     1      43.460 -16.667   5.366  1.00  0.00     0.015 A 
HETATM   15  C   UNL     1      44.938 -19.026   5.334  1.00  0.00     0.012 A 
HETATM   16  C   UNL     1      44.098 -19.542   3.098  1.00  0.00     0.012 A 
HETATM   17  C   UNL     1      44.983 -18.191   6.452  1.00  0.00     0.001 A 
HETATM   18  C   UNL     1      44.241 -17.016   6.470  1.00  0.00     0.001 A 
HETATM   19  C   UNL     1      43.307 -19.223   1.993  1.00  0.00     0.004 A 
HETATM   20  C   UNL     1      42.576 -18.042   1.983  1.00  0.00     0.037 A 
ENDBRANCH  10  11
ENDBRANCH   9  10
ENDBRANCH   6   9
ENDBRANCH   2   5
BRANCH   1  21
HETATM   21  C   UNL     1      41.513 -10.971   6.385  1.00  0.00     0.121 A 
HETATM   22  N   UNL     1      41.367  -9.617   6.483  1.00  0.00    -0.272 N 
HETATM   23  N   UNL     1      41.732  -9.107   7.666  1.00  0.00    -0.174 NA
HETATM   24  H   UNL     1      40.997  -8.978   5.789  1.00  0.00     0.189 HD
HETATM   25  C   UNL     1      42.124 -10.169   8.389  1.00  0.00     0.089 A 
HETATM   26  C   UNL     1      41.990 -11.357   7.623  1.00  0.00     0.071 A 
BRANCH  25  27
HETATM   27  C   UNL     1      42.592 -10.033   9.770  1.00  0.00    -0.006 A 
HETATM   28  C   UNL     1      41.901  -9.213  10.675  1.00  0.00     0.014 A 
HETATM   29  C   UNL     1      42.330  -9.091  11.998  1.00  0.00     0.001 A 
HETATM   30  C   UNL     1      43.461  -9.780  12.430  1.00  0.00     0.000 A 
HETATM   31  C   UNL     1      44.163 -10.591  11.540  1.00  0.00     0.001 A 
HETATM   32  C   UNL     1      43.731 -10.718  10.216  1.00  0.00     0.014 A 
ENDBRANCH  25  27
ENDBRANCH   1  21
TORSDOF 6
ENDMDL
