MODEL 1
REMARK VINA RESULT:      -8.0      0.000      0.000
REMARK  6 active torsions:
REMARK  status: ('A' for Active; 'I' for Inactive)
REMARK    1  A    between atoms: C_2  and  C_3 
REMARK    2  A    between atoms: C_7  and  C_8 
REMARK       I    between atoms: C_8  and  N_9 
REMARK    3  A    between atoms: N_9  and  C_10 
REMARK    4  A    between atoms: C_10  and  C_11 
REMARK    5  A    between atoms: C_10  and  C_19 
REMARK    6  A    between atoms: C_14  and  O_15 
ROOT
HETATM    1  C   UNL     1      44.244 -14.297   6.536  1.00  0.00     0.151 C 
ENDROOT
BRANCH   1   2
HETATM    2  N   UNL     1      43.960 -13.610   7.784  1.00  0.00    -0.343 N 
HETATM    3  C   UNL     1      44.899 -12.852   8.433  1.00  0.00     0.270 C 
HETATM    4  O   UNL     1      46.054 -12.728   8.036  1.00  0.00    -0.266 OA
HETATM    5  H   UNL     1      43.110 -13.856   8.265  1.00  0.00     0.163 HD
BRANCH   3   6
HETATM    6  C   UNL     1      44.420 -12.180   9.610  1.00  0.00     0.119 A 
HETATM    7  N   UNL     1      44.038 -12.869  10.729  1.00  0.00    -0.273 N 
HETATM    8  N   UNL     1      43.682 -12.087  11.762  1.00  0.00    -0.179 NA
HETATM    9  H   UNL     1      44.021 -13.878  10.846  1.00  0.00     0.189 HD
HETATM   10  C   UNL     1      43.848 -10.845  11.298  1.00  0.00     0.056 A 
HETATM   11  C   UNL     1      44.282 -10.847   9.951  1.00  0.00     0.065 A 
BRANCH  10  12
HETATM   12  C   UNL     1      43.610  -9.666  12.180  1.00  0.00     0.056 C 
HETATM   13  C   UNL     1      43.021 -10.068  13.525  1.00  0.00     0.011 C 
ENDBRANCH  10  12
ENDBRANCH   3   6
ENDBRANCH   1   2
BRANCH   1  14
HETATM   14  C   UNL     1      44.068 -15.798   6.748  1.00  0.00    -0.031 A 
HETATM   15  C   UNL     1      45.120 -16.702   6.538  1.00  0.00     0.012 A 
HETATM   16  C   UNL     1      44.938 -18.068   6.772  1.00  0.00     0.037 A 
HETATM   17  C   UNL     1      43.708 -18.560   7.215  1.00  0.00     0.068 A 
HETATM   18  C   UNL     1      42.647 -17.673   7.396  1.00  0.00     0.037 A 
HETATM   19  C   UNL     1      42.825 -16.305   7.161  1.00  0.00     0.012 A 
BRANCH  17  20
HETATM   20  O   UNL     1      43.671 -19.911   7.424  1.00  0.00    -0.356 OA
HETATM   21  C   UNL     1      44.002 -20.738   6.316  1.00  0.00     0.210 C 
ENDBRANCH  17  20
ENDBRANCH   1  14
BRANCH   1  22
HETATM   22  C   UNL     1      43.426 -13.728   5.370  1.00  0.00    -0.031 A 
HETATM   23  C   UNL     1      43.714 -14.049   4.032  1.00  0.00     0.009 A 
HETATM   24  C   UNL     1      42.936 -13.544   2.985  1.00  0.00     0.001 A 
HETATM   25  C   UNL     1      41.844 -12.727   3.258  1.00  0.00     0.000 A 
HETATM   26  C   UNL     1      41.518 -12.424   4.577  1.00  0.00     0.001 A 
HETATM   27  C   UNL     1      42.296 -12.927   5.623  1.00  0.00     0.009 A 
ENDBRANCH   1  22
TORSDOF 6
ENDMDL
MODEL 2
REMARK VINA RESULT:      -7.8      3.818      6.637
REMARK  6 active torsions:
REMARK  status: ('A' for Active; 'I' for Inactive)
REMARK    1  A    between atoms: C_2  and  C_3 
REMARK    2  A    between atoms: C_7  and  C_8 
REMARK       I    between atoms: C_8  and  N_9 
REMARK    3  A    between atoms: N_9  and  C_10 
REMARK    4  A    between atoms: C_10  and  C_11 
REMARK    5  A    between atoms: C_10  and  C_19 
REMARK    6  A    between atoms: C_14  and  O_15 
ROOT
HETATM    1  C   UNL     1      42.360 -17.500   3.730  1.00  0.00     0.151 C 
ENDROOT
BRANCH   1   2
HETATM    2  N   UNL     1      43.122 -16.581   4.557  1.00  0.00    -0.343 N 
HETATM    3  C   UNL     1      42.542 -15.831   5.546  1.00  0.00     0.270 C 
HETATM    4  O   UNL     1      41.337 -15.847   5.781  1.00  0.00    -0.266 OA
HETATM    5  H   UNL     1      44.061 -16.363   4.263  1.00  0.00     0.163 HD
BRANCH   3   6
HETATM    6  C   UNL     1      43.460 -15.037   6.316  1.00  0.00     0.119 A 
HETATM    7  N   UNL     1      43.603 -15.207   7.667  1.00  0.00    -0.273 N 
HETATM    8  N   UNL     1      44.551 -14.433   8.221  1.00  0.00    -0.179 NA
HETATM    9  H   UNL     1      43.090 -15.856   8.256  1.00  0.00     0.189 HD
HETATM   10  C   UNL     1      45.046 -13.741   7.189  1.00  0.00     0.056 A 
HETATM   11  C   UNL     1      44.381 -14.062   5.982  1.00  0.00     0.065 A 
BRANCH  10  12
HETATM   12  C   UNL     1      46.182 -12.795   7.384  1.00  0.00     0.056 C 
HETATM   13  C   UNL     1      46.056 -12.010   8.682  1.00  0.00     0.011 C 
ENDBRANCH  10  12
ENDBRANCH   3   6
ENDBRANCH   1   2
BRANCH   1  14
HETATM   14  C   UNL     1      41.785 -16.734   2.542  1.00  0.00    -0.031 A 
HETATM   15  C   UNL     1      40.407 -16.513   2.404  1.00  0.00     0.012 A 
HETATM   16  C   UNL     1      39.912 -15.779   1.322  1.00  0.00     0.037 A 
HETATM   17  C   UNL     1      40.776 -15.256   0.358  1.00  0.00     0.068 A 
HETATM   18  C   UNL     1      42.145 -15.497   0.470  1.00  0.00     0.037 A 
HETATM   19  C   UNL     1      42.644 -16.234   1.550  1.00  0.00     0.012 A 
BRANCH  17  20
HETATM   20  O   UNL     1      40.165 -14.543  -0.636  1.00  0.00    -0.356 OA
HETATM   21  C   UNL     1      41.015 -13.905  -1.580  1.00  0.00     0.210 C 
ENDBRANCH  17  20
ENDBRANCH   1  14
BRANCH   1  22
HETATM   22  C   UNL     1      43.181 -18.735   3.341  1.00  0.00    -0.031 A 
HETATM   23  C   UNL     1      44.198 -19.245   4.168  1.00  0.00     0.009 A 
HETATM   24  C   UNL     1      44.915 -20.391   3.809  1.00  0.00     0.001 A 
HETATM   25  C   UNL     1      44.615 -21.060   2.627  1.00  0.00     0.000 A 
HETATM   26  C   UNL     1      43.589 -20.595   1.809  1.00  0.00     0.001 A 
HETATM   27  C   UNL     1      42.873 -19.449   2.167  1.00  0.00     0.009 A 
ENDBRANCH   1  22
TORSDOF 6
ENDMDL
MODEL 3
REMARK VINA RESULT:      -7.5      5.302      8.559
REMARK  6 active torsions:
REMARK  status: ('A' for Active; 'I' for Inactive)
REMARK    1  A    between atoms: C_2  and  C_3 
REMARK    2  A    between atoms: C_7  and  C_8 
REMARK       I    between atoms: C_8  and  N_9 
REMARK    3  A    between atoms: N_9  and  C_10 
REMARK    4  A    between atoms: C_10  and  C_11 
REMARK    5  A    between atoms: C_10  and  C_19 
REMARK    6  A    between atoms: C_14  and  O_15 
ROOT
HETATM    1  C   UNL     1      41.693 -16.708   2.898  1.00  0.00     0.151 C 
ENDROOT
BRANCH   1   2
HETATM    2  N   UNL     1      41.738 -16.296   1.506  1.00  0.00    -0.343 N 
HETATM    3  C   UNL     1      40.717 -15.600   0.914  1.00  0.00     0.270 C 
HETATM    4  O   UNL     1      39.676 -15.310   1.497  1.00  0.00    -0.266 OA
HETATM    5  H   UNL     1      42.458 -16.698   0.927  1.00  0.00     0.163 HD
BRANCH   3   6
HETATM    6  C   UNL     1      40.966 -15.205  -0.445  1.00  0.00     0.119 A 
HETATM    7  N   UNL     1      40.772 -16.064  -1.493  1.00  0.00    -0.273 N 
HETATM    8  N   UNL     1      40.985 -15.515  -2.701  1.00  0.00    -0.179 NA
HETATM    9  H   UNL     1      40.473 -17.033  -1.438  1.00  0.00     0.189 HD
HETATM   10  C   UNL     1      41.323 -14.251  -2.425  1.00  0.00     0.056 A 
HETATM   11  C   UNL     1      41.351 -14.013  -1.031  1.00  0.00     0.065 A 
BRANCH  10  12
HETATM   12  C   UNL     1      41.585 -13.278  -3.524  1.00  0.00     0.056 C 
HETATM   13  C   UNL     1      42.487 -12.137  -3.075  1.00  0.00     0.011 C 
ENDBRANCH  10  12
ENDBRANCH   3   6
ENDBRANCH   1   2
BRANCH   1  14
HETATM   14  C   UNL     1      42.615 -17.910   3.086  1.00  0.00    -0.031 A 
HETATM   15  C   UNL     1      43.192 -18.209   4.329  1.00  0.00     0.012 A 
HETATM   16  C   UNL     1      44.006 -19.335   4.480  1.00  0.00     0.037 A 
HETATM   17  C   UNL     1      44.265 -20.180   3.399  1.00  0.00     0.068 A 
HETATM   18  C   UNL     1      43.721 -19.873   2.152  1.00  0.00     0.037 A 
HETATM   19  C   UNL     1      42.907 -18.745   1.996  1.00  0.00     0.012 A 
BRANCH  17  20
HETATM   20  O   UNL     1      45.059 -21.255   3.687  1.00  0.00    -0.356 OA
HETATM   21  C   UNL     1      44.894 -21.845   4.970  1.00  0.00     0.210 C 
ENDBRANCH  17  20
ENDBRANCH   1  14
BRANCH   1  22
HETATM   22  C   UNL     1      41.981 -15.541   3.850  1.00  0.00    -0.031 A 
HETATM   23  C   UNL     1      43.111 -14.718   3.699  1.00  0.00     0.009 A 
HETATM   24  C   UNL     1      43.341 -13.640   4.559  1.00  0.00     0.001 A 
HETATM   25  C   UNL     1      42.434 -13.352   5.574  1.00  0.00     0.000 A 
HETATM   26  C   UNL     1      41.290 -14.132   5.723  1.00  0.00     0.001 A 
HETATM   27  C   UNL     1      41.061 -15.210   4.863  1.00  0.00     0.009 A 
ENDBRANCH   1  22
TORSDOF 6
ENDMDL
MODEL 4
REMARK VINA RESULT:      -7.0      7.805     10.618
REMARK  6 active torsions:
REMARK  status: ('A' for Active; 'I' for Inactive)
REMARK    1  A    between atoms: C_2  and  C_3 
REMARK    2  A    between atoms: C_7  and  C_8 
REMARK       I    between atoms: C_8  and  N_9 
REMARK    3  A    between atoms: N_9  and  C_10 
REMARK    4  A    between atoms: C_10  and  C_11 
REMARK    5  A    between atoms: C_10  and  C_19 
REMARK    6  A    between atoms: C_14  and  O_15 
ROOT
HETATM    1  C   UNL     1      40.737 -14.228  -0.799  1.00  0.00     0.151 C 
ENDROOT
BRANCH   1   2
HETATM    2  N   UNL     1      41.602 -15.284  -0.306  1.00  0.00    -0.343 N 
HETATM    3  C   UNL     1      41.336 -15.968   0.852  1.00  0.00     0.270 C 
HETATM    4  O   UNL     1      40.378 -15.715   1.576  1.00  0.00    -0.266 OA
HETATM    5  H   UNL     1      42.508 -15.379  -0.735  1.00  0.00     0.163 HD
BRANCH   3   6
HETATM    6  C   UNL     1      42.255 -17.034   1.146  1.00  0.00     0.119 A 
HETATM    7  N   UNL     1      43.610 -16.840   1.143  1.00  0.00    -0.273 N 
HETATM    8  N   UNL     1      44.321 -17.921   1.506  1.00  0.00    -0.179 NA
HETATM    9  H   UNL     1      44.100 -15.979   0.920  1.00  0.00     0.189 HD
HETATM   10  C   UNL     1      43.391 -18.847   1.760  1.00  0.00     0.056 A 
HETATM   11  C   UNL     1      42.087 -18.352   1.526  1.00  0.00     0.065 A 
BRANCH  10  12
HETATM   12  C   UNL     1      43.782 -20.197   2.259  1.00  0.00     0.056 C 
HETATM   13  C   UNL     1      44.690 -20.117   3.477  1.00  0.00     0.011 C 
ENDBRANCH  10  12
ENDBRANCH   3   6
ENDBRANCH   1   2
BRANCH   1  14
HETATM   14  C   UNL     1      41.580 -12.983  -1.065  1.00  0.00    -0.031 A 
HETATM   15  C   UNL     1      42.100 -12.702  -2.337  1.00  0.00     0.012 A 
HETATM   16  C   UNL     1      42.841 -11.538  -2.559  1.00  0.00     0.037 A 
HETATM   17  C   UNL     1      43.082 -10.637  -1.520  1.00  0.00     0.068 A 
HETATM   18  C   UNL     1      42.596 -10.923  -0.245  1.00  0.00     0.037 A 
HETATM   19  C   UNL     1      41.856 -12.089  -0.019  1.00  0.00     0.012 A 
BRANCH  17  20
HETATM   20  O   UNL     1      43.802  -9.530  -1.876  1.00  0.00    -0.356 OA
HETATM   21  C   UNL     1      43.230  -8.267  -1.560  1.00  0.00     0.210 C 
ENDBRANCH  17  20
ENDBRANCH   1  14
BRANCH   1  22
HETATM   22  C   UNL     1      39.901 -14.687  -2.001  1.00  0.00    -0.031 A 
HETATM   23  C   UNL     1      40.325 -15.724  -2.851  1.00  0.00     0.009 A 
HETATM   24  C   UNL     1      39.534 -16.149  -3.923  1.00  0.00     0.001 A 
HETATM   25  C   UNL     1      38.296 -15.558  -4.153  1.00  0.00     0.000 A 
HETATM   26  C   UNL     1      37.840 -14.552  -3.306  1.00  0.00     0.001 A 
HETATM   27  C   UNL     1      38.630 -14.127  -2.234  1.00  0.00     0.009 A 
ENDBRANCH   1  22
TORSDOF 6
ENDMDL
MODEL 5
REMARK VINA RESULT:      -7.0      4.537      7.783
REMARK  6 active torsions:
REMARK  status: ('A' for Active; 'I' for Inactive)
REMARK    1  A    between atoms: C_2  and  C_3 
REMARK    2  A    between atoms: C_7  and  C_8 
REMARK       I    between atoms: C_8  and  N_9 
REMARK    3  A    between atoms: N_9  and  C_10 
REMARK    4  A    between atoms: C_10  and  C_11 
REMARK    5  A    between atoms: C_10  and  C_19 
REMARK    6  A    between atoms: C_14  and  O_15 
ROOT
HETATM    1  C   UNL     1      42.524 -16.250   3.879  1.00  0.00     0.151 C 
ENDROOT
BRANCH   1   2
HETATM    2  N   UNL     1      42.579 -15.357   2.735  1.00  0.00    -0.343 N 
HETATM    3  C   UNL     1      41.453 -14.812   2.176  1.00  0.00     0.270 C 
HETATM    4  O   UNL     1      40.318 -15.067   2.568  1.00  0.00    -0.266 OA
HETATM    5  H   UNL     1      43.453 -15.293   2.239  1.00  0.00     0.163 HD
BRANCH   3   6
HETATM    6  C   UNL     1      41.701 -13.888   1.103  1.00  0.00     0.119 A 
HETATM    7  N   UNL     1      42.170 -12.623   1.334  1.00  0.00    -0.273 N 
HETATM    8  N   UNL     1      42.411 -11.915   0.218  1.00  0.00    -0.179 NA
HETATM    9  H   UNL     1      42.361 -12.201   2.237  1.00  0.00     0.189 HD
HETATM   10  C   UNL     1      42.095 -12.754  -0.772  1.00  0.00     0.056 A 
HETATM   11  C   UNL     1      41.621 -13.991  -0.273  1.00  0.00     0.065 A 
BRANCH  10  12
HETATM   12  C   UNL     1      42.285 -12.356  -2.196  1.00  0.00     0.056 C 
HETATM   13  C   UNL     1      41.750 -13.405  -3.161  1.00  0.00     0.011 C 
ENDBRANCH  10  12
ENDBRANCH   3   6
ENDBRANCH   1   2
BRANCH   1  14
HETATM   14  C   UNL     1      43.130 -17.595   3.484  1.00  0.00    -0.031 A 
HETATM   15  C   UNL     1      43.869 -18.366   4.393  1.00  0.00     0.012 A 
HETATM   16  C   UNL     1      44.384 -19.608   4.014  1.00  0.00     0.037 A 
HETATM   17  C   UNL     1      44.177 -20.104   2.724  1.00  0.00     0.068 A 
HETATM   18  C   UNL     1      43.470 -19.331   1.805  1.00  0.00     0.037 A 
HETATM   19  C   UNL     1      42.955 -18.085   2.180  1.00  0.00     0.012 A 
BRANCH  17  20
HETATM   20  O   UNL     1      44.716 -21.339   2.490  1.00  0.00    -0.356 OA
HETATM   21  C   UNL     1      44.112 -22.115   1.463  1.00  0.00     0.210 C 
ENDBRANCH  17  20
ENDBRANCH   1  14
BRANCH   1  22
HETATM   22  C   UNL     1      43.155 -15.621   5.128  1.00  0.00    -0.031 A 
HETATM   23  C   UNL     1      43.158 -16.277   6.372  1.00  0.00     0.009 A 
HETATM   24  C   UNL     1      43.765 -15.700   7.491  1.00  0.00     0.001 A 
HETATM   25  C   UNL     1      44.399 -14.466   7.383  1.00  0.00     0.000 A 
HETATM   26  C   UNL     1      44.439 -13.813   6.154  1.00  0.00     0.001 A 
HETATM   27  C   UNL     1      43.831 -14.390   5.035  1.00  0.00     0.009 A 
ENDBRANCH   1  22
TORSDOF 6
ENDMDL
MODEL 6
REMARK VINA RESULT:      -7.0      5.300      9.486
REMARK  6 active torsions:
REMARK  status: ('A' for Active; 'I' for Inactive)
REMARK    1  A    between atoms: C_2  and  C_3 
REMARK    2  A    between atoms: C_7  and  C_8 
REMARK       I    between atoms: C_8  and  N_9 
REMARK    3  A    between atoms: N_9  and  C_10 
REMARK    4  A    between atoms: C_10  and  C_11 
REMARK    5  A    between atoms: C_10  and  C_19 
REMARK    6  A    between atoms: C_14  and  O_15 
ROOT
HETATM    1  C   UNL     1      42.834 -15.229   2.502  1.00  0.00     0.151 C 
ENDROOT
BRANCH   1   2
HETATM    2  N   UNL     1      42.111 -15.133   1.247  1.00  0.00    -0.343 N 
HETATM    3  C   UNL     1      41.990 -13.955   0.559  1.00  0.00     0.270 C 
HETATM    4  O   UNL     1      42.445 -12.890   0.966  1.00  0.00    -0.266 OA
HETATM    5  H   UNL     1      41.534 -15.916   0.984  1.00  0.00     0.163 HD
BRANCH   3   6
HETATM    6  C   UNL     1      41.310 -14.061  -0.703  1.00  0.00     0.119 A 
HETATM    7  N   UNL     1      41.983 -13.997  -1.893  1.00  0.00    -0.273 N 
HETATM    8  N   UNL     1      41.207 -14.183  -2.974  1.00  0.00    -0.179 NA
HETATM    9  H   UNL     1      42.979 -13.847  -2.021  1.00  0.00     0.189 HD
HETATM   10  C   UNL     1      39.987 -14.383  -2.465  1.00  0.00     0.056 A 
HETATM   11  C   UNL     1      39.992 -14.291  -1.053  1.00  0.00     0.065 A 
BRANCH  10  12
HETATM   12  C   UNL     1      38.833 -14.692  -3.357  1.00  0.00     0.056 C 
HETATM   13  C   UNL     1      39.020 -16.007  -4.100  1.00  0.00     0.011 C 
ENDBRANCH  10  12
ENDBRANCH   3   6
ENDBRANCH   1   2
BRANCH   1  14
HETATM   14  C   UNL     1      41.974 -14.634   3.614  1.00  0.00    -0.031 A 
HETATM   15  C   UNL     1      42.467 -13.645   4.479  1.00  0.00     0.012 A 
HETATM   16  C   UNL     1      41.646 -13.094   5.467  1.00  0.00     0.037 A 
HETATM   17  C   UNL     1      40.324 -13.519   5.616  1.00  0.00     0.068 A 
HETATM   18  C   UNL     1      39.835 -14.524   4.781  1.00  0.00     0.037 A 
HETATM   19  C   UNL     1      40.655 -15.079   3.793  1.00  0.00     0.012 A 
BRANCH  17  20
HETATM   20  O   UNL     1      39.625 -12.886   6.606  1.00  0.00    -0.356 OA
HETATM   21  C   UNL     1      40.003 -11.546   6.898  1.00  0.00     0.210 C 
ENDBRANCH  17  20
ENDBRANCH   1  14
BRANCH   1  22
HETATM   22  C   UNL     1      43.313 -16.660   2.779  1.00  0.00    -0.031 A 
HETATM   23  C   UNL     1      43.476 -17.151   4.087  1.00  0.00     0.009 A 
HETATM   24  C   UNL     1      43.884 -18.469   4.318  1.00  0.00     0.001 A 
HETATM   25  C   UNL     1      44.117 -19.325   3.246  1.00  0.00     0.000 A 
HETATM   26  C   UNL     1      43.930 -18.872   1.944  1.00  0.00     0.001 A 
HETATM   27  C   UNL     1      43.522 -17.555   1.712  1.00  0.00     0.009 A 
ENDBRANCH   1  22
TORSDOF 6
ENDMDL
MODEL 7
REMARK VINA RESULT:      -6.9      4.631      8.405
REMARK  6 active torsions:
REMARK  status: ('A' for Active; 'I' for Inactive)
REMARK    1  A    between atoms: C_2  and  C_3 
REMARK    2  A    between atoms: C_7  and  C_8 
REMARK       I    between atoms: C_8  and  N_9 
REMARK    3  A    between atoms: N_9  and  C_10 
REMARK    4  A    between atoms: C_10  and  C_11 
REMARK    5  A    between atoms: C_10  and  C_19 
REMARK    6  A    between atoms: C_14  and  O_15 
ROOT
HETATM    1  C   UNL     1      40.334 -15.457   3.041  1.00  0.00     0.151 C 
ENDROOT
BRANCH   1   2
HETATM    2  N   UNL     1      41.427 -16.412   3.030  1.00  0.00    -0.343 N 
HETATM    3  C   UNL     1      41.552 -17.395   3.976  1.00  0.00     0.270 C 
HETATM    4  O   UNL     1      40.780 -17.518   4.922  1.00  0.00    -0.266 OA
HETATM    5  H   UNL     1      42.203 -16.221   2.416  1.00  0.00     0.163 HD
BRANCH   3   6
HETATM    6  C   UNL     1      42.649 -18.300   3.764  1.00  0.00     0.119 A 
HETATM    7  N   UNL     1      43.602 -18.516   4.722  1.00  0.00    -0.273 N 
HETATM    8  N   UNL     1      44.517 -19.441   4.389  1.00  0.00    -0.179 NA
HETATM    9  H   UNL     1      43.661 -18.070   5.632  1.00  0.00     0.189 HD
HETATM   10  C   UNL     1      44.138 -19.845   3.172  1.00  0.00     0.056 A 
HETATM   11  C   UNL     1      42.993 -19.145   2.725  1.00  0.00     0.065 A 
BRANCH  10  12
HETATM   12  C   UNL     1      44.878 -20.932   2.468  1.00  0.00     0.056 C 
HETATM   13  C   UNL     1      43.951 -21.814   1.644  1.00  0.00     0.011 C 
ENDBRANCH  10  12
ENDBRANCH   3   6
ENDBRANCH   1   2
BRANCH   1  14
HETATM   14  C   UNL     1      40.659 -14.346   4.036  1.00  0.00    -0.031 A 
HETATM   15  C   UNL     1      39.839 -14.083   5.143  1.00  0.00     0.012 A 
HETATM   16  C   UNL     1      40.180 -13.081   6.056  1.00  0.00     0.037 A 
HETATM   17  C   UNL     1      41.338 -12.320   5.882  1.00  0.00     0.068 A 
HETATM   18  C   UNL     1      42.144 -12.553   4.768  1.00  0.00     0.037 A 
HETATM   19  C   UNL     1      41.804 -13.554   3.850  1.00  0.00     0.012 A 
BRANCH  17  20
HETATM   20  O   UNL     1      41.565 -11.388   6.856  1.00  0.00    -0.356 OA
HETATM   21  C   UNL     1      40.618 -10.333   6.963  1.00  0.00     0.210 C 
ENDBRANCH  17  20
ENDBRANCH   1  14
BRANCH   1  22
HETATM   22  C   UNL     1      39.996 -14.956   1.631  1.00  0.00    -0.031 A 
HETATM   23  C   UNL     1      40.876 -15.130   0.548  1.00  0.00     0.009 A 
HETATM   24  C   UNL     1      40.537 -14.694  -0.736  1.00  0.00     0.001 A 
HETATM   25  C   UNL     1      39.303 -14.095  -0.965  1.00  0.00     0.000 A 
HETATM   26  C   UNL     1      38.401 -13.942   0.084  1.00  0.00     0.001 A 
HETATM   27  C   UNL     1      38.740 -14.378   1.368  1.00  0.00     0.009 A 
ENDBRANCH   1  22
TORSDOF 6
ENDMDL
MODEL 8
REMARK VINA RESULT:      -6.7      5.304      8.662
REMARK  6 active torsions:
REMARK  status: ('A' for Active; 'I' for Inactive)
REMARK    1  A    between atoms: C_2  and  C_3 
REMARK    2  A    between atoms: C_7  and  C_8 
REMARK       I    between atoms: C_8  and  N_9 
REMARK    3  A    between atoms: N_9  and  C_10 
REMARK    4  A    between atoms: C_10  and  C_11 
REMARK    5  A    between atoms: C_10  and  C_19 
REMARK    6  A    between atoms: C_14  and  O_15 
ROOT
HETATM    1  C   UNL     1      40.097 -14.777   2.337  1.00  0.00     0.151 C 
ENDROOT
BRANCH   1   2
HETATM    2  N   UNL     1      41.123 -15.741   2.694  1.00  0.00    -0.343 N 
HETATM    3  C   UNL     1      41.124 -17.023   2.211  1.00  0.00     0.270 C 
HETATM    4  O   UNL     1      40.245 -17.465   1.478  1.00  0.00    -0.266 OA
HETATM    5  H   UNL     1      41.734 -15.504   3.459  1.00  0.00     0.163 HD
BRANCH   3   6
HETATM    6  C   UNL     1      42.258 -17.813   2.606  1.00  0.00     0.119 A 
HETATM    7  N   UNL     1      42.931 -17.578   3.774  1.00  0.00    -0.273 N 
HETATM    8  N   UNL     1      43.921 -18.450   4.024  1.00  0.00    -0.179 NA
HETATM    9  H   UNL     1      42.739 -16.843   4.449  1.00  0.00     0.189 HD
HETATM   10  C   UNL     1      43.884 -19.287   2.982  1.00  0.00     0.056 A 
HETATM   11  C   UNL     1      42.881 -18.918   2.055  1.00  0.00     0.065 A 
BRANCH  10  12
HETATM   12  C   UNL     1      44.807 -20.456   2.914  1.00  0.00     0.056 C 
HETATM   13  C   UNL     1      44.227 -21.595   2.087  1.00  0.00     0.011 C 
ENDBRANCH  10  12
ENDBRANCH   3   6
ENDBRANCH   1   2
BRANCH   1  14
HETATM   14  C   UNL     1      39.848 -13.856   3.529  1.00  0.00    -0.031 A 
HETATM   15  C   UNL     1      39.307 -12.572   3.368  1.00  0.00     0.012 A 
HETATM   16  C   UNL     1      39.060 -11.763   4.481  1.00  0.00     0.037 A 
HETATM   17  C   UNL     1      39.349 -12.215   5.771  1.00  0.00     0.068 A 
HETATM   18  C   UNL     1      39.916 -13.478   5.938  1.00  0.00     0.037 A 
HETATM   19  C   UNL     1      40.168 -14.289   4.826  1.00  0.00     0.012 A 
BRANCH  17  20
HETATM   20  O   UNL     1      39.040 -11.334   6.770  1.00  0.00    -0.356 OA
HETATM   21  C   UNL     1      39.397 -11.717   8.092  1.00  0.00     0.210 C 
ENDBRANCH  17  20
ENDBRANCH   1  14
BRANCH   1  22
HETATM   22  C   UNL     1      40.433 -14.040   1.035  1.00  0.00    -0.031 A 
HETATM   23  C   UNL     1      39.502 -13.914  -0.012  1.00  0.00     0.009 A 
HETATM   24  C   UNL     1      39.817 -13.211  -1.179  1.00  0.00     0.001 A 
HETATM   25  C   UNL     1      41.062 -12.604  -1.313  1.00  0.00     0.000 A 
HETATM   26  C   UNL     1      41.988 -12.685  -0.276  1.00  0.00     0.001 A 
HETATM   27  C   UNL     1      41.673 -13.389   0.890  1.00  0.00     0.009 A 
ENDBRANCH   1  22
TORSDOF 6
ENDMDL
MODEL 9
REMARK VINA RESULT:      -6.7      5.648      9.287
REMARK  6 active torsions:
REMARK  status: ('A' for Active; 'I' for Inactive)
REMARK    1  A    between atoms: C_2  and  C_3 
REMARK    2  A    between atoms: C_7  and  C_8 
REMARK       I    between atoms: C_8  and  N_9 
REMARK    3  A    between atoms: N_9  and  C_10 
REMARK    4  A    between atoms: C_10  and  C_11 
REMARK    5  A    between atoms: C_10  and  C_19 
REMARK    6  A    between atoms: C_14  and  O_15 
ROOT
HETATM    1  C   UNL     1      41.434 -14.484   1.913  1.00  0.00     0.151 C 
ENDROOT
BRANCH   1   2
HETATM    2  N   UNL     1      41.920 -15.851   1.970  1.00  0.00    -0.343 N 
HETATM    3  C   UNL     1      43.171 -16.166   2.430  1.00  0.00     0.270 C 
HETATM    4  O   UNL     1      43.987 -15.322   2.787  1.00  0.00    -0.266 OA
HETATM    5  H   UNL     1      41.384 -16.554   1.486  1.00  0.00     0.163 HD
BRANCH   3   6
HETATM    6  C   UNL     1      43.453 -17.575   2.492  1.00  0.00     0.119 A 
HETATM    7  N   UNL     1      43.853 -18.180   3.652  1.00  0.00    -0.273 N 
HETATM    8  N   UNL     1      44.008 -19.511   3.553  1.00  0.00    -0.179 NA
HETATM    9  H   UNL     1      44.016 -17.731   4.548  1.00  0.00     0.189 HD
HETATM   10  C   UNL     1      43.688 -19.779   2.283  1.00  0.00     0.056 A 
HETATM   11  C   UNL     1      43.360 -18.601   1.570  1.00  0.00     0.065 A 
BRANCH  10  12
HETATM   12  C   UNL     1      43.677 -21.184   1.782  1.00  0.00     0.056 C 
HETATM   13  C   UNL     1      44.418 -22.130   2.716  1.00  0.00     0.011 C 
ENDBRANCH  10  12
ENDBRANCH   3   6
ENDBRANCH   1   2
BRANCH   1  14
HETATM   14  C   UNL     1      40.472 -14.351   0.736  1.00  0.00    -0.031 A 
HETATM   15  C   UNL     1      39.091 -14.198   0.926  1.00  0.00     0.012 A 
HETATM   16  C   UNL     1      38.237 -14.045  -0.171  1.00  0.00     0.037 A 
HETATM   17  C   UNL     1      38.740 -14.046  -1.473  1.00  0.00     0.068 A 
HETATM   18  C   UNL     1      40.108 -14.228  -1.673  1.00  0.00     0.037 A 
HETATM   19  C   UNL     1      40.965 -14.384  -0.578  1.00  0.00     0.012 A 
BRANCH  17  20
HETATM   20  O   UNL     1      37.802 -13.867  -2.452  1.00  0.00    -0.356 OA
HETATM   21  C   UNL     1      37.560 -14.972  -3.314  1.00  0.00     0.210 C 
ENDBRANCH  17  20
ENDBRANCH   1  14
BRANCH   1  22
HETATM   22  C   UNL     1      40.849 -14.028   3.255  1.00  0.00    -0.031 A 
HETATM   23  C   UNL     1      40.378 -14.944   4.213  1.00  0.00     0.009 A 
HETATM   24  C   UNL     1      39.876 -14.509   5.443  1.00  0.00     0.001 A 
HETATM   25  C   UNL     1      39.856 -13.151   5.748  1.00  0.00     0.000 A 
HETATM   26  C   UNL     1      40.348 -12.228   4.830  1.00  0.00     0.001 A 
HETATM   27  C   UNL     1      40.849 -12.662   3.600  1.00  0.00     0.009 A 
ENDBRANCH   1  22
TORSDOF 6
ENDMDL
MODEL 10
REMARK VINA RESULT:      -6.4      3.803      6.178
REMARK  6 active torsions:
REMARK  status: ('A' for Active; 'I' for Inactive)
REMARK    1  A    between atoms: C_2  and  C_3 
REMARK    2  A    between atoms: C_7  and  C_8 
REMARK       I    between atoms: C_8  and  N_9 
REMARK    3  A    between atoms: N_9  and  C_10 
REMARK    4  A    between atoms: C_10  and  C_11 
REMARK    5  A    between atoms: C_10  and  C_19 
REMARK    6  A    between atoms: C_14  and  O_15 
ROOT
HETATM    1  C   UNL     1      41.802 -16.309   4.749  1.00  0.00     0.151 C 
ENDROOT
BRANCH   1   2
HETATM    2  N   UNL     1      41.686 -14.982   5.325  1.00  0.00    -0.343 N 
HETATM    3  C   UNL     1      40.475 -14.368   5.515  1.00  0.00     0.270 C 
HETATM    4  O   UNL     1      39.408 -14.871   5.178  1.00  0.00    -0.266 OA
HETATM    5  H   UNL     1      42.530 -14.438   5.410  1.00  0.00     0.163 HD
BRANCH   3   6
HETATM    6  C   UNL     1      40.544 -13.091   6.171  1.00  0.00     0.119 A 
HETATM    7  N   UNL     1      39.592 -12.688   7.068  1.00  0.00    -0.273 N 
HETATM    8  N   UNL     1      39.844 -11.499   7.640  1.00  0.00    -0.179 NA
HETATM    9  H   UNL     1      38.759 -13.200   7.342  1.00  0.00     0.189 HD
HETATM   10  C   UNL     1      41.005 -11.120   7.098  1.00  0.00     0.056 A 
HETATM   11  C   UNL     1      41.472 -12.066   6.155  1.00  0.00     0.065 A 
BRANCH  10  12
HETATM   12  C   UNL     1      41.666  -9.853   7.526  1.00  0.00     0.056 C 
HETATM   13  C   UNL     1      41.351  -8.698   6.587  1.00  0.00     0.011 C 
ENDBRANCH  10  12
ENDBRANCH   3   6
ENDBRANCH   1   2
BRANCH   1  14
HETATM   14  C   UNL     1      41.696 -16.199   3.230  1.00  0.00    -0.031 A 
HETATM   15  C   UNL     1      40.940 -17.107   2.475  1.00  0.00     0.012 A 
HETATM   16  C   UNL     1      40.835 -16.962   1.089  1.00  0.00     0.037 A 
HETATM   17  C   UNL     1      41.482 -15.914   0.429  1.00  0.00     0.068 A 
HETATM   18  C   UNL     1      42.261 -15.024   1.168  1.00  0.00     0.037 A 
HETATM   19  C   UNL     1      42.371 -15.168   2.555  1.00  0.00     0.012 A 
BRANCH  17  20
HETATM   20  O   UNL     1      41.281 -15.875  -0.923  1.00  0.00    -0.356 OA
HETATM   21  C   UNL     1      40.922 -14.617  -1.479  1.00  0.00     0.210 C 
ENDBRANCH  17  20
ENDBRANCH   1  14
BRANCH   1  22
HETATM   22  C   UNL     1      43.060 -17.038   5.238  1.00  0.00    -0.031 A 
HETATM   23  C   UNL     1      43.815 -16.570   6.328  1.00  0.00     0.009 A 
HETATM   24  C   UNL     1      44.942 -17.265   6.778  1.00  0.00     0.001 A 
HETATM   25  C   UNL     1      45.322 -18.452   6.160  1.00  0.00     0.000 A 
HETATM   26  C   UNL     1      44.570 -18.953   5.101  1.00  0.00     0.001 A 
HETATM   27  C   UNL     1      43.445 -18.258   4.651  1.00  0.00     0.009 A 
ENDBRANCH   1  22
TORSDOF 6
ENDMDL
