MODEL 1
REMARK VINA RESULT:      -8.7      0.000      0.000
REMARK  3 active torsions:
REMARK  status: ('A' for Active; 'I' for Inactive)
REMARK    1  A    between atoms: C_3  and  N_4 
REMARK       I    between atoms: N_4  and  C_5 
REMARK    2  A    between atoms: C_5  and  C_6 
REMARK    3  A    between atoms: C_7  and  C_8 
ROOT
HETATM    1  C   UNL     1      42.188 -15.724   2.882  1.00  0.00     0.063 A 
HETATM    2  C   UNL     1      42.379 -14.832   4.103  1.00  0.00     0.216 A 
HETATM    3  N   UNL     1      41.246 -13.934   4.293  1.00  0.00    -0.091 N 
HETATM    4  C   UNL     1      40.194 -13.825   3.428  1.00  0.00     0.735 A 
HETATM    5  N   UNL     1      40.148 -14.626   2.346  1.00  0.00    -0.191 N 
HETATM    6  N   UNL     1      41.150 -13.003   5.256  1.00  0.00     0.012 NA
HETATM    7  N   UNL     1      40.003 -12.380   5.004  1.00  0.00     0.033 NA
HETATM    8  N   UNL     1      39.400 -12.880   3.866  1.00  0.00     0.030 NA
HETATM    9  C   UNL     1      41.110 -15.593   2.070  1.00  0.00     0.037 A 
HETATM   10  C   UNL     1      40.863 -16.428   0.837  1.00  0.00     0.070 C 
HETATM   11  H   UNL     1      39.349 -14.565   1.719  1.00  0.00     0.184 HD
ENDROOT
BRANCH   1  12
HETATM   12  C   UNL     1      43.155 -16.841   2.682  1.00  0.00     0.256 C 
HETATM   13  N   UNL     1      42.652 -18.075   3.029  1.00  0.00    -0.323 N 
HETATM   14  H   UNL     1      41.705 -18.112   3.372  1.00  0.00     0.169 HD
HETATM   15  O   UNL     1      44.271 -16.582   2.246  1.00  0.00    -0.267 OA
BRANCH  13  16
HETATM   16  C   UNL     1      43.296 -19.333   2.912  1.00  0.00     0.041 A 
HETATM   17  C   UNL     1      44.225 -19.716   3.907  1.00  0.00    -0.035 A 
HETATM   18  C   UNL     1      44.554 -18.841   5.087  1.00  0.00     0.050 C 
HETATM   19  C   UNL     1      44.867 -20.964   3.810  1.00  0.00     0.009 A 
HETATM   20  C   UNL     1      44.600 -21.826   2.748  1.00  0.00     0.001 A 
HETATM   21  C   UNL     1      43.688 -21.450   1.772  1.00  0.00     0.002 A 
HETATM   22  C   UNL     1      43.041 -20.213   1.854  1.00  0.00     0.030 A 
ENDBRANCH  13  16
ENDBRANCH   1  12
BRANCH   2  23
HETATM   23  C   UNL     1      42.685 -15.611   5.369  1.00  0.00     0.064 A 
HETATM   24  N   UNL     1      41.735 -16.507   5.755  1.00  0.00    -0.263 NA
HETATM   25  C   UNL     1      41.940 -17.177   6.911  1.00  0.00     0.117 A 
HETATM   26  C   UNL     1      43.050 -16.998   7.716  1.00  0.00     0.019 A 
HETATM   27  C   UNL     1      44.009 -16.075   7.316  1.00  0.00     0.003 A 
HETATM   28  C   UNL     1      43.827 -15.366   6.133  1.00  0.00     0.030 A 
ENDBRANCH   2  23
TORSDOF 3
ENDMDL
MODEL 2
REMARK VINA RESULT:      -8.4      1.546      3.776
REMARK  3 active torsions:
REMARK  status: ('A' for Active; 'I' for Inactive)
REMARK    1  A    between atoms: C_3  and  N_4 
REMARK       I    between atoms: N_4  and  C_5 
REMARK    2  A    between atoms: C_5  and  C_6 
REMARK    3  A    between atoms: C_7  and  C_8 
ROOT
HETATM    1  C   UNL     1      41.893 -15.714   5.261  1.00  0.00     0.063 A 
HETATM    2  C   UNL     1      40.891 -14.829   4.529  1.00  0.00     0.216 A 
HETATM    3  N   UNL     1      41.052 -13.425   4.891  1.00  0.00    -0.091 N 
HETATM    4  C   UNL     1      41.916 -12.969   5.846  1.00  0.00     0.735 A 
HETATM    5  N   UNL     1      42.723 -13.845   6.474  1.00  0.00    -0.191 N 
HETATM    6  N   UNL     1      40.286 -12.418   4.443  1.00  0.00     0.012 NA
HETATM    7  N   UNL     1      40.738 -11.344   5.084  1.00  0.00     0.033 NA
HETATM    8  N   UNL     1      41.751 -11.675   5.962  1.00  0.00     0.030 NA
HETATM    9  C   UNL     1      42.748 -15.205   6.182  1.00  0.00     0.037 A 
HETATM   10  C   UNL     1      43.754 -16.022   6.956  1.00  0.00     0.070 C 
HETATM   11  H   UNL     1      43.388 -13.500   7.163  1.00  0.00     0.184 HD
ENDROOT
BRANCH   1  12
HETATM   12  C   UNL     1      41.998 -17.139   4.835  1.00  0.00     0.256 C 
HETATM   13  N   UNL     1      43.078 -17.393   4.020  1.00  0.00    -0.323 N 
HETATM   14  H   UNL     1      43.683 -16.619   3.794  1.00  0.00     0.169 HD
HETATM   15  O   UNL     1      41.151 -17.934   5.227  1.00  0.00    -0.267 OA
BRANCH  13  16
HETATM   16  C   UNL     1      43.483 -18.644   3.489  1.00  0.00     0.041 A 
HETATM   17  C   UNL     1      44.409 -19.423   4.219  1.00  0.00    -0.035 A 
HETATM   18  C   UNL     1      44.976 -18.979   5.541  1.00  0.00     0.050 C 
HETATM   19  C   UNL     1      44.817 -20.670   3.711  1.00  0.00     0.009 A 
HETATM   20  C   UNL     1      44.323 -21.145   2.498  1.00  0.00     0.001 A 
HETATM   21  C   UNL     1      43.414 -20.380   1.781  1.00  0.00     0.002 A 
HETATM   22  C   UNL     1      42.998 -19.139   2.272  1.00  0.00     0.030 A 
ENDBRANCH  13  16
ENDBRANCH   1  12
BRANCH   2  23
HETATM   23  C   UNL     1      40.917 -15.017   3.023  1.00  0.00     0.064 A 
HETATM   24  N   UNL     1      42.121 -14.810   2.423  1.00  0.00    -0.263 NA
HETATM   25  C   UNL     1      42.173 -14.907   1.075  1.00  0.00     0.117 A 
HETATM   26  C   UNL     1      41.077 -15.198   0.284  1.00  0.00     0.019 A 
HETATM   27  C   UNL     1      39.852 -15.399   0.906  1.00  0.00     0.003 A 
HETATM   28  C   UNL     1      39.763 -15.304   2.292  1.00  0.00     0.030 A 
ENDBRANCH   2  23
TORSDOF 3
ENDMDL
MODEL 3
REMARK VINA RESULT:      -8.2      1.660      4.009
REMARK  3 active torsions:
REMARK  status: ('A' for Active; 'I' for Inactive)
REMARK    1  A    between atoms: C_3  and  N_4 
REMARK       I    between atoms: N_4  and  C_5 
REMARK    2  A    between atoms: C_5  and  C_6 
REMARK    3  A    between atoms: C_7  and  C_8 
ROOT
HETATM    1  C   UNL     1      42.258 -14.495   4.916  1.00  0.00     0.063 A 
HETATM    2  C   UNL     1      40.790 -14.193   4.635  1.00  0.00     0.216 A 
HETATM    3  N   UNL     1      40.325 -13.040   5.398  1.00  0.00    -0.091 N 
HETATM    4  C   UNL     1      41.074 -12.378   6.329  1.00  0.00     0.735 A 
HETATM    5  N   UNL     1      42.348 -12.760   6.540  1.00  0.00    -0.191 N 
HETATM    6  N   UNL     1      39.069 -12.565   5.392  1.00  0.00     0.012 NA
HETATM    7  N   UNL     1      39.085 -11.571   6.276  1.00  0.00     0.033 NA
HETATM    8  N   UNL     1      40.326 -11.447   6.868  1.00  0.00     0.030 NA
HETATM    9  C   UNL     1      42.964 -13.788   5.833  1.00  0.00     0.037 A 
HETATM   10  C   UNL     1      44.413 -14.040   6.175  1.00  0.00     0.070 C 
HETATM   11  H   UNL     1      42.914 -12.246   7.212  1.00  0.00     0.184 HD
ENDROOT
BRANCH   1  12
HETATM   12  C   UNL     1      42.935 -15.505   4.053  1.00  0.00     0.256 C 
HETATM   13  N   UNL     1      42.716 -16.805   4.450  1.00  0.00    -0.323 N 
HETATM   14  H   UNL     1      42.133 -16.953   5.260  1.00  0.00     0.169 HD
HETATM   15  O   UNL     1      43.603 -15.114   3.103  1.00  0.00    -0.267 OA
BRANCH  13  16
HETATM   16  C   UNL     1      43.174 -17.989   3.819  1.00  0.00     0.041 A 
HETATM   17  C   UNL     1      44.157 -18.770   4.470  1.00  0.00    -0.035 A 
HETATM   18  C   UNL     1      44.731 -18.395   5.809  1.00  0.00     0.050 C 
HETATM   19  C   UNL     1      44.617 -19.952   3.860  1.00  0.00     0.009 A 
HETATM   20  C   UNL     1      44.119 -20.361   2.626  1.00  0.00     0.001 A 
HETATM   21  C   UNL     1      43.154 -19.595   1.986  1.00  0.00     0.002 A 
HETATM   22  C   UNL     1      42.686 -18.418   2.579  1.00  0.00     0.030 A 
ENDBRANCH  13  16
ENDBRANCH   1  12
BRANCH   2  23
HETATM   23  C   UNL     1      40.485 -14.037   3.157  1.00  0.00     0.064 A 
HETATM   24  N   UNL     1      41.013 -12.934   2.559  1.00  0.00    -0.263 NA
HETATM   25  C   UNL     1      40.714 -12.725   1.257  1.00  0.00     0.117 A 
HETATM   26  C   UNL     1      39.905 -13.562   0.511  1.00  0.00     0.019 A 
HETATM   27  C   UNL     1      39.365 -14.680   1.134  1.00  0.00     0.003 A 
HETATM   28  C   UNL     1      39.651 -14.923   2.474  1.00  0.00     0.030 A 
ENDBRANCH   2  23
TORSDOF 3
ENDMDL
MODEL 4
REMARK VINA RESULT:      -8.2      1.695      3.875
REMARK  3 active torsions:
REMARK  status: ('A' for Active; 'I' for Inactive)
REMARK    1  A    between atoms: C_3  and  N_4 
REMARK       I    between atoms: N_4  and  C_5 
REMARK    2  A    between atoms: C_5  and  C_6 
REMARK    3  A    between atoms: C_7  and  C_8 
ROOT
HETATM    1  C   UNL     1      42.777 -16.593   5.353  1.00  0.00     0.063 A 
HETATM    2  C   UNL     1      41.794 -15.714   4.590  1.00  0.00     0.216 A 
HETATM    3  N   UNL     1      42.091 -14.297   4.769  1.00  0.00    -0.091 N 
HETATM    4  C   UNL     1      43.059 -13.811   5.601  1.00  0.00     0.735 A 
HETATM    5  N   UNL     1      43.843 -14.676   6.273  1.00  0.00    -0.191 N 
HETATM    6  N   UNL     1      41.372 -13.285   4.256  1.00  0.00     0.012 NA
HETATM    7  N   UNL     1      41.956 -12.188   4.731  1.00  0.00     0.033 NA
HETATM    8  N   UNL     1      43.005 -12.502   5.572  1.00  0.00     0.030 NA
HETATM    9  C   UNL     1      43.739 -16.058   6.145  1.00  0.00     0.037 A 
HETATM   10  C   UNL     1      44.736 -16.865   6.942  1.00  0.00     0.070 C 
HETATM   11  H   UNL     1      44.584 -14.314   6.869  1.00  0.00     0.184 HD
ENDROOT
BRANCH   1  12
HETATM   12  C   UNL     1      42.738 -18.061   5.095  1.00  0.00     0.256 C 
HETATM   13  N   UNL     1      43.909 -18.560   4.571  1.00  0.00    -0.323 N 
HETATM   14  H   UNL     1      44.665 -17.911   4.418  1.00  0.00     0.169 HD
HETATM   15  O   UNL     1      41.711 -18.677   5.357  1.00  0.00    -0.267 OA
BRANCH  13  16
HETATM   16  C   UNL     1      44.210 -19.912   4.263  1.00  0.00     0.041 A 
HETATM   17  C   UNL     1      44.073 -20.350   2.926  1.00  0.00    -0.035 A 
HETATM   18  C   UNL     1      43.626 -19.437   1.816  1.00  0.00     0.050 C 
HETATM   19  C   UNL     1      44.375 -21.686   2.602  1.00  0.00     0.009 A 
HETATM   20  C   UNL     1      44.804 -22.580   3.579  1.00  0.00     0.001 A 
HETATM   21  C   UNL     1      44.938 -22.150   4.892  1.00  0.00     0.002 A 
HETATM   22  C   UNL     1      44.643 -20.826   5.231  1.00  0.00     0.030 A 
ENDBRANCH  13  16
ENDBRANCH   1  12
BRANCH   2  23
HETATM   23  C   UNL     1      41.687 -16.073   3.119  1.00  0.00     0.064 A 
HETATM   24  N   UNL     1      40.557 -16.739   2.754  1.00  0.00    -0.263 NA
HETATM   25  C   UNL     1      40.451 -17.131   1.465  1.00  0.00     0.117 A 
HETATM   26  C   UNL     1      41.422 -16.899   0.509  1.00  0.00     0.019 A 
HETATM   27  C   UNL     1      42.575 -16.226   0.895  1.00  0.00     0.003 A 
HETATM   28  C   UNL     1      42.718 -15.810   2.215  1.00  0.00     0.030 A 
ENDBRANCH   2  23
TORSDOF 3
ENDMDL
MODEL 5
REMARK VINA RESULT:      -7.9      2.399      6.861
REMARK  3 active torsions:
REMARK  status: ('A' for Active; 'I' for Inactive)
REMARK    1  A    between atoms: C_3  and  N_4 
REMARK       I    between atoms: N_4  and  C_5 
REMARK    2  A    between atoms: C_5  and  C_6 
REMARK    3  A    between atoms: C_7  and  C_8 
ROOT
HETATM    1  C   UNL     1      43.809 -17.299   5.739  1.00  0.00     0.063 A 
HETATM    2  C   UNL     1      44.299 -18.017   4.486  1.00  0.00     0.216 A 
HETATM    3  N   UNL     1      44.404 -19.456   4.700  1.00  0.00    -0.091 N 
HETATM    4  C   UNL     1      44.196 -20.075   5.900  1.00  0.00     0.735 A 
HETATM    5  N   UNL     1      43.816 -19.339   6.962  1.00  0.00    -0.191 N 
HETATM    6  N   UNL     1      44.851 -20.342   3.795  1.00  0.00     0.012 NA
HETATM    7  N   UNL     1      44.845 -21.506   4.438  1.00  0.00     0.033 NA
HETATM    8  N   UNL     1      44.443 -21.353   5.750  1.00  0.00     0.030 NA
HETATM    9  C   UNL     1      43.591 -17.967   6.899  1.00  0.00     0.037 A 
HETATM   10  C   UNL     1      43.122 -17.321   8.181  1.00  0.00     0.070 C 
HETATM   11  H   UNL     1      43.631 -19.805   7.848  1.00  0.00     0.184 HD
ENDROOT
BRANCH   1  12
HETATM   12  C   UNL     1      43.444 -15.859   5.613  1.00  0.00     0.256 C 
HETATM   13  N   UNL     1      42.153 -15.653   5.182  1.00  0.00    -0.323 N 
HETATM   14  H   UNL     1      41.587 -16.468   4.999  1.00  0.00     0.169 HD
HETATM   15  O   UNL     1      44.285 -15.013   5.890  1.00  0.00    -0.267 OA
BRANCH  13  16
HETATM   16  C   UNL     1      41.488 -14.413   5.009  1.00  0.00     0.041 A 
HETATM   17  C   UNL     1      41.843 -13.599   3.908  1.00  0.00    -0.035 A 
HETATM   18  C   UNL     1      42.895 -14.002   2.910  1.00  0.00     0.050 C 
HETATM   19  C   UNL     1      41.188 -12.369   3.718  1.00  0.00     0.009 A 
HETATM   20  C   UNL     1      40.197 -11.941   4.598  1.00  0.00     0.001 A 
HETATM   21  C   UNL     1      39.849 -12.739   5.679  1.00  0.00     0.002 A 
HETATM   22  C   UNL     1      40.489 -13.965   5.882  1.00  0.00     0.030 A 
ENDBRANCH  13  16
ENDBRANCH   1  12
BRANCH   2  23
HETATM   23  C   UNL     1      43.471 -17.701   3.254  1.00  0.00     0.064 A 
HETATM   24  N   UNL     1      42.132 -17.915   3.372  1.00  0.00    -0.263 NA
HETATM   25  C   UNL     1      41.366 -17.704   2.278  1.00  0.00     0.117 A 
HETATM   26  C   UNL     1      41.868 -17.292   1.058  1.00  0.00     0.019 A 
HETATM   27  C   UNL     1      43.237 -17.085   0.947  1.00  0.00     0.003 A 
HETATM   28  C   UNL     1      44.054 -17.295   2.053  1.00  0.00     0.030 A 
ENDBRANCH   2  23
TORSDOF 3
ENDMDL
MODEL 6
REMARK VINA RESULT:      -7.9      2.740      7.003
REMARK  3 active torsions:
REMARK  status: ('A' for Active; 'I' for Inactive)
REMARK    1  A    between atoms: C_3  and  N_4 
REMARK       I    between atoms: N_4  and  C_5 
REMARK    2  A    between atoms: C_5  and  C_6 
REMARK    3  A    between atoms: C_7  and  C_8 
ROOT
HETATM    1  C   UNL     1      44.337 -19.087   5.101  1.00  0.00     0.063 A 
HETATM    2  C   UNL     1      44.649 -19.359   3.634  1.00  0.00     0.216 A 
HETATM    3  N   UNL     1      44.618 -20.787   3.335  1.00  0.00    -0.091 N 
HETATM    4  C   UNL     1      44.439 -21.767   4.271  1.00  0.00     0.735 A 
HETATM    5  N   UNL     1      44.223 -21.419   5.554  1.00  0.00    -0.191 N 
HETATM    6  N   UNL     1      44.896 -21.334   2.141  1.00  0.00     0.012 NA
HETATM    7  N   UNL     1      44.817 -22.645   2.349  1.00  0.00     0.033 NA
HETATM    8  N   UNL     1      44.537 -22.928   3.671  1.00  0.00     0.030 NA
HETATM    9  C   UNL     1      44.141 -20.098   5.984  1.00  0.00     0.037 A 
HETATM   10  C   UNL     1      43.845 -19.905   7.451  1.00  0.00     0.070 C 
HETATM   11  H   UNL     1      44.059 -22.149   6.244  1.00  0.00     0.184 HD
ENDROOT
BRANCH   1  12
HETATM   12  C   UNL     1      44.119 -17.670   5.511  1.00  0.00     0.256 C 
HETATM   13  N   UNL     1      43.013 -17.093   4.929  1.00  0.00    -0.323 N 
HETATM   14  H   UNL     1      42.465 -17.662   4.301  1.00  0.00     0.169 HD
HETATM   15  O   UNL     1      44.907 -17.157   6.296  1.00  0.00    -0.267 OA
BRANCH  13  16
HETATM   16  C   UNL     1      42.506 -15.786   5.146  1.00  0.00     0.041 A 
HETATM   17  C   UNL     1      41.280 -15.639   5.835  1.00  0.00    -0.035 A 
HETATM   18  C   UNL     1      40.494 -16.816   6.349  1.00  0.00     0.050 C 
HETATM   19  C   UNL     1      40.766 -14.350   6.066  1.00  0.00     0.009 A 
HETATM   20  C   UNL     1      41.448 -13.218   5.625  1.00  0.00     0.001 A 
HETATM   21  C   UNL     1      42.652 -13.362   4.949  1.00  0.00     0.002 A 
HETATM   22  C   UNL     1      43.176 -14.636   4.711  1.00  0.00     0.030 A 
ENDBRANCH  13  16
ENDBRANCH   1  12
BRANCH   2  23
HETATM   23  C   UNL     1      43.766 -18.577   2.680  1.00  0.00     0.064 A 
HETATM   24  N   UNL     1      42.440 -18.883   2.716  1.00  0.00    -0.263 NA
HETATM   25  C   UNL     1      41.628 -18.252   1.839  1.00  0.00     0.117 A 
HETATM   26  C   UNL     1      42.070 -17.325   0.914  1.00  0.00     0.019 A 
HETATM   27  C   UNL     1      43.426 -17.026   0.880  1.00  0.00     0.003 A 
HETATM   28  C   UNL     1      44.291 -17.660   1.767  1.00  0.00     0.030 A 
ENDBRANCH   2  23
TORSDOF 3
ENDMDL
MODEL 7
REMARK VINA RESULT:      -7.8      2.428      5.518
REMARK  3 active torsions:
REMARK  status: ('A' for Active; 'I' for Inactive)
REMARK    1  A    between atoms: C_3  and  N_4 
REMARK       I    between atoms: N_4  and  C_5 
REMARK    2  A    between atoms: C_5  and  C_6 
REMARK    3  A    between atoms: C_7  and  C_8 
ROOT
HETATM    1  C   UNL     1      42.056 -17.616   3.584  1.00  0.00     0.063 A 
HETATM    2  C   UNL     1      41.747 -17.225   5.024  1.00  0.00     0.216 A 
HETATM    3  N   UNL     1      42.687 -17.834   5.959  1.00  0.00    -0.091 N 
HETATM    4  C   UNL     1      43.656 -18.729   5.604  1.00  0.00     0.735 A 
HETATM    5  N   UNL     1      43.812 -19.049   4.305  1.00  0.00    -0.191 N 
HETATM    6  N   UNL     1      42.640 -17.709   7.295  1.00  0.00     0.012 NA
HETATM    7  N   UNL     1      43.629 -18.481   7.736  1.00  0.00     0.033 NA
HETATM    8  N   UNL     1      44.267 -19.124   6.694  1.00  0.00     0.030 NA
HETATM    9  C   UNL     1      43.049 -18.490   3.284  1.00  0.00     0.037 A 
HETATM   10  C   UNL     1      43.402 -18.935   1.886  1.00  0.00     0.070 C 
HETATM   11  H   UNL     1      44.555 -19.692   4.039  1.00  0.00     0.184 HD
ENDROOT
BRANCH   1  12
HETATM   12  C   UNL     1      41.321 -16.904   2.500  1.00  0.00     0.256 C 
HETATM   13  N   UNL     1      42.120 -16.078   1.743  1.00  0.00    -0.323 N 
HETATM   14  H   UNL     1      43.100 -16.033   1.979  1.00  0.00     0.169 HD
HETATM   15  O   UNL     1      40.118 -17.102   2.377  1.00  0.00    -0.267 OA
BRANCH  13  16
HETATM   16  C   UNL     1      41.741 -15.305   0.615  1.00  0.00     0.041 A 
HETATM   17  C   UNL     1      41.760 -13.896   0.720  1.00  0.00    -0.035 A 
HETATM   18  C   UNL     1      42.173 -13.183   1.980  1.00  0.00     0.050 C 
HETATM   19  C   UNL     1      41.394 -13.114  -0.391  1.00  0.00     0.009 A 
HETATM   20  C   UNL     1      41.012 -13.710  -1.591  1.00  0.00     0.001 A 
HETATM   21  C   UNL     1      40.993 -15.095  -1.693  1.00  0.00     0.002 A 
HETATM   22  C   UNL     1      41.354 -15.885  -0.598  1.00  0.00     0.030 A 
ENDBRANCH  13  16
ENDBRANCH   1  12
BRANCH   2  23
HETATM   23  C   UNL     1      41.658 -15.724   5.230  1.00  0.00     0.064 A 
HETATM   24  N   UNL     1      42.845 -15.057   5.229  1.00  0.00    -0.263 NA
HETATM   25  C   UNL     1      42.815 -13.728   5.469  1.00  0.00     0.117 A 
HETATM   26  C   UNL     1      41.656 -13.018   5.719  1.00  0.00     0.019 A 
HETATM   27  C   UNL     1      40.451 -13.710   5.725  1.00  0.00     0.003 A 
HETATM   28  C   UNL     1      40.446 -15.080   5.484  1.00  0.00     0.030 A 
ENDBRANCH   2  23
TORSDOF 3
ENDMDL
MODEL 8
REMARK VINA RESULT:      -7.7      2.157      5.804
REMARK  3 active torsions:
REMARK  status: ('A' for Active; 'I' for Inactive)
REMARK    1  A    between atoms: C_3  and  N_4 
REMARK       I    between atoms: N_4  and  C_5 
REMARK    2  A    between atoms: C_5  and  C_6 
REMARK    3  A    between atoms: C_7  and  C_8 
ROOT
HETATM    1  C   UNL     1      41.993 -15.201   4.330  1.00  0.00     0.063 A 
HETATM    2  C   UNL     1      43.180 -16.138   4.518  1.00  0.00     0.216 A 
HETATM    3  N   UNL     1      43.117 -16.833   5.799  1.00  0.00    -0.091 N 
HETATM    4  C   UNL     1      42.173 -16.596   6.759  1.00  0.00     0.735 A 
HETATM    5  N   UNL     1      41.193 -15.707   6.512  1.00  0.00    -0.191 N 
HETATM    6  N   UNL     1      44.044 -17.686   6.264  1.00  0.00     0.012 NA
HETATM    7  N   UNL     1      43.616 -18.012   7.480  1.00  0.00     0.033 NA
HETATM    8  N   UNL     1      42.455 -17.339   7.801  1.00  0.00     0.030 NA
HETATM    9  C   UNL     1      41.068 -15.023   5.306  1.00  0.00     0.037 A 
HETATM   10  C   UNL     1      39.877 -14.102   5.197  1.00  0.00     0.070 C 
HETATM   11  H   UNL     1      40.473 -15.554   7.215  1.00  0.00     0.184 HD
ENDROOT
BRANCH   1  12
HETATM   12  C   UNL     1      41.802 -14.586   2.985  1.00  0.00     0.256 C 
HETATM   13  N   UNL     1      41.038 -15.352   2.133  1.00  0.00    -0.323 N 
HETATM   14  H   UNL     1      40.684 -16.228   2.485  1.00  0.00     0.169 HD
HETATM   15  O   UNL     1      42.320 -13.500   2.756  1.00  0.00    -0.267 OA
BRANCH  13  16
HETATM   16  C   UNL     1      40.634 -15.030   0.812  1.00  0.00     0.041 A 
HETATM   17  C   UNL     1      39.477 -14.238   0.630  1.00  0.00    -0.035 A 
HETATM   18  C   UNL     1      38.661 -13.719   1.783  1.00  0.00     0.050 C 
HETATM   19  C   UNL     1      39.066 -13.904  -0.674  1.00  0.00     0.009 A 
HETATM   20  C   UNL     1      39.781 -14.343  -1.785  1.00  0.00     0.001 A 
HETATM   21  C   UNL     1      40.917 -15.120  -1.606  1.00  0.00     0.002 A 
HETATM   22  C   UNL     1      41.339 -15.461  -0.317  1.00  0.00     0.030 A 
ENDBRANCH  13  16
ENDBRANCH   1  12
BRANCH   2  23
HETATM   23  C   UNL     1      43.360 -17.113   3.370  1.00  0.00     0.064 A 
HETATM   24  N   UNL     1      44.044 -16.638   2.293  1.00  0.00    -0.263 NA
HETATM   25  C   UNL     1      44.174 -17.455   1.225  1.00  0.00     0.117 A 
HETATM   26  C   UNL     1      43.649 -18.733   1.166  1.00  0.00     0.019 A 
HETATM   27  C   UNL     1      42.945 -19.204   2.267  1.00  0.00     0.003 A 
HETATM   28  C   UNL     1      42.791 -18.388   3.384  1.00  0.00     0.030 A 
ENDBRANCH   2  23
TORSDOF 3
ENDMDL
MODEL 9
REMARK VINA RESULT:      -7.6      2.300      4.332
REMARK  3 active torsions:
REMARK  status: ('A' for Active; 'I' for Inactive)
REMARK    1  A    between atoms: C_3  and  N_4 
REMARK       I    between atoms: N_4  and  C_5 
REMARK    2  A    between atoms: C_5  and  C_6 
REMARK    3  A    between atoms: C_7  and  C_8 
ROOT
HETATM    1  C   UNL     1      42.051 -15.438   2.331  1.00  0.00     0.063 A 
HETATM    2  C   UNL     1      42.352 -13.944   2.361  1.00  0.00     0.216 A 
HETATM    3  N   UNL     1      42.197 -13.340   1.042  1.00  0.00    -0.091 N 
HETATM    4  C   UNL     1      41.923 -14.039  -0.100  1.00  0.00     0.735 A 
HETATM    5  N   UNL     1      41.725 -15.369  -0.024  1.00  0.00    -0.191 N 
HETATM    6  N   UNL     1      42.438 -12.052   0.748  1.00  0.00     0.012 NA
HETATM    7  N   UNL     1      42.241 -11.968  -0.565  1.00  0.00     0.033 NA
HETATM    8  N   UNL     1      41.923 -13.199  -1.104  1.00  0.00     0.030 NA
HETATM    9  C   UNL     1      41.757 -16.079   1.173  1.00  0.00     0.037 A 
HETATM   10  C   UNL     1      41.464 -17.556   1.065  1.00  0.00     0.070 C 
HETATM   11  H   UNL     1      41.491 -15.884  -0.870  1.00  0.00     0.184 HD
ENDROOT
BRANCH   1  12
HETATM   12  C   UNL     1      41.955 -16.151   3.637  1.00  0.00     0.256 C 
HETATM   13  N   UNL     1      43.175 -16.376   4.233  1.00  0.00    -0.323 N 
HETATM   14  H   UNL     1      43.997 -16.046   3.751  1.00  0.00     0.169 HD
HETATM   15  O   UNL     1      40.847 -16.466   4.055  1.00  0.00    -0.267 OA
BRANCH  13  16
HETATM   16  C   UNL     1      43.422 -16.980   5.493  1.00  0.00     0.041 A 
HETATM   17  C   UNL     1      43.929 -18.300   5.525  1.00  0.00    -0.035 A 
HETATM   18  C   UNL     1      44.222 -19.085   4.275  1.00  0.00     0.050 C 
HETATM   19  C   UNL     1      44.187 -18.911   6.765  1.00  0.00     0.009 A 
HETATM   20  C   UNL     1      43.948 -18.236   7.960  1.00  0.00     0.001 A 
HETATM   21  C   UNL     1      43.450 -16.941   7.928  1.00  0.00     0.002 A 
HETATM   22  C   UNL     1      43.189 -16.319   6.704  1.00  0.00     0.030 A 
ENDBRANCH  13  16
ENDBRANCH   1  12
BRANCH   2  23
HETATM   23  C   UNL     1      41.552 -13.194   3.409  1.00  0.00     0.064 A 
HETATM   24  N   UNL     1      42.264 -12.720   4.468  1.00  0.00    -0.263 NA
HETATM   25  C   UNL     1      41.579 -12.098   5.454  1.00  0.00     0.117 A 
HETATM   26  C   UNL     1      40.207 -11.925   5.445  1.00  0.00     0.019 A 
HETATM   27  C   UNL     1      39.490 -12.420   4.363  1.00  0.00     0.003 A 
HETATM   28  C   UNL     1      40.164 -13.067   3.332  1.00  0.00     0.030 A 
ENDBRANCH   2  23
TORSDOF 3
ENDMDL
MODEL 10
REMARK VINA RESULT:      -7.5      1.760      4.277
REMARK  3 active torsions:
REMARK  status: ('A' for Active; 'I' for Inactive)
REMARK    1  A    between atoms: C_3  and  N_4 
REMARK       I    between atoms: N_4  and  C_5 
REMARK    2  A    between atoms: C_5  and  C_6 
REMARK    3  A    between atoms: C_7  and  C_8 
ROOT
HETATM    1  C   UNL     1      41.941 -14.272   4.533  1.00  0.00     0.063 A 
HETATM    2  C   UNL     1      40.675 -13.774   3.847  1.00  0.00     0.216 A 
HETATM    3  N   UNL     1      40.104 -12.627   4.544  1.00  0.00    -0.091 N 
HETATM    4  C   UNL     1      40.578 -12.126   5.724  1.00  0.00     0.735 A 
HETATM    5  N   UNL     1      41.678 -12.675   6.275  1.00  0.00    -0.191 N 
HETATM    6  N   UNL     1      38.966 -12.001   4.202  1.00  0.00     0.012 NA
HETATM    7  N   UNL     1      38.796 -11.079   5.145  1.00  0.00     0.033 NA
HETATM    8  N   UNL     1      39.792 -11.149   6.100  1.00  0.00     0.030 NA
HETATM    9  C   UNL     1      42.385 -13.721   5.690  1.00  0.00     0.037 A 
HETATM   10  C   UNL     1      43.619 -14.172   6.433  1.00  0.00     0.070 C 
HETATM   11  H   UNL     1      42.048 -12.282   7.138  1.00  0.00     0.184 HD
ENDROOT
BRANCH   1  12
HETATM   12  C   UNL     1      42.757 -15.297   3.820  1.00  0.00     0.256 C 
HETATM   13  N   UNL     1      42.371 -16.591   4.087  1.00  0.00    -0.323 N 
HETATM   14  H   UNL     1      41.595 -16.726   4.716  1.00  0.00     0.169 HD
HETATM   15  O   UNL     1      43.666 -14.921   3.089  1.00  0.00    -0.267 OA
BRANCH  13  16
HETATM   16  C   UNL     1      42.907 -17.783   3.535  1.00  0.00     0.041 A 
HETATM   17  C   UNL     1      42.401 -18.246   2.299  1.00  0.00    -0.035 A 
HETATM   18  C   UNL     1      41.319 -17.520   1.544  1.00  0.00     0.050 C 
HETATM   19  C   UNL     1      42.926 -19.422   1.733  1.00  0.00     0.009 A 
HETATM   20  C   UNL     1      43.935 -20.136   2.375  1.00  0.00     0.001 A 
HETATM   21  C   UNL     1      44.432 -19.682   3.589  1.00  0.00     0.002 A 
HETATM   22  C   UNL     1      43.921 -18.514   4.164  1.00  0.00     0.030 A 
ENDBRANCH  13  16
ENDBRANCH   1  12
BRANCH   2  23
HETATM   23  C   UNL     1      40.870 -13.481   2.371  1.00  0.00     0.064 A 
HETATM   24  N   UNL     1      40.169 -14.273   1.514  1.00  0.00    -0.263 NA
HETATM   25  C   UNL     1      40.362 -14.085   0.189  1.00  0.00     0.117 A 
HETATM   26  C   UNL     1      41.228 -13.143  -0.335  1.00  0.00     0.019 A 
HETATM   27  C   UNL     1      41.944 -12.346   0.549  1.00  0.00     0.003 A 
HETATM   28  C   UNL     1      41.772 -12.515   1.920  1.00  0.00     0.030 A 
ENDBRANCH   2  23
TORSDOF 3
ENDMDL
