MODEL 1
REMARK VINA RESULT:      -8.1      0.000      0.000
REMARK  6 active torsions:
REMARK  status: ('A' for Active; 'I' for Inactive)
REMARK    1  A    between atoms: C_2  and  C_3 
REMARK    2  A    between atoms: C_3  and  C_4 
REMARK    3  A    between atoms: C_3  and  C_10 
REMARK    4  A    between atoms: C_10  and  C_11 
REMARK       I    between atoms: C_11  and  N_12 
REMARK    5  A    between atoms: N_12  and  C_13 
REMARK    6  A    between atoms: C_15  and  C_16 
ROOT
HETATM    1  C   UNL     1      43.464 -18.501   2.020  1.00  0.00     0.223 C 
HETATM    2  N   UNL     1      42.114 -18.240   1.918  1.00  0.00    -0.327 N 
HETATM    3  O   UNL     1      44.361 -17.723   1.700  1.00  0.00    -0.273 OA
HETATM    4  H   UNL     1      41.481 -18.999   2.131  1.00  0.00     0.169 HD
ENDROOT
BRANCH   2   5
HETATM    5  C   UNL     1      41.485 -17.070   1.441  1.00  0.00     0.035 A 
HETATM    6  C   UNL     1      41.614 -16.586   0.136  1.00  0.00     0.042 A 
HETATM    7  C   UNL     1      40.966 -15.404  -0.265  1.00  0.00    -0.021 A 
HETATM    8  C   UNL     1      40.173 -14.719   0.665  1.00  0.00     0.012 A 
HETATM    9  C   UNL     1      40.041 -15.193   1.970  1.00  0.00     0.003 A 
HETATM   10  C   UNL     1      40.700 -16.359   2.356  1.00  0.00     0.029 A 
BRANCH   7  11
HETATM   11  C   UNL     1      41.124 -14.912  -1.624  1.00  0.00     0.010 A 
HETATM   12  C   UNL     1      40.727 -15.472  -2.864  1.00  0.00     0.152 A 
HETATM   13  N   UNL     1      41.074 -14.714  -3.910  1.00  0.00    -0.187 NA
HETATM   14  N   UNL     1      41.704 -13.673  -3.346  1.00  0.00    -0.289 N 
HETATM   15  H   UNL     1      42.076 -12.951  -3.954  1.00  0.00     0.188 HD
HETATM   16  C   UNL     1      41.761 -13.742  -1.984  1.00  0.00     0.123 A 
ENDBRANCH   7  11
ENDBRANCH   2   5
BRANCH   1  17
HETATM   17  C   UNL     1      43.836 -19.831   2.675  1.00  0.00     0.116 C 
BRANCH  17  18
HETATM   18  C   UNL     1      44.650 -19.813   3.987  1.00  0.00     0.049 C 
BRANCH  18  19
HETATM   19  C   UNL     1      44.972 -21.246   4.389  1.00  0.00    -0.027 C 
HETATM   20  C   UNL     1      44.621 -21.890   5.511  1.00  0.00     0.007 C 
ENDBRANCH  18  19
BRANCH  18  21
HETATM   21  C   UNL     1      44.167 -18.875   5.103  1.00  0.00    -0.050 A 
HETATM   22  C   UNL     1      45.090 -18.190   5.915  1.00  0.00     0.008 A 
HETATM   23  C   UNL     1      44.670 -17.316   6.922  1.00  0.00     0.001 A 
HETATM   24  C   UNL     1      43.314 -17.080   7.121  1.00  0.00     0.000 A 
HETATM   25  C   UNL     1      42.382 -17.706   6.301  1.00  0.00     0.001 A 
HETATM   26  C   UNL     1      42.804 -18.582   5.295  1.00  0.00     0.008 A 
ENDBRANCH  18  21
ENDBRANCH  17  18
ENDBRANCH   1  17
TORSDOF 6
ENDMDL
MODEL 2
REMARK VINA RESULT:      -8.1      2.794      4.550
REMARK  6 active torsions:
REMARK  status: ('A' for Active; 'I' for Inactive)
REMARK    1  A    between atoms: C_2  and  C_3 
REMARK    2  A    between atoms: C_3  and  C_4 
REMARK    3  A    between atoms: C_3  and  C_10 
REMARK    4  A    between atoms: C_10  and  C_11 
REMARK       I    between atoms: C_11  and  N_12 
REMARK    5  A    between atoms: N_12  and  C_13 
REMARK    6  A    between atoms: C_15  and  C_16 
ROOT
HETATM    1  C   UNL     1      41.898 -16.979   0.717  1.00  0.00     0.223 C 
HETATM    2  N   UNL     1      42.006 -15.898  -0.131  1.00  0.00    -0.327 N 
HETATM    3  O   UNL     1      40.865 -17.610   0.934  1.00  0.00    -0.273 OA
HETATM    4  H   UNL     1      42.893 -15.415  -0.151  1.00  0.00     0.169 HD
ENDROOT
BRANCH   2   5
HETATM    5  C   UNL     1      40.993 -15.296  -0.909  1.00  0.00     0.035 A 
HETATM    6  C   UNL     1      39.994 -14.467  -0.390  1.00  0.00     0.042 A 
HETATM    7  C   UNL     1      39.009 -13.911  -1.226  1.00  0.00    -0.021 A 
HETATM    8  C   UNL     1      39.050 -14.191  -2.598  1.00  0.00     0.012 A 
HETATM    9  C   UNL     1      40.042 -15.018  -3.124  1.00  0.00     0.003 A 
HETATM   10  C   UNL     1      41.003 -15.573  -2.280  1.00  0.00     0.029 A 
BRANCH   7  11
HETATM   11  C   UNL     1      37.972 -13.062  -0.663  1.00  0.00     0.010 A 
HETATM   12  C   UNL     1      37.368 -11.881  -1.163  1.00  0.00     0.152 A 
HETATM   13  N   UNL     1      36.452 -11.375  -0.331  1.00  0.00    -0.187 NA
HETATM   14  N   UNL     1      36.473 -12.221   0.710  1.00  0.00    -0.289 N 
HETATM   15  H   UNL     1      35.856 -12.033   1.493  1.00  0.00     0.188 HD
HETATM   16  C   UNL     1      37.363 -13.246   0.562  1.00  0.00     0.123 A 
ENDBRANCH   7  11
ENDBRANCH   2   5
BRANCH   1  17
HETATM   17  C   UNL     1      43.205 -17.464   1.346  1.00  0.00     0.116 C 
BRANCH  17  18
HETATM   18  C   UNL     1      43.161 -18.126   2.740  1.00  0.00     0.049 C 
BRANCH  18  19
HETATM   19  C   UNL     1      43.704 -17.145   3.771  1.00  0.00    -0.027 C 
HETATM   20  C   UNL     1      43.153 -15.999   4.193  1.00  0.00     0.007 C 
ENDBRANCH  18  19
BRANCH  18  21
HETATM   21  C   UNL     1      43.647 -19.579   2.846  1.00  0.00    -0.050 A 
HETATM   22  C   UNL     1      43.453 -20.481   1.783  1.00  0.00     0.008 A 
HETATM   23  C   UNL     1      43.906 -21.801   1.853  1.00  0.00     0.001 A 
HETATM   24  C   UNL     1      44.596 -22.244   2.976  1.00  0.00     0.000 A 
HETATM   25  C   UNL     1      44.846 -21.360   4.020  1.00  0.00     0.001 A 
HETATM   26  C   UNL     1      44.389 -20.040   3.950  1.00  0.00     0.008 A 
ENDBRANCH  18  21
ENDBRANCH  17  18
ENDBRANCH   1  17
TORSDOF 6
ENDMDL
MODEL 3
REMARK VINA RESULT:      -8.1      1.468      2.997
REMARK  6 active torsions:
REMARK  status: ('A' for Active; 'I' for Inactive)
REMARK    1  A    between atoms: C_2  and  C_3 
REMARK    2  A    between atoms: C_3  and  C_4 
REMARK    3  A    between atoms: C_3  and  C_10 
REMARK    4  A    between atoms: C_10  and  C_11 
REMARK       I    between atoms: C_11  and  N_12 
REMARK    5  A    between atoms: N_12  and  C_13 
REMARK    6  A    between atoms: C_15  and  C_16 
ROOT
HETATM    1  C   UNL     1      42.792 -15.367   3.879  1.00  0.00     0.223 C 
HETATM    2  N   UNL     1      41.599 -15.815   3.352  1.00  0.00    -0.327 N 
HETATM    3  O   UNL     1      43.422 -14.389   3.478  1.00  0.00    -0.273 OA
HETATM    4  H   UNL     1      41.231 -16.682   3.717  1.00  0.00     0.169 HD
ENDROOT
BRANCH   2   5
HETATM    5  C   UNL     1      40.865 -15.274   2.274  1.00  0.00     0.035 A 
HETATM    6  C   UNL     1      41.316 -15.250   0.951  1.00  0.00     0.042 A 
HETATM    7  C   UNL     1      40.533 -14.683  -0.070  1.00  0.00    -0.021 A 
HETATM    8  C   UNL     1      39.279 -14.150   0.256  1.00  0.00     0.012 A 
HETATM    9  C   UNL     1      38.822 -14.167   1.574  1.00  0.00     0.003 A 
HETATM   10  C   UNL     1      39.616 -14.721   2.578  1.00  0.00     0.029 A 
BRANCH   7  11
HETATM   11  C   UNL     1      41.027 -14.658  -1.438  1.00  0.00     0.010 A 
HETATM   12  C   UNL     1      40.850 -15.575  -2.504  1.00  0.00     0.152 A 
HETATM   13  N   UNL     1      41.487 -15.202  -3.619  1.00  0.00    -0.187 NA
HETATM   14  N   UNL     1      42.084 -14.053  -3.269  1.00  0.00    -0.289 N 
HETATM   15  H   UNL     1      42.649 -13.576  -3.963  1.00  0.00     0.188 HD
HETATM   16  C   UNL     1      41.841 -13.684  -1.977  1.00  0.00     0.123 A 
ENDBRANCH   7  11
ENDBRANCH   2   5
BRANCH   1  17
HETATM   17  C   UNL     1      43.290 -16.108   5.120  1.00  0.00     0.116 C 
BRANCH  17  18
HETATM   18  C   UNL     1      42.839 -17.568   5.347  1.00  0.00     0.049 C 
BRANCH  18  19
HETATM   19  C   UNL     1      42.696 -17.814   6.843  1.00  0.00    -0.027 C 
HETATM   20  C   UNL     1      43.260 -17.135   7.851  1.00  0.00     0.007 C 
ENDBRANCH  18  19
BRANCH  18  21
HETATM   21  C   UNL     1      43.547 -18.660   4.532  1.00  0.00    -0.050 A 
HETATM   22  C   UNL     1      44.490 -19.511   5.139  1.00  0.00     0.008 A 
HETATM   23  C   UNL     1      45.130 -20.524   4.418  1.00  0.00     0.001 A 
HETATM   24  C   UNL     1      44.817 -20.732   3.080  1.00  0.00     0.000 A 
HETATM   25  C   UNL     1      43.854 -19.939   2.469  1.00  0.00     0.001 A 
HETATM   26  C   UNL     1      43.216 -18.924   3.190  1.00  0.00     0.008 A 
ENDBRANCH  18  21
ENDBRANCH  17  18
ENDBRANCH   1  17
TORSDOF 6
ENDMDL
MODEL 4
REMARK VINA RESULT:      -8.0      2.332      4.077
REMARK  6 active torsions:
REMARK  status: ('A' for Active; 'I' for Inactive)
REMARK    1  A    between atoms: C_2  and  C_3 
REMARK    2  A    between atoms: C_3  and  C_4 
REMARK    3  A    between atoms: C_3  and  C_10 
REMARK    4  A    between atoms: C_10  and  C_11 
REMARK       I    between atoms: C_11  and  N_12 
REMARK    5  A    between atoms: N_12  and  C_13 
REMARK    6  A    between atoms: C_15  and  C_16 
ROOT
HETATM    1  C   UNL     1      41.806 -16.651   0.864  1.00  0.00     0.223 C 
HETATM    2  N   UNL     1      42.118 -15.749  -0.130  1.00  0.00    -0.327 N 
HETATM    3  O   UNL     1      40.729 -16.709   1.456  1.00  0.00    -0.273 OA
HETATM    4  H   UNL     1      43.069 -15.752  -0.473  1.00  0.00     0.169 HD
ENDROOT
BRANCH   2   5
HETATM    5  C   UNL     1      41.305 -14.728  -0.667  1.00  0.00     0.035 A 
HETATM    6  C   UNL     1      40.287 -14.943  -1.601  1.00  0.00     0.042 A 
HETATM    7  C   UNL     1      39.524 -13.873  -2.101  1.00  0.00    -0.021 A 
HETATM    8  C   UNL     1      39.792 -12.578  -1.638  1.00  0.00     0.012 A 
HETATM    9  C   UNL     1      40.807 -12.353  -0.709  1.00  0.00     0.003 A 
HETATM   10  C   UNL     1      41.563 -13.423  -0.232  1.00  0.00     0.029 A 
BRANCH   7  11
HETATM   11  C   UNL     1      38.478 -14.120  -3.081  1.00  0.00     0.010 A 
HETATM   12  C   UNL     1      38.126 -15.299  -3.783  1.00  0.00     0.152 A 
HETATM   13  N   UNL     1      37.102 -15.116  -4.623  1.00  0.00    -0.187 NA
HETATM   14  N   UNL     1      36.802 -13.817  -4.472  1.00  0.00    -0.289 N 
HETATM   15  H   UNL     1      36.047 -13.432  -5.028  1.00  0.00     0.188 HD
HETATM   16  C   UNL     1      37.594 -13.177  -3.562  1.00  0.00     0.123 A 
ENDBRANCH   7  11
ENDBRANCH   2   5
BRANCH   1  17
HETATM   17  C   UNL     1      42.869 -17.710   1.159  1.00  0.00     0.116 C 
BRANCH  17  18
HETATM   18  C   UNL     1      43.025 -18.227   2.606  1.00  0.00     0.049 C 
BRANCH  18  19
HETATM   19  C   UNL     1      43.649 -17.130   3.458  1.00  0.00    -0.027 C 
HETATM   20  C   UNL     1      43.120 -16.504   4.519  1.00  0.00     0.007 C 
ENDBRANCH  18  19
BRANCH  18  21
HETATM   21  C   UNL     1      43.580 -19.646   2.791  1.00  0.00    -0.050 A 
HETATM   22  C   UNL     1      43.453 -20.606   1.769  1.00  0.00     0.008 A 
HETATM   23  C   UNL     1      43.971 -21.897   1.912  1.00  0.00     0.001 A 
HETATM   24  C   UNL     1      44.658 -22.250   3.068  1.00  0.00     0.000 A 
HETATM   25  C   UNL     1      44.841 -21.307   4.072  1.00  0.00     0.001 A 
HETATM   26  C   UNL     1      44.321 -20.016   3.929  1.00  0.00     0.008 A 
ENDBRANCH  18  21
ENDBRANCH  17  18
ENDBRANCH   1  17
TORSDOF 6
ENDMDL
MODEL 5
REMARK VINA RESULT:      -8.0      2.337      8.369
REMARK  6 active torsions:
REMARK  status: ('A' for Active; 'I' for Inactive)
REMARK    1  A    between atoms: C_2  and  C_3 
REMARK    2  A    between atoms: C_3  and  C_4 
REMARK    3  A    between atoms: C_3  and  C_10 
REMARK    4  A    between atoms: C_10  and  C_11 
REMARK       I    between atoms: C_11  and  N_12 
REMARK    5  A    between atoms: N_12  and  C_13 
REMARK    6  A    between atoms: C_15  and  C_16 
ROOT
HETATM    1  C   UNL     1      41.218 -15.470   1.203  1.00  0.00     0.223 C 
HETATM    2  N   UNL     1      42.503 -15.665   1.662  1.00  0.00    -0.327 N 
HETATM    3  O   UNL     1      40.237 -16.132   1.537  1.00  0.00    -0.273 OA
HETATM    4  H   UNL     1      43.232 -15.108   1.240  1.00  0.00     0.169 HD
ENDROOT
BRANCH   2   5
HETATM    5  C   UNL     1      42.962 -16.633   2.581  1.00  0.00     0.035 A 
HETATM    6  C   UNL     1      43.262 -17.957   2.243  1.00  0.00     0.042 A 
HETATM    7  C   UNL     1      43.704 -18.869   3.216  1.00  0.00    -0.021 A 
HETATM    8  C   UNL     1      43.854 -18.429   4.538  1.00  0.00     0.012 A 
HETATM    9  C   UNL     1      43.555 -17.112   4.885  1.00  0.00     0.003 A 
HETATM   10  C   UNL     1      43.105 -16.222   3.911  1.00  0.00     0.029 A 
BRANCH   7  11
HETATM   11  C   UNL     1      43.999 -20.244   2.845  1.00  0.00     0.010 A 
HETATM   12  C   UNL     1      43.679 -20.976   1.674  1.00  0.00     0.152 A 
HETATM   13  N   UNL     1      44.116 -22.239   1.718  1.00  0.00    -0.187 NA
HETATM   14  N   UNL     1      44.706 -22.326   2.919  1.00  0.00    -0.289 N 
HETATM   15  H   UNL     1      45.113 -23.214   3.191  1.00  0.00     0.188 HD
HETATM   16  C   UNL     1      44.664 -21.162   3.632  1.00  0.00     0.123 A 
ENDBRANCH   7  11
ENDBRANCH   2   5
BRANCH   1  17
HETATM   17  C   UNL     1      41.017 -14.265   0.282  1.00  0.00     0.116 C 
BRANCH  17  18
HETATM   18  C   UNL     1      41.333 -14.416  -1.222  1.00  0.00     0.049 C 
BRANCH  18  19
HETATM   19  C   UNL     1      42.186 -13.236  -1.668  1.00  0.00    -0.027 C 
HETATM   20  C   UNL     1      42.420 -12.809  -2.917  1.00  0.00     0.007 C 
ENDBRANCH  18  19
BRANCH  18  21
HETATM   21  C   UNL     1      40.178 -14.822  -2.148  1.00  0.00    -0.050 A 
HETATM   22  C   UNL     1      38.953 -14.129  -2.115  1.00  0.00     0.008 A 
HETATM   23  C   UNL     1      37.897 -14.472  -2.965  1.00  0.00     0.001 A 
HETATM   24  C   UNL     1      38.052 -15.495  -3.893  1.00  0.00     0.000 A 
HETATM   25  C   UNL     1      39.268 -16.163  -3.981  1.00  0.00     0.001 A 
HETATM   26  C   UNL     1      40.322 -15.821  -3.129  1.00  0.00     0.008 A 
ENDBRANCH  18  21
ENDBRANCH  17  18
ENDBRANCH   1  17
TORSDOF 6
ENDMDL
MODEL 6
REMARK VINA RESULT:      -8.0      2.016      3.517
REMARK  6 active torsions:
REMARK  status: ('A' for Active; 'I' for Inactive)
REMARK    1  A    between atoms: C_2  and  C_3 
REMARK    2  A    between atoms: C_3  and  C_4 
REMARK    3  A    between atoms: C_3  and  C_10 
REMARK    4  A    between atoms: C_10  and  C_11 
REMARK       I    between atoms: C_11  and  N_12 
REMARK    5  A    between atoms: N_12  and  C_13 
REMARK    6  A    between atoms: C_15  and  C_16 
ROOT
HETATM    1  C   UNL     1      40.917 -17.169   2.260  1.00  0.00     0.223 C 
HETATM    2  N   UNL     1      40.484 -15.862   2.333  1.00  0.00    -0.327 N 
HETATM    3  O   UNL     1      40.811 -17.897   1.274  1.00  0.00    -0.273 OA
HETATM    4  H   UNL     1      40.551 -15.404   3.231  1.00  0.00     0.169 HD
ENDROOT
BRANCH   2   5
HETATM    5  C   UNL     1      39.845 -15.099   1.332  1.00  0.00     0.035 A 
HETATM    6  C   UNL     1      40.472 -14.654   0.163  1.00  0.00     0.042 A 
HETATM    7  C   UNL     1      39.773 -13.886  -0.785  1.00  0.00    -0.021 A 
HETATM    8  C   UNL     1      38.427 -13.580  -0.548  1.00  0.00     0.012 A 
HETATM    9  C   UNL     1      37.794 -14.018   0.615  1.00  0.00     0.003 A 
HETATM   10  C   UNL     1      38.504 -14.767   1.553  1.00  0.00     0.029 A 
BRANCH   7  11
HETATM   11  C   UNL     1      40.449 -13.424  -1.987  1.00  0.00     0.010 A 
HETATM   12  C   UNL     1      40.020 -12.542  -3.009  1.00  0.00     0.152 A 
HETATM   13  N   UNL     1      40.935 -12.379  -3.971  1.00  0.00    -0.187 NA
HETATM   14  N   UNL     1      41.947 -13.165  -3.576  1.00  0.00    -0.289 N 
HETATM   15  H   UNL     1      42.772 -13.217  -4.164  1.00  0.00     0.188 HD
HETATM   16  C   UNL     1      41.708 -13.811  -2.397  1.00  0.00     0.123 A 
ENDBRANCH   7  11
ENDBRANCH   2   5
BRANCH   1  17
HETATM   17  C   UNL     1      41.669 -17.689   3.486  1.00  0.00     0.116 C 
BRANCH  17  18
HETATM   18  C   UNL     1      43.188 -17.948   3.374  1.00  0.00     0.049 C 
BRANCH  18  19
HETATM   19  C   UNL     1      43.802 -16.897   2.459  1.00  0.00    -0.027 C 
HETATM   20  C   UNL     1      44.369 -17.076   1.258  1.00  0.00     0.007 C 
ENDBRANCH  18  19
BRANCH  18  21
HETATM   21  C   UNL     1      43.642 -19.399   3.161  1.00  0.00    -0.050 A 
HETATM   22  C   UNL     1      44.396 -20.067   4.144  1.00  0.00     0.008 A 
HETATM   23  C   UNL     1      44.801 -21.395   3.977  1.00  0.00     0.001 A 
HETATM   24  C   UNL     1      44.432 -22.099   2.837  1.00  0.00     0.000 A 
HETATM   25  C   UNL     1      43.645 -21.480   1.873  1.00  0.00     0.001 A 
HETATM   26  C   UNL     1      43.243 -20.150   2.040  1.00  0.00     0.008 A 
ENDBRANCH  18  21
ENDBRANCH  17  18
ENDBRANCH   1  17
TORSDOF 6
ENDMDL
MODEL 7
REMARK VINA RESULT:      -7.9      3.476      6.076
REMARK  6 active torsions:
REMARK  status: ('A' for Active; 'I' for Inactive)
REMARK    1  A    between atoms: C_2  and  C_3 
REMARK    2  A    between atoms: C_3  and  C_4 
REMARK    3  A    between atoms: C_3  and  C_10 
REMARK    4  A    between atoms: C_10  and  C_11 
REMARK       I    between atoms: C_11  and  N_12 
REMARK    5  A    between atoms: N_12  and  C_13 
REMARK    6  A    between atoms: C_15  and  C_16 
ROOT
HETATM    1  C   UNL     1      42.473 -15.065   4.743  1.00  0.00     0.223 C 
HETATM    2  N   UNL     1      43.520 -15.691   4.100  1.00  0.00    -0.327 N 
HETATM    3  O   UNL     1      41.281 -15.288   4.539  1.00  0.00    -0.273 OA
HETATM    4  H   UNL     1      44.451 -15.352   4.297  1.00  0.00     0.169 HD
ENDROOT
BRANCH   2   5
HETATM    5  C   UNL     1      43.458 -16.687   3.102  1.00  0.00     0.035 A 
HETATM    6  C   UNL     1      43.787 -18.030   3.311  1.00  0.00     0.042 A 
HETATM    7  C   UNL     1      43.713 -18.965   2.263  1.00  0.00    -0.021 A 
HETATM    8  C   UNL     1      43.290 -18.533   1.000  1.00  0.00     0.012 A 
HETATM    9  C   UNL     1      42.962 -17.195   0.781  1.00  0.00     0.003 A 
HETATM   10  C   UNL     1      43.053 -16.277   1.827  1.00  0.00     0.029 A 
BRANCH   7  11
HETATM   11  C   UNL     1      44.071 -20.354   2.501  1.00  0.00     0.010 A 
HETATM   12  C   UNL     1      43.891 -21.508   1.698  1.00  0.00     0.152 A 
HETATM   13  N   UNL     1      44.346 -22.621   2.282  1.00  0.00    -0.187 NA
HETATM   14  N   UNL     1      44.807 -22.189   3.465  1.00  0.00    -0.289 N 
HETATM   15  H   UNL     1      45.201 -22.871   4.104  1.00  0.00     0.188 HD
HETATM   16  C   UNL     1      44.668 -20.843   3.645  1.00  0.00     0.123 A 
ENDBRANCH   7  11
ENDBRANCH   2   5
BRANCH   1  17
HETATM   17  C   UNL     1      42.864 -14.094   5.858  1.00  0.00     0.116 C 
BRANCH  17  18
HETATM   18  C   UNL     1      43.756 -14.603   7.011  1.00  0.00     0.049 C 
BRANCH  18  19
HETATM   19  C   UNL     1      44.999 -13.727   7.098  1.00  0.00    -0.027 C 
HETATM   20  C   UNL     1      45.351 -12.886   8.081  1.00  0.00     0.007 C 
ENDBRANCH  18  19
BRANCH  18  21
HETATM   21  C   UNL     1      43.972 -16.119   7.119  1.00  0.00    -0.050 A 
HETATM   22  C   UNL     1      42.974 -16.949   7.662  1.00  0.00     0.008 A 
HETATM   23  C   UNL     1      43.143 -18.335   7.749  1.00  0.00     0.001 A 
HETATM   24  C   UNL     1      44.303 -18.928   7.265  1.00  0.00     0.000 A 
HETATM   25  C   UNL     1      45.285 -18.137   6.678  1.00  0.00     0.001 A 
HETATM   26  C   UNL     1      45.115 -16.751   6.594  1.00  0.00     0.008 A 
ENDBRANCH  18  21
ENDBRANCH  17  18
ENDBRANCH   1  17
TORSDOF 6
ENDMDL
MODEL 8
REMARK VINA RESULT:      -7.8      3.079      4.674
REMARK  6 active torsions:
REMARK  status: ('A' for Active; 'I' for Inactive)
REMARK    1  A    between atoms: C_2  and  C_3 
REMARK    2  A    between atoms: C_3  and  C_4 
REMARK    3  A    between atoms: C_3  and  C_10 
REMARK    4  A    between atoms: C_10  and  C_11 
REMARK       I    between atoms: C_11  and  N_12 
REMARK    5  A    between atoms: N_12  and  C_13 
REMARK    6  A    between atoms: C_15  and  C_16 
ROOT
HETATM    1  C   UNL     1      42.531 -17.792   1.983  1.00  0.00     0.223 C 
HETATM    2  N   UNL     1      41.367 -17.466   2.646  1.00  0.00    -0.327 N 
HETATM    3  O   UNL     1      43.259 -16.994   1.395  1.00  0.00    -0.273 OA
HETATM    4  H   UNL     1      40.816 -18.229   3.012  1.00  0.00     0.169 HD
ENDROOT
BRANCH   2   5
HETATM    5  C   UNL     1      40.773 -16.193   2.790  1.00  0.00     0.035 A 
HETATM    6  C   UNL     1      41.008 -15.334   3.867  1.00  0.00     0.042 A 
HETATM    7  C   UNL     1      40.370 -14.084   3.948  1.00  0.00    -0.021 A 
HETATM    8  C   UNL     1      39.498 -13.701   2.921  1.00  0.00     0.012 A 
HETATM    9  C   UNL     1      39.255 -14.553   1.843  1.00  0.00     0.003 A 
HETATM   10  C   UNL     1      39.885 -15.795   1.784  1.00  0.00     0.029 A 
BRANCH   7  11
HETATM   11  C   UNL     1      40.621 -13.211   5.084  1.00  0.00     0.010 A 
HETATM   12  C   UNL     1      41.711 -12.352   5.371  1.00  0.00     0.152 A 
HETATM   13  N   UNL     1      41.579 -11.720   6.542  1.00  0.00    -0.187 NA
HETATM   14  N   UNL     1      40.412 -12.180   7.016  1.00  0.00    -0.289 N 
HETATM   15  H   UNL     1      40.097 -11.845   7.920  1.00  0.00     0.188 HD
HETATM   16  C   UNL     1      39.799 -13.072   6.184  1.00  0.00     0.123 A 
ENDBRANCH   7  11
ENDBRANCH   2   5
BRANCH   1  17
HETATM   17  C   UNL     1      42.970 -19.253   2.091  1.00  0.00     0.116 C 
BRANCH  17  18
HETATM   18  C   UNL     1      44.187 -19.601   2.976  1.00  0.00     0.049 C 
BRANCH  18  19
HETATM   19  C   UNL     1      44.713 -20.973   2.575  1.00  0.00    -0.027 C 
HETATM   20  C   UNL     1      44.135 -21.879   1.774  1.00  0.00     0.007 C 
ENDBRANCH  18  19
BRANCH  18  21
HETATM   21  C   UNL     1      44.069 -19.320   4.480  1.00  0.00    -0.050 A 
HETATM   22  C   UNL     1      43.992 -20.378   5.405  1.00  0.00     0.008 A 
HETATM   23  C   UNL     1      43.905 -20.141   6.781  1.00  0.00     0.001 A 
HETATM   24  C   UNL     1      43.926 -18.840   7.268  1.00  0.00     0.000 A 
HETATM   25  C   UNL     1      44.051 -17.777   6.380  1.00  0.00     0.001 A 
HETATM   26  C   UNL     1      44.135 -18.015   5.004  1.00  0.00     0.008 A 
ENDBRANCH  18  21
ENDBRANCH  17  18
ENDBRANCH   1  17
TORSDOF 6
ENDMDL
MODEL 9
REMARK VINA RESULT:      -7.8      2.493      8.729
REMARK  6 active torsions:
REMARK  status: ('A' for Active; 'I' for Inactive)
REMARK    1  A    between atoms: C_2  and  C_3 
REMARK    2  A    between atoms: C_3  and  C_4 
REMARK    3  A    between atoms: C_3  and  C_10 
REMARK    4  A    between atoms: C_10  and  C_11 
REMARK       I    between atoms: C_11  and  N_12 
REMARK    5  A    between atoms: N_12  and  C_13 
REMARK    6  A    between atoms: C_15  and  C_16 
ROOT
HETATM    1  C   UNL     1      41.274 -15.600   1.133  1.00  0.00     0.223 C 
HETATM    2  N   UNL     1      42.573 -15.944   1.439  1.00  0.00    -0.327 N 
HETATM    3  O   UNL     1      40.272 -16.203   1.515  1.00  0.00    -0.273 OA
HETATM    4  H   UNL     1      43.308 -15.417   0.987  1.00  0.00     0.169 HD
ENDROOT
BRANCH   2   5
HETATM    5  C   UNL     1      43.027 -17.024   2.226  1.00  0.00     0.035 A 
HETATM    6  C   UNL     1      43.040 -17.026   3.624  1.00  0.00     0.042 A 
HETATM    7  C   UNL     1      43.518 -18.136   4.342  1.00  0.00    -0.021 A 
HETATM    8  C   UNL     1      43.974 -19.255   3.633  1.00  0.00     0.012 A 
HETATM    9  C   UNL     1      43.966 -19.261   2.238  1.00  0.00     0.003 A 
HETATM   10  C   UNL     1      43.502 -18.148   1.540  1.00  0.00     0.029 A 
BRANCH   7  11
HETATM   11  C   UNL     1      43.534 -18.111   5.796  1.00  0.00     0.010 A 
HETATM   12  C   UNL     1      44.449 -18.669   6.723  1.00  0.00     0.152 A 
HETATM   13  N   UNL     1      44.104 -18.441   7.994  1.00  0.00    -0.187 NA
HETATM   14  N   UNL     1      42.960 -17.747   7.888  1.00  0.00    -0.289 N 
HETATM   15  H   UNL     1      42.492 -17.463   8.741  1.00  0.00     0.188 HD
HETATM   16  C   UNL     1      42.577 -17.522   6.597  1.00  0.00     0.123 A 
ENDBRANCH   7  11
ENDBRANCH   2   5
BRANCH   1  17
HETATM   17  C   UNL     1      41.099 -14.307   0.335  1.00  0.00     0.116 C 
BRANCH  17  18
HETATM   18  C   UNL     1      41.395 -14.321  -1.180  1.00  0.00     0.049 C 
BRANCH  18  19
HETATM   19  C   UNL     1      42.174 -13.063  -1.543  1.00  0.00    -0.027 C 
HETATM   20  C   UNL     1      42.826 -12.794  -2.683  1.00  0.00     0.007 C 
ENDBRANCH  18  19
BRANCH  18  21
HETATM   21  C   UNL     1      40.247 -14.716  -2.120  1.00  0.00    -0.050 A 
HETATM   22  C   UNL     1      40.402 -15.770  -3.039  1.00  0.00     0.008 A 
HETATM   23  C   UNL     1      39.361 -16.158  -3.888  1.00  0.00     0.001 A 
HETATM   24  C   UNL     1      38.126 -15.523  -3.815  1.00  0.00     0.000 A 
HETATM   25  C   UNL     1      37.930 -14.512  -2.881  1.00  0.00     0.001 A 
HETATM   26  C   UNL     1      38.973 -14.122  -2.035  1.00  0.00     0.008 A 
ENDBRANCH  18  21
ENDBRANCH  17  18
ENDBRANCH   1  17
TORSDOF 6
ENDMDL
MODEL 10
REMARK VINA RESULT:      -7.8      6.209      9.743
REMARK  6 active torsions:
REMARK  status: ('A' for Active; 'I' for Inactive)
REMARK    1  A    between atoms: C_2  and  C_3 
REMARK    2  A    between atoms: C_3  and  C_4 
REMARK    3  A    between atoms: C_3  and  C_10 
REMARK    4  A    between atoms: C_10  and  C_11 
REMARK       I    between atoms: C_11  and  N_12 
REMARK    5  A    between atoms: N_12  and  C_13 
REMARK    6  A    between atoms: C_15  and  C_16 
ROOT
HETATM    1  C   UNL     1      43.991 -14.270   6.494  1.00  0.00     0.223 C 
HETATM    2  N   UNL     1      44.405 -14.216   7.809  1.00  0.00    -0.327 N 
HETATM    3  O   UNL     1      43.906 -13.305   5.738  1.00  0.00    -0.273 OA
HETATM    4  H   UNL     1      44.345 -15.069   8.346  1.00  0.00     0.169 HD
ENDROOT
BRANCH   2   5
HETATM    5  C   UNL     1      44.803 -13.083   8.550  1.00  0.00     0.035 A 
HETATM    6  C   UNL     1      44.090 -12.563   9.634  1.00  0.00     0.042 A 
HETATM    7  C   UNL     1      44.544 -11.422  10.319  1.00  0.00    -0.021 A 
HETATM    8  C   UNL     1      45.737 -10.815   9.906  1.00  0.00     0.012 A 
HETATM    9  C   UNL     1      46.454 -11.325   8.824  1.00  0.00     0.003 A 
HETATM   10  C   UNL     1      45.984 -12.450   8.146  1.00  0.00     0.029 A 
BRANCH   7  11
HETATM   11  C   UNL     1      43.779 -10.890  11.436  1.00  0.00     0.010 A 
HETATM   12  C   UNL     1      43.474  -9.555  11.799  1.00  0.00     0.152 A 
HETATM   13  N   UNL     1      42.751  -9.475  12.920  1.00  0.00    -0.187 NA
HETATM   14  N   UNL     1      42.598 -10.756  13.287  1.00  0.00    -0.289 N 
HETATM   15  H   UNL     1      42.080 -10.953  14.136  1.00  0.00     0.188 HD
HETATM   16  C   UNL     1      43.192 -11.641  12.434  1.00  0.00     0.123 A 
ENDBRANCH   7  11
ENDBRANCH   2   5
BRANCH   1  17
HETATM   17  C   UNL     1      43.720 -15.670   5.941  1.00  0.00     0.116 C 
BRANCH  17  18
HETATM   18  C   UNL     1      42.802 -15.818   4.708  1.00  0.00     0.049 C 
BRANCH  18  19
HETATM   19  C   UNL     1      41.350 -15.803   5.168  1.00  0.00    -0.027 C 
HETATM   20  C   UNL     1      40.760 -16.599   6.070  1.00  0.00     0.007 C 
ENDBRANCH  18  19
BRANCH  18  21
HETATM   21  C   UNL     1      43.186 -16.879   3.667  1.00  0.00    -0.050 A 
HETATM   22  C   UNL     1      43.444 -16.516   2.332  1.00  0.00     0.008 A 
HETATM   23  C   UNL     1      43.815 -17.465   1.375  1.00  0.00     0.001 A 
HETATM   24  C   UNL     1      43.970 -18.798   1.737  1.00  0.00     0.000 A 
HETATM   25  C   UNL     1      43.769 -19.177   3.060  1.00  0.00     0.001 A 
HETATM   26  C   UNL     1      43.396 -18.227   4.016  1.00  0.00     0.008 A 
ENDBRANCH  18  21
ENDBRANCH  17  18
ENDBRANCH   1  17
TORSDOF 6
ENDMDL
