MODEL 1
REMARK VINA RESULT:      -7.8      0.000      0.000
REMARK  10 active torsions:
REMARK  status: ('A' for Active; 'I' for Inactive)
REMARK    1  A    between atoms: C_2  and  O_3 
REMARK    2  A    between atoms: O_3  and  C_4 
REMARK    3  A    between atoms: C_4  and  C_5 
REMARK    4  A    between atoms: C_6  and  C_7 
REMARK    5  A    between atoms: C_16  and  C_17 
REMARK    6  A    between atoms: C_17  and  C_18 
REMARK       I    between atoms: C_18  and  N_19 
REMARK    7  A    between atoms: N_19  and  C_20 
REMARK    8  A    between atoms: C_20  and  C_21 
REMARK    9  A    between atoms: C_21  and  N_22 
REMARK   10  A    between atoms: C_31  and  C_32 
ROOT
HETATM    1  C   UNL     1      43.025 -15.573   5.100  1.00  0.00     0.075 C 
HETATM    2  C   UNL     1      42.550 -15.199   3.673  1.00  0.00     0.151 C 
HETATM    3  N   UNL     1      41.597 -14.140   3.527  1.00  0.00    -0.321 N 
HETATM    4  C   UNL     1      40.641 -13.834   2.718  1.00  0.00     0.011 C 
HETATM    5  C   UNL     1      42.119 -12.962   4.306  1.00  0.00     0.170 C 
HETATM    6  S   UNL     1      41.309 -11.496   3.893  1.00  0.00    -0.086 SA
HETATM    7  C   UNL     1      40.129 -12.415   2.848  1.00  0.00     0.135 C 
HETATM    8  N   UNL     1      43.114 -13.063   5.103  1.00  0.00    -0.219 NA
HETATM    9  C   UNL     1      43.592 -14.323   5.567  1.00  0.00     0.157 C 
ENDROOT
BRANCH   4  10
HETATM   10  C   UNL     1      40.213 -14.767   1.622  1.00  0.00     0.156 C 
BRANCH  10  11
HETATM   11  C   UNL     1      39.027 -14.287   0.812  1.00  0.00     0.223 C 
HETATM   12  N   UNL     1      39.350 -13.582  -0.320  1.00  0.00    -0.359 N 
HETATM   13  H   UNL     1      40.329 -13.380  -0.511  1.00  0.00     0.162 HD
HETATM   14  O   UNL     1      37.867 -14.541   1.126  1.00  0.00    -0.273 OA
BRANCH  12  15
HETATM   15  C   UNL     1      38.382 -12.855  -1.144  1.00  0.00     0.150 C 
BRANCH  15  16
HETATM   16  C   UNL     1      38.397 -13.199  -2.649  1.00  0.00     0.253 C 
BRANCH  16  17
HETATM   17  N   UNL     1      38.404 -14.694  -2.904  1.00  0.00    -0.077 N 
HETATM   18  H   UNL     1      38.433 -15.162  -1.977  1.00  0.00     0.279 HD
HETATM   19  C   UNL     1      37.158 -15.191  -3.587  1.00  0.00     0.269 C 
HETATM   20  C   UNL     1      39.634 -15.126  -3.654  1.00  0.00     0.269 C 
ENDBRANCH  16  17
ENDBRANCH  15  16
ENDBRANCH  12  15
ENDBRANCH  10  11
ENDBRANCH   4  10
BRANCH   2  21
HETATM   21  C   UNL     1      42.060 -16.518   3.895  1.00  0.00     0.044 C 
HETATM   22  C   UNL     1      43.662 -17.431   3.799  1.00  0.00    -0.068 C 
HETATM   23  C   UNL     1      44.337 -17.978   5.010  1.00  0.00     0.044 C 
HETATM   24  C   UNL     1      44.272 -17.776   2.176  1.00  0.00     0.004 C 
HETATM   25  C   UNL     1      43.308 -17.335   0.729  1.00  0.00     0.007 C 
HETATM   26  C   UNL     1      41.656 -16.622   0.859  1.00  0.00    -0.065 C 
HETATM   27  C   UNL     1      40.799 -16.513  -0.368  1.00  0.00     0.048 C 
HETATM   28  C   UNL     1      40.947 -16.278   2.440  1.00  0.00    -0.002 C 
ENDBRANCH   2  21
BRANCH   1  29
HETATM   29  C   UNL     1      42.618 -17.634   5.510  1.00  0.00     0.293 C 
HETATM   30  O   UNL     1      41.838 -18.392   4.858  1.00  0.00    -0.259 OA
BRANCH  29  31
HETATM   31  O   UNL     1      43.167 -18.424   6.581  1.00  0.00    -0.318 OA
BRANCH  31  32
HETATM   32  C   UNL     1      43.249 -17.892   7.922  1.00  0.00     0.174 C 
HETATM   33  C   UNL     1      44.278 -18.666   8.720  1.00  0.00     0.034 C 
ENDBRANCH  31  32
ENDBRANCH  29  31
ENDBRANCH   1  29
BRANCH   9  34
HETATM   34  C   UNL     1      44.602 -13.996   6.735  1.00  0.00     0.435 C 
HETATM   35  F   UNL     1      44.135 -12.951   7.481  1.00  0.00    -0.165 F 
HETATM   36  F   UNL     1      44.742 -15.030   7.601  1.00  0.00    -0.165 F 
HETATM   37  F   UNL     1      45.827 -13.599   6.319  1.00  0.00    -0.165 F 
ENDBRANCH   9  34
TORSDOF 10
ENDMDL
MODEL 2
REMARK VINA RESULT:      -7.8      3.782      7.830
REMARK  10 active torsions:
REMARK  status: ('A' for Active; 'I' for Inactive)
REMARK    1  A    between atoms: C_2  and  O_3 
REMARK    2  A    between atoms: O_3  and  C_4 
REMARK    3  A    between atoms: C_4  and  C_5 
REMARK    4  A    between atoms: C_6  and  C_7 
REMARK    5  A    between atoms: C_16  and  C_17 
REMARK    6  A    between atoms: C_17  and  C_18 
REMARK       I    between atoms: C_18  and  N_19 
REMARK    7  A    between atoms: N_19  and  C_20 
REMARK    8  A    between atoms: C_20  and  C_21 
REMARK    9  A    between atoms: C_21  and  N_22 
REMARK   10  A    between atoms: C_31  and  C_32 
ROOT
HETATM    1  C   UNL     1      40.839 -14.618   2.610  1.00  0.00     0.075 C 
HETATM    2  C   UNL     1      41.215 -14.657   4.114  1.00  0.00     0.151 C 
HETATM    3  N   UNL     1      41.592 -13.434   4.755  1.00  0.00    -0.321 N 
HETATM    4  C   UNL     1      42.371 -13.073   5.717  1.00  0.00     0.011 C 
HETATM    5  C   UNL     1      40.527 -12.418   4.437  1.00  0.00     0.170 C 
HETATM    6  S   UNL     1      40.616 -11.035   5.464  1.00  0.00    -0.086 SA
HETATM    7  C   UNL     1      42.171 -11.650   6.196  1.00  0.00     0.135 C 
HETATM    8  N   UNL     1      39.621 -12.637   3.561  1.00  0.00    -0.219 NA
HETATM    9  C   UNL     1      39.728 -13.686   2.601  1.00  0.00     0.157 C 
ENDROOT
BRANCH   4  10
HETATM   10  C   UNL     1      43.269 -14.057   6.410  1.00  0.00     0.156 C 
BRANCH  10  11
HETATM   11  C   UNL     1      44.419 -13.433   7.173  1.00  0.00     0.223 C 
HETATM   12  N   UNL     1      44.128 -13.086   8.468  1.00  0.00    -0.359 N 
HETATM   13  H   UNL     1      43.177 -13.210   8.809  1.00  0.00     0.162 HD
HETATM   14  O   UNL     1      45.534 -13.283   6.681  1.00  0.00    -0.273 OA
BRANCH  12  15
HETATM   15  C   UNL     1      45.009 -12.295   9.329  1.00  0.00     0.150 C 
BRANCH  15  16
HETATM   16  C   UNL     1      44.319 -11.182  10.147  1.00  0.00     0.253 C 
BRANCH  16  17
HETATM   17  N   UNL     1      43.026 -11.647  10.787  1.00  0.00    -0.077 N 
HETATM   18  H   UNL     1      42.865 -12.625  10.475  1.00  0.00     0.279 HD
HETATM   19  C   UNL     1      43.083 -11.691  12.290  1.00  0.00     0.269 C 
HETATM   20  C   UNL     1      41.849 -10.836  10.320  1.00  0.00     0.269 C 
ENDBRANCH  16  17
ENDBRANCH  15  16
ENDBRANCH  12  15
ENDBRANCH  10  11
ENDBRANCH   4  10
BRANCH   2  21
HETATM   21  C   UNL     1      42.228 -15.412   3.455  1.00  0.00     0.044 C 
HETATM   22  C   UNL     1      41.243 -16.924   3.065  1.00  0.00    -0.068 C 
HETATM   23  C   UNL     1      40.771 -17.229   1.685  1.00  0.00     0.044 C 
HETATM   24  C   UNL     1      41.032 -18.084   4.383  1.00  0.00     0.004 C 
HETATM   25  C   UNL     1      41.832 -17.819   5.966  1.00  0.00     0.007 C 
HETATM   26  C   UNL     1      42.950 -16.432   6.254  1.00  0.00    -0.065 C 
HETATM   27  C   UNL     1      43.785 -16.401   7.501  1.00  0.00     0.048 C 
HETATM   28  C   UNL     1      43.252 -15.242   4.984  1.00  0.00    -0.002 C 
ENDBRANCH   2  21
BRANCH   1  29
HETATM   29  C   UNL     1      42.100 -15.932   1.486  1.00  0.00     0.293 C 
HETATM   30  O   UNL     1      41.855 -16.413   0.339  1.00  0.00    -0.259 OA
BRANCH  29  31
HETATM   31  O   UNL     1      43.383 -16.447   1.888  1.00  0.00    -0.318 OA
BRANCH  31  32
HETATM   32  C   UNL     1      44.027 -17.494   1.128  1.00  0.00     0.174 C 
HETATM   33  C   UNL     1      44.127 -18.751   1.968  1.00  0.00     0.034 C 
ENDBRANCH  31  32
ENDBRANCH  29  31
ENDBRANCH   1  29
BRANCH   9  34
HETATM   34  C   UNL     1      38.583 -13.423   1.548  1.00  0.00     0.435 C 
HETATM   35  F   UNL     1      37.776 -12.406   1.974  1.00  0.00    -0.165 F 
HETATM   36  F   UNL     1      39.069 -13.023   0.346  1.00  0.00    -0.165 F 
HETATM   37  F   UNL     1      37.745 -14.469   1.361  1.00  0.00    -0.165 F 
ENDBRANCH   9  34
TORSDOF 10
ENDMDL
MODEL 3
REMARK VINA RESULT:      -7.4      1.580      2.898
REMARK  10 active torsions:
REMARK  status: ('A' for Active; 'I' for Inactive)
REMARK    1  A    between atoms: C_2  and  O_3 
REMARK    2  A    between atoms: O_3  and  C_4 
REMARK    3  A    between atoms: C_4  and  C_5 
REMARK    4  A    between atoms: C_6  and  C_7 
REMARK    5  A    between atoms: C_16  and  C_17 
REMARK    6  A    between atoms: C_17  and  C_18 
REMARK       I    between atoms: C_18  and  N_19 
REMARK    7  A    between atoms: N_19  and  C_20 
REMARK    8  A    between atoms: C_20  and  C_21 
REMARK    9  A    between atoms: C_21  and  N_22 
REMARK   10  A    between atoms: C_31  and  C_32 
ROOT
HETATM    1  C   UNL     1      43.945 -15.883   5.021  1.00  0.00     0.075 C 
HETATM    2  C   UNL     1      43.591 -15.557   3.547  1.00  0.00     0.151 C 
HETATM    3  N   UNL     1      42.320 -14.960   3.267  1.00  0.00    -0.321 N 
HETATM    4  C   UNL     1      41.467 -14.966   2.300  1.00  0.00     0.011 C 
HETATM    5  C   UNL     1      42.171 -13.778   4.187  1.00  0.00     0.170 C 
HETATM    6  S   UNL     1      40.900 -12.722   3.692  1.00  0.00    -0.086 SA
HETATM    7  C   UNL     1      40.395 -13.901   2.393  1.00  0.00     0.135 C 
HETATM    8  N   UNL     1      42.976 -13.570   5.158  1.00  0.00    -0.219 NA
HETATM    9  C   UNL     1      43.856 -14.578   5.648  1.00  0.00     0.157 C 
ENDROOT
BRANCH   4  10
HETATM   10  C   UNL     1      41.649 -15.849   1.099  1.00  0.00     0.156 C 
BRANCH  10  11
HETATM   11  C   UNL     1      41.569 -15.129  -0.231  1.00  0.00     0.223 C 
HETATM   12  N   UNL     1      41.071 -15.882  -1.264  1.00  0.00    -0.359 N 
HETATM   13  H   UNL     1      40.848 -16.861  -1.097  1.00  0.00     0.162 HD
HETATM   14  O   UNL     1      41.891 -13.952  -0.364  1.00  0.00    -0.273 OA
BRANCH  12  15
HETATM   15  C   UNL     1      41.087 -15.470  -2.669  1.00  0.00     0.150 C 
BRANCH  15  16
HETATM   16  C   UNL     1      39.769 -15.690  -3.443  1.00  0.00     0.253 C 
BRANCH  16  17
HETATM   17  N   UNL     1      38.601 -14.947  -2.826  1.00  0.00    -0.077 N 
HETATM   18  H   UNL     1      38.455 -15.341  -1.876  1.00  0.00     0.279 HD
HETATM   19  C   UNL     1      38.858 -13.477  -2.636  1.00  0.00     0.269 C 
HETATM   20  C   UNL     1      37.328 -15.171  -3.596  1.00  0.00     0.269 C 
ENDBRANCH  16  17
ENDBRANCH  15  16
ENDBRANCH  12  15
ENDBRANCH  10  11
ENDBRANCH   4  10
BRANCH   2  21
HETATM   21  C   UNL     1      43.668 -16.978   3.608  1.00  0.00     0.044 C 
HETATM   22  C   UNL     1      42.879 -17.371   1.986  1.00  0.00    -0.068 C 
HETATM   23  C   UNL     1      43.669 -17.842   0.813  1.00  0.00     0.044 C 
HETATM   24  C   UNL     1      41.113 -17.324   1.941  1.00  0.00     0.004 C 
HETATM   25  C   UNL     1      40.173 -17.008   3.435  1.00  0.00     0.007 C 
HETATM   26  C   UNL     1      40.966 -16.824   5.045  1.00  0.00    -0.065 C 
HETATM   27  C   UNL     1      40.125 -16.818   6.288  1.00  0.00     0.048 C 
HETATM   28  C   UNL     1      42.725 -16.894   5.194  1.00  0.00    -0.002 C 
ENDBRANCH   2  21
BRANCH   1  29
HETATM   29  C   UNL     1      44.375 -17.967   5.247  1.00  0.00     0.293 C 
HETATM   30  O   UNL     1      44.201 -18.663   6.292  1.00  0.00    -0.259 OA
BRANCH  29  31
HETATM   31  O   UNL     1      44.923 -18.847   4.248  1.00  0.00    -0.318 OA
BRANCH  31  32
HETATM   32  C   UNL     1      44.733 -20.276   4.341  1.00  0.00     0.174 C 
HETATM   33  C   UNL     1      44.517 -20.857   2.958  1.00  0.00     0.034 C 
ENDBRANCH  31  32
ENDBRANCH  29  31
ENDBRANCH   1  29
BRANCH   9  34
HETATM   34  C   UNL     1      44.436 -14.021   7.006  1.00  0.00     0.435 C 
HETATM   35  F   UNL     1      43.802 -12.860   7.347  1.00  0.00    -0.165 F 
HETATM   36  F   UNL     1      44.227 -14.869   8.043  1.00  0.00    -0.165 F 
HETATM   37  F   UNL     1      45.748 -13.692   6.959  1.00  0.00    -0.165 F 
ENDBRANCH   9  34
TORSDOF 10
ENDMDL
MODEL 4
REMARK VINA RESULT:      -7.1      1.034      1.711
REMARK  10 active torsions:
REMARK  status: ('A' for Active; 'I' for Inactive)
REMARK    1  A    between atoms: C_2  and  O_3 
REMARK    2  A    between atoms: O_3  and  C_4 
REMARK    3  A    between atoms: C_4  and  C_5 
REMARK    4  A    between atoms: C_6  and  C_7 
REMARK    5  A    between atoms: C_16  and  C_17 
REMARK    6  A    between atoms: C_17  and  C_18 
REMARK       I    between atoms: C_18  and  N_19 
REMARK    7  A    between atoms: N_19  and  C_20 
REMARK    8  A    between atoms: C_20  and  C_21 
REMARK    9  A    between atoms: C_21  and  N_22 
REMARK   10  A    between atoms: C_31  and  C_32 
ROOT
HETATM    1  C   UNL     1      43.037 -15.625   5.005  1.00  0.00     0.075 C 
HETATM    2  C   UNL     1      42.565 -15.224   3.584  1.00  0.00     0.151 C 
HETATM    3  N   UNL     1      41.628 -14.149   3.455  1.00  0.00    -0.321 N 
HETATM    4  C   UNL     1      40.675 -13.818   2.652  1.00  0.00     0.011 C 
HETATM    5  C   UNL     1      42.168 -12.990   4.249  1.00  0.00     0.170 C 
HETATM    6  S   UNL     1      41.380 -11.506   3.858  1.00  0.00    -0.086 SA
HETATM    7  C   UNL     1      40.184 -12.394   2.803  1.00  0.00     0.135 C 
HETATM    8  N   UNL     1      43.163 -13.117   5.042  1.00  0.00    -0.219 NA
HETATM    9  C   UNL     1      43.624 -14.390   5.488  1.00  0.00     0.157 C 
ENDROOT
BRANCH   4  10
HETATM   10  C   UNL     1      40.231 -14.730   1.544  1.00  0.00     0.156 C 
BRANCH  10  11
HETATM   11  C   UNL     1      38.961 -14.297   0.842  1.00  0.00     0.223 C 
HETATM   12  N   UNL     1      39.157 -13.626  -0.339  1.00  0.00    -0.359 N 
HETATM   13  H   UNL     1      40.108 -13.415  -0.634  1.00  0.00     0.162 HD
HETATM   14  O   UNL     1      37.844 -14.559   1.277  1.00  0.00    -0.273 OA
BRANCH  12  15
HETATM   15  C   UNL     1      38.098 -12.943  -1.086  1.00  0.00     0.150 C 
BRANCH  15  16
HETATM   16  C   UNL     1      37.841 -11.474  -0.687  1.00  0.00     0.253 C 
BRANCH  16  17
HETATM   17  N   UNL     1      38.341 -10.492  -1.727  1.00  0.00    -0.077 N 
HETATM   18  H   UNL     1      39.154  -9.995  -1.312  1.00  0.00     0.279 HD
HETATM   19  C   UNL     1      38.847 -11.152  -2.981  1.00  0.00     0.269 C 
HETATM   20  C   UNL     1      37.308  -9.448  -2.052  1.00  0.00     0.269 C 
ENDBRANCH  16  17
ENDBRANCH  15  16
ENDBRANCH  12  15
ENDBRANCH  10  11
ENDBRANCH   4  10
BRANCH   2  21
HETATM   21  C   UNL     1      42.056 -16.539   3.790  1.00  0.00     0.044 C 
HETATM   22  C   UNL     1      43.647 -17.471   3.710  1.00  0.00    -0.068 C 
HETATM   23  C   UNL     1      44.298 -18.035   4.927  1.00  0.00     0.044 C 
HETATM   24  C   UNL     1      44.278 -17.811   2.094  1.00  0.00     0.004 C 
HETATM   25  C   UNL     1      43.342 -17.349   0.636  1.00  0.00     0.007 C 
HETATM   26  C   UNL     1      41.696 -16.616   0.746  1.00  0.00    -0.065 C 
HETATM   27  C   UNL     1      40.859 -16.487  -0.492  1.00  0.00     0.048 C 
HETATM   28  C   UNL     1      40.968 -16.274   2.320  1.00  0.00    -0.002 C 
ENDBRANCH   2  21
BRANCH   1  29
HETATM   29  C   UNL     1      42.599 -17.685   5.388  1.00  0.00     0.293 C 
HETATM   30  O   UNL     1      41.974 -18.478   4.621  1.00  0.00    -0.259 OA
BRANCH  29  31
HETATM   31  O   UNL     1      42.950 -18.435   6.565  1.00  0.00    -0.318 OA
BRANCH  31  32
HETATM   32  C   UNL     1      43.090 -17.777   7.844  1.00  0.00     0.174 C 
HETATM   33  C   UNL     1      44.203 -18.429   8.639  1.00  0.00     0.034 C 
ENDBRANCH  31  32
ENDBRANCH  29  31
ENDBRANCH   1  29
BRANCH   9  34
HETATM   34  C   UNL     1      44.641 -14.094   6.658  1.00  0.00     0.435 C 
HETATM   35  F   UNL     1      44.975 -15.255   7.296  1.00  0.00    -0.165 F 
HETATM   36  F   UNL     1      45.809 -13.576   6.207  1.00  0.00    -0.165 F 
HETATM   37  F   UNL     1      44.150 -13.296   7.635  1.00  0.00    -0.165 F 
ENDBRANCH   9  34
TORSDOF 10
ENDMDL
MODEL 5
REMARK VINA RESULT:      -7.0      4.188      7.294
REMARK  10 active torsions:
REMARK  status: ('A' for Active; 'I' for Inactive)
REMARK    1  A    between atoms: C_2  and  O_3 
REMARK    2  A    between atoms: O_3  and  C_4 
REMARK    3  A    between atoms: C_4  and  C_5 
REMARK    4  A    between atoms: C_6  and  C_7 
REMARK    5  A    between atoms: C_16  and  C_17 
REMARK    6  A    between atoms: C_17  and  C_18 
REMARK       I    between atoms: C_18  and  N_19 
REMARK    7  A    between atoms: N_19  and  C_20 
REMARK    8  A    between atoms: C_20  and  C_21 
REMARK    9  A    between atoms: C_21  and  N_22 
REMARK   10  A    between atoms: C_31  and  C_32 
ROOT
HETATM    1  C   UNL     1      41.885 -11.080   0.358  1.00  0.00     0.075 C 
HETATM    2  C   UNL     1      41.942 -12.618   0.548  1.00  0.00     0.151 C 
HETATM    3  N   UNL     1      41.382 -13.451  -0.473  1.00  0.00    -0.321 N 
HETATM    4  C   UNL     1      40.805 -14.603  -0.541  1.00  0.00     0.011 C 
HETATM    5  C   UNL     1      41.959 -12.995  -1.786  1.00  0.00     0.170 C 
HETATM    6  S   UNL     1      41.713 -14.150  -3.044  1.00  0.00    -0.086 SA
HETATM    7  C   UNL     1      40.670 -15.163  -1.941  1.00  0.00     0.135 C 
HETATM    8  N   UNL     1      42.630 -11.911  -1.892  1.00  0.00    -0.219 NA
HETATM    9  C   UNL     1      42.610 -10.903  -0.885  1.00  0.00     0.157 C 
ENDROOT
BRANCH   4  10
HETATM   10  C   UNL     1      40.468 -15.385   0.696  1.00  0.00     0.156 C 
BRANCH  10  11
HETATM   11  C   UNL     1      41.270 -16.657   0.876  1.00  0.00     0.223 C 
HETATM   12  N   UNL     1      42.631 -16.487   0.848  1.00  0.00    -0.359 N 
HETATM   13  H   UNL     1      43.008 -15.561   0.658  1.00  0.00     0.162 HD
HETATM   14  O   UNL     1      40.743 -17.749   1.067  1.00  0.00    -0.273 OA
BRANCH  12  15
HETATM   15  C   UNL     1      43.600 -17.584   0.802  1.00  0.00     0.150 C 
BRANCH  15  16
HETATM   16  C   UNL     1      44.247 -17.960   2.152  1.00  0.00     0.253 C 
BRANCH  16  17
HETATM   17  N   UNL     1      43.476 -19.039   2.887  1.00  0.00    -0.077 N 
HETATM   18  H   UNL     1      42.760 -19.405   2.229  1.00  0.00     0.279 HD
HETATM   19  C   UNL     1      44.324 -20.217   3.284  1.00  0.00     0.269 C 
HETATM   20  C   UNL     1      42.739 -18.486   4.076  1.00  0.00     0.269 C 
ENDBRANCH  16  17
ENDBRANCH  15  16
ENDBRANCH  12  15
ENDBRANCH  10  11
ENDBRANCH   4  10
BRANCH   2  21
HETATM   21  C   UNL     1      41.080 -12.146   1.579  1.00  0.00     0.044 C 
HETATM   22  C   UNL     1      40.614 -13.771   2.320  1.00  0.00    -0.068 C 
HETATM   23  C   UNL     1      41.159 -14.231   3.628  1.00  0.00     0.044 C 
HETATM   24  C   UNL     1      39.352 -14.682   1.482  1.00  0.00     0.004 C 
HETATM   25  C   UNL     1      38.524 -13.986   0.052  1.00  0.00     0.007 C 
HETATM   26  C   UNL     1      38.862 -12.312  -0.531  1.00  0.00    -0.065 C 
HETATM   27  C   UNL     1      37.966 -11.693  -1.563  1.00  0.00     0.048 C 
HETATM   28  C   UNL     1      40.080 -11.312   0.267  1.00  0.00    -0.002 C 
ENDBRANCH   2  21
BRANCH   1  29
HETATM   29  C   UNL     1      40.851 -10.160   1.990  1.00  0.00     0.293 C 
HETATM   30  O   UNL     1      40.071  -9.163   1.921  1.00  0.00    -0.259 OA
BRANCH  29  31
HETATM   31  O   UNL     1      40.910 -10.547   3.375  1.00  0.00    -0.318 OA
BRANCH  31  32
HETATM   32  C   UNL     1      39.858 -10.170   4.291  1.00  0.00     0.174 C 
HETATM   33  C   UNL     1      38.779 -11.233   4.300  1.00  0.00     0.034 C 
ENDBRANCH  31  32
ENDBRANCH  29  31
ENDBRANCH   1  29
BRANCH   9  34
HETATM   34  C   UNL     1      43.305  -9.640  -1.528  1.00  0.00     0.435 C 
HETATM   35  F   UNL     1      43.158  -9.663  -2.886  1.00  0.00    -0.165 F 
HETATM   36  F   UNL     1      42.740  -8.477  -1.120  1.00  0.00    -0.165 F 
HETATM   37  F   UNL     1      44.642  -9.577  -1.329  1.00  0.00    -0.165 F 
ENDBRANCH   9  34
TORSDOF 10
ENDMDL
MODEL 6
REMARK VINA RESULT:      -6.9      3.558      5.029
REMARK  10 active torsions:
REMARK  status: ('A' for Active; 'I' for Inactive)
REMARK    1  A    between atoms: C_2  and  O_3 
REMARK    2  A    between atoms: O_3  and  C_4 
REMARK    3  A    between atoms: C_4  and  C_5 
REMARK    4  A    between atoms: C_6  and  C_7 
REMARK    5  A    between atoms: C_16  and  C_17 
REMARK    6  A    between atoms: C_17  and  C_18 
REMARK       I    between atoms: C_18  and  N_19 
REMARK    7  A    between atoms: N_19  and  C_20 
REMARK    8  A    between atoms: C_20  and  C_21 
REMARK    9  A    between atoms: C_21  and  N_22 
REMARK   10  A    between atoms: C_31  and  C_32 
ROOT
HETATM    1  C   UNL     1      42.934 -16.610   3.675  1.00  0.00     0.075 C 
HETATM    2  C   UNL     1      41.810 -15.626   3.260  1.00  0.00     0.151 C 
HETATM    3  N   UNL     1      41.861 -15.045   1.953  1.00  0.00    -0.321 N 
HETATM    4  C   UNL     1      41.500 -13.939   1.396  1.00  0.00     0.011 C 
HETATM    5  C   UNL     1      42.053 -16.172   0.972  1.00  0.00     0.170 C 
HETATM    6  S   UNL     1      41.718 -15.690  -0.650  1.00  0.00    -0.086 SA
HETATM    7  C   UNL     1      41.521 -13.955  -0.118  1.00  0.00     0.135 C 
HETATM    8  N   UNL     1      42.340 -17.359   1.352  1.00  0.00    -0.219 NA
HETATM    9  C   UNL     1      42.817 -17.644   2.664  1.00  0.00     0.157 C 
ENDROOT
BRANCH   4  10
HETATM   10  C   UNL     1      40.936 -12.804   2.200  1.00  0.00     0.156 C 
BRANCH  10  11
HETATM   11  C   UNL     1      40.596 -11.568   1.394  1.00  0.00     0.223 C 
HETATM   12  N   UNL     1      41.569 -10.600   1.388  1.00  0.00    -0.359 N 
HETATM   13  H   UNL     1      42.405 -10.738   1.951  1.00  0.00     0.162 HD
HETATM   14  O   UNL     1      39.548 -11.457   0.766  1.00  0.00    -0.273 OA
BRANCH  12  15
HETATM   15  C   UNL     1      41.387  -9.250   0.849  1.00  0.00     0.150 C 
BRANCH  15  16
HETATM   16  C   UNL     1      41.781  -9.065  -0.632  1.00  0.00     0.253 C 
BRANCH  16  17
HETATM   17  N   UNL     1      42.967  -9.922  -1.031  1.00  0.00    -0.077 N 
HETATM   18  H   UNL     1      43.184 -10.539  -0.223  1.00  0.00     0.279 HD
HETATM   19  C   UNL     1      42.683 -10.836  -2.192  1.00  0.00     0.269 C 
HETATM   20  C   UNL     1      44.194  -9.092  -1.291  1.00  0.00     0.269 C 
ENDBRANCH  16  17
ENDBRANCH  15  16
ENDBRANCH  12  15
ENDBRANCH  10  11
ENDBRANCH   4  10
BRANCH   2  21
HETATM   21  C   UNL     1      42.510 -14.972   4.315  1.00  0.00     0.044 C 
HETATM   22  C   UNL     1      41.916 -16.002   5.727  1.00  0.00    -0.068 C 
HETATM   23  C   UNL     1      42.789 -17.007   6.398  1.00  0.00     0.044 C 
HETATM   24  C   UNL     1      40.311 -15.616   6.358  1.00  0.00     0.004 C 
HETATM   25  C   UNL     1      39.384 -14.228   5.703  1.00  0.00     0.007 C 
HETATM   26  C   UNL     1      40.073 -13.118   4.458  1.00  0.00    -0.065 C 
HETATM   27  C   UNL     1      39.363 -11.836   4.136  1.00  0.00     0.048 C 
HETATM   28  C   UNL     1      41.686 -13.402   3.795  1.00  0.00    -0.002 C 
ENDBRANCH   2  21
BRANCH   1  29
HETATM   29  C   UNL     1      43.926 -15.916   5.439  1.00  0.00     0.293 C 
HETATM   30  O   UNL     1      44.565 -16.626   6.273  1.00  0.00    -0.259 OA
BRANCH  29  31
HETATM   31  O   UNL     1      43.994 -14.558   5.912  1.00  0.00    -0.318 OA
BRANCH  31  32
HETATM   32  C   UNL     1      45.113 -14.110   6.708  1.00  0.00     0.174 C 
HETATM   33  C   UNL     1      44.613 -13.320   7.900  1.00  0.00     0.034 C 
ENDBRANCH  31  32
ENDBRANCH  29  31
ENDBRANCH   1  29
BRANCH   9  34
HETATM   34  C   UNL     1      43.327 -19.137   2.621  1.00  0.00     0.435 C 
HETATM   35  F   UNL     1      43.352 -19.662   3.882  1.00  0.00    -0.165 F 
HETATM   36  F   UNL     1      42.503 -19.943   1.907  1.00  0.00    -0.165 F 
HETATM   37  F   UNL     1      44.593 -19.282   2.165  1.00  0.00    -0.165 F 
ENDBRANCH   9  34
TORSDOF 10
ENDMDL
MODEL 7
REMARK VINA RESULT:      -6.8      4.096      8.538
REMARK  10 active torsions:
REMARK  status: ('A' for Active; 'I' for Inactive)
REMARK    1  A    between atoms: C_2  and  O_3 
REMARK    2  A    between atoms: O_3  and  C_4 
REMARK    3  A    between atoms: C_4  and  C_5 
REMARK    4  A    between atoms: C_6  and  C_7 
REMARK    5  A    between atoms: C_16  and  C_17 
REMARK    6  A    between atoms: C_17  and  C_18 
REMARK       I    between atoms: C_18  and  N_19 
REMARK    7  A    between atoms: N_19  and  C_20 
REMARK    8  A    between atoms: C_20  and  C_21 
REMARK    9  A    between atoms: C_21  and  N_22 
REMARK   10  A    between atoms: C_31  and  C_32 
ROOT
HETATM    1  C   UNL     1      39.649 -14.025  -0.796  1.00  0.00     0.075 C 
HETATM    2  C   UNL     1      40.423 -13.903   0.541  1.00  0.00     0.151 C 
HETATM    3  N   UNL     1      40.686 -15.096   1.288  1.00  0.00    -0.321 N 
HETATM    4  C   UNL     1      40.823 -15.423   2.528  1.00  0.00     0.011 C 
HETATM    5  C   UNL     1      41.299 -16.090   0.338  1.00  0.00     0.170 C 
HETATM    6  S   UNL     1      42.049 -17.406   1.163  1.00  0.00    -0.086 SA
HETATM    7  C   UNL     1      41.402 -16.803   2.760  1.00  0.00     0.135 C 
HETATM    8  N   UNL     1      41.323 -15.893  -0.926  1.00  0.00    -0.219 NA
HETATM    9  C   UNL     1      40.504 -14.914  -1.559  1.00  0.00     0.157 C 
ENDROOT
BRANCH   4  10
HETATM   10  C   UNL     1      40.593 -14.430   3.631  1.00  0.00     0.156 C 
BRANCH  10  11
HETATM   11  C   UNL     1      40.881 -14.955   5.022  1.00  0.00     0.223 C 
HETATM   12  N   UNL     1      42.211 -15.143   5.301  1.00  0.00    -0.359 N 
HETATM   13  H   UNL     1      42.896 -14.981   4.567  1.00  0.00     0.162 HD
HETATM   14  O   UNL     1      39.995 -15.161   5.847  1.00  0.00    -0.273 OA
BRANCH  12  15
HETATM   15  C   UNL     1      42.716 -15.823   6.496  1.00  0.00     0.150 C 
BRANCH  15  16
HETATM   16  C   UNL     1      42.886 -17.352   6.372  1.00  0.00     0.253 C 
BRANCH  16  17
HETATM   17  N   UNL     1      44.140 -17.739   5.614  1.00  0.00    -0.077 N 
HETATM   18  H   UNL     1      44.430 -16.910   5.059  1.00  0.00     0.279 HD
HETATM   19  C   UNL     1      45.303 -18.071   6.510  1.00  0.00     0.269 C 
HETATM   20  C   UNL     1      43.882 -18.854   4.638  1.00  0.00     0.269 C 
ENDBRANCH  16  17
ENDBRANCH  15  16
ENDBRANCH  12  15
ENDBRANCH  10  11
ENDBRANCH   4  10
BRANCH   2  21
HETATM   21  C   UNL     1      39.186 -13.230   0.762  1.00  0.00     0.044 C 
HETATM   22  C   UNL     1      39.490 -11.737  -0.280  1.00  0.00    -0.068 C 
HETATM   23  C   UNL     1      38.825 -11.543  -1.600  1.00  0.00     0.044 C 
HETATM   24  C   UNL     1      40.478 -10.463   0.445  1.00  0.00     0.004 C 
HETATM   25  C   UNL     1      41.051 -10.607   2.138  1.00  0.00     0.007 C 
HETATM   26  C   UNL     1      40.573 -11.988   3.197  1.00  0.00    -0.065 C 
HETATM   27  C   UNL     1      40.866 -11.928   4.667  1.00  0.00     0.048 C 
HETATM   28  C   UNL     1      39.555 -13.290   2.571  1.00  0.00    -0.002 C 
ENDBRANCH   2  21
BRANCH   1  29
HETATM   29  C   UNL     1      37.872 -12.833  -0.747  1.00  0.00     0.293 C 
HETATM   30  O   UNL     1      37.213 -12.422  -1.749  1.00  0.00    -0.259 OA
BRANCH  29  31
HETATM   31  O   UNL     1      37.199 -12.339   0.425  1.00  0.00    -0.318 OA
BRANCH  31  32
HETATM   32  C   UNL     1      35.930 -11.655   0.313  1.00  0.00     0.174 C 
HETATM   33  C   UNL     1      35.902 -10.467   1.253  1.00  0.00     0.034 C 
ENDBRANCH  31  32
ENDBRANCH  29  31
ENDBRANCH   1  29
BRANCH   9  34
HETATM   34  C   UNL     1      40.609 -15.201  -3.107  1.00  0.00     0.435 C 
HETATM   35  F   UNL     1      41.919 -15.213  -3.496  1.00  0.00    -0.165 F 
HETATM   36  F   UNL     1      40.119 -16.421  -3.440  1.00  0.00    -0.165 F 
HETATM   37  F   UNL     1      40.028 -14.262  -3.891  1.00  0.00    -0.165 F 
ENDBRANCH   9  34
TORSDOF 10
ENDMDL
MODEL 8
REMARK VINA RESULT:      -6.8      3.322      7.278
REMARK  10 active torsions:
REMARK  status: ('A' for Active; 'I' for Inactive)
REMARK    1  A    between atoms: C_2  and  O_3 
REMARK    2  A    between atoms: O_3  and  C_4 
REMARK    3  A    between atoms: C_4  and  C_5 
REMARK    4  A    between atoms: C_6  and  C_7 
REMARK    5  A    between atoms: C_16  and  C_17 
REMARK    6  A    between atoms: C_17  and  C_18 
REMARK       I    between atoms: C_18  and  N_19 
REMARK    7  A    between atoms: N_19  and  C_20 
REMARK    8  A    between atoms: C_20  and  C_21 
REMARK    9  A    between atoms: C_21  and  N_22 
REMARK   10  A    between atoms: C_31  and  C_32 
ROOT
HETATM    1  C   UNL     1      41.400 -11.813   3.618  1.00  0.00     0.075 C 
HETATM    2  C   UNL     1      41.297 -13.359   3.662  1.00  0.00     0.151 C 
HETATM    3  N   UNL     1      42.364 -14.097   4.269  1.00  0.00    -0.321 N 
HETATM    4  C   UNL     1      42.916 -15.253   4.122  1.00  0.00     0.011 C 
HETATM    5  C   UNL     1      42.619 -13.481   5.619  1.00  0.00     0.170 C 
HETATM    6  S   UNL     1      43.572 -14.501   6.632  1.00  0.00    -0.086 SA
HETATM    7  C   UNL     1      43.839 -15.663   5.251  1.00  0.00     0.135 C 
HETATM    8  N   UNL     1      42.090 -12.370   5.968  1.00  0.00    -0.219 NA
HETATM    9  C   UNL     1      41.502 -11.478   5.025  1.00  0.00     0.157 C 
ENDROOT
BRANCH   4  10
HETATM   10  C   UNL     1      42.519 -16.176   3.006  1.00  0.00     0.156 C 
BRANCH  10  11
HETATM   11  C   UNL     1      43.451 -17.351   2.798  1.00  0.00     0.223 C 
HETATM   12  N   UNL     1      43.216 -18.423   3.621  1.00  0.00    -0.359 N 
HETATM   13  H   UNL     1      42.495 -18.347   4.336  1.00  0.00     0.162 HD
HETATM   14  O   UNL     1      44.324 -17.357   1.935  1.00  0.00    -0.273 OA
BRANCH  12  15
HETATM   15  C   UNL     1      44.103 -19.583   3.740  1.00  0.00     0.150 C 
BRANCH  15  16
HETATM   16  C   UNL     1      44.817 -19.739   5.100  1.00  0.00     0.253 C 
BRANCH  16  17
HETATM   17  N   UNL     1      43.848 -19.774   6.266  1.00  0.00    -0.077 N 
HETATM   18  H   UNL     1      42.912 -19.520   5.893  1.00  0.00     0.279 HD
HETATM   19  C   UNL     1      43.700 -21.139   6.882  1.00  0.00     0.269 C 
HETATM   20  C   UNL     1      44.196 -18.750   7.312  1.00  0.00     0.269 C 
ENDBRANCH  16  17
ENDBRANCH  15  16
ENDBRANCH  12  15
ENDBRANCH  10  11
ENDBRANCH   4  10
BRANCH   2  21
HETATM   21  C   UNL     1      41.408 -13.031   2.280  1.00  0.00     0.044 C 
HETATM   22  C   UNL     1      39.720 -12.330   2.023  1.00  0.00    -0.068 C 
HETATM   23  C   UNL     1      39.484 -10.865   1.873  1.00  0.00     0.044 C 
HETATM   24  C   UNL     1      38.412 -13.496   1.791  1.00  0.00     0.004 C 
HETATM   25  C   UNL     1      38.763 -15.253   1.714  1.00  0.00     0.007 C 
HETATM   26  C   UNL     1      40.448 -15.898   1.770  1.00  0.00    -0.065 C 
HETATM   27  C   UNL     1      40.699 -17.341   1.446  1.00  0.00     0.048 C 
HETATM   28  C   UNL     1      41.822 -14.804   1.962  1.00  0.00    -0.002 C 
ENDBRANCH   2  21
BRANCH   1  29
HETATM   29  C   UNL     1      41.297 -11.111   1.599  1.00  0.00     0.293 C 
HETATM   30  O   UNL     1      40.998  -9.937   1.224  1.00  0.00    -0.259 OA
BRANCH  29  31
HETATM   31  O   UNL     1      41.545 -11.879   0.406  1.00  0.00    -0.318 OA
BRANCH  31  32
HETATM   32  C   UNL     1      41.675 -11.226  -0.876  1.00  0.00     0.174 C 
HETATM   33  C   UNL     1      43.106 -11.327  -1.362  1.00  0.00     0.034 C 
ENDBRANCH  31  32
ENDBRANCH  29  31
ENDBRANCH   1  29
BRANCH   9  34
HETATM   34  C   UNL     1      41.253 -10.129   5.807  1.00  0.00     0.435 C 
HETATM   35  F   UNL     1      41.752  -9.074   5.096  1.00  0.00    -0.165 F 
HETATM   36  F   UNL     1      39.933  -9.867   5.973  1.00  0.00    -0.165 F 
HETATM   37  F   UNL     1      41.874 -10.058   7.008  1.00  0.00    -0.165 F 
ENDBRANCH   9  34
TORSDOF 10
ENDMDL
MODEL 9
REMARK VINA RESULT:      -6.8      4.088      6.993
REMARK  10 active torsions:
REMARK  status: ('A' for Active; 'I' for Inactive)
REMARK    1  A    between atoms: C_2  and  O_3 
REMARK    2  A    between atoms: O_3  and  C_4 
REMARK    3  A    between atoms: C_4  and  C_5 
REMARK    4  A    between atoms: C_6  and  C_7 
REMARK    5  A    between atoms: C_16  and  C_17 
REMARK    6  A    between atoms: C_17  and  C_18 
REMARK       I    between atoms: C_18  and  N_19 
REMARK    7  A    between atoms: N_19  and  C_20 
REMARK    8  A    between atoms: C_20  and  C_21 
REMARK    9  A    between atoms: C_21  and  N_22 
REMARK   10  A    between atoms: C_31  and  C_32 
ROOT
HETATM    1  C   UNL     1      41.689 -11.906   1.723  1.00  0.00     0.075 C 
HETATM    2  C   UNL     1      42.251 -13.351   1.704  1.00  0.00     0.151 C 
HETATM    3  N   UNL     1      41.682 -14.292   0.787  1.00  0.00    -0.321 N 
HETATM    4  C   UNL     1      41.477 -15.564   0.745  1.00  0.00     0.011 C 
HETATM    5  C   UNL     1      41.676 -13.641  -0.571  1.00  0.00     0.170 C 
HETATM    6  S   UNL     1      41.416 -14.781  -1.839  1.00  0.00    -0.086 SA
HETATM    7  C   UNL     1      41.100 -16.101  -0.620  1.00  0.00     0.135 C 
HETATM    8  N   UNL     1      41.934 -12.399  -0.728  1.00  0.00    -0.219 NA
HETATM    9  C   UNL     1      41.921 -11.475   0.358  1.00  0.00     0.157 C 
ENDROOT
BRANCH   4  10
HETATM   10  C   UNL     1      41.774 -16.446   1.924  1.00  0.00     0.156 C 
BRANCH  10  11
HETATM   11  C   UNL     1      42.924 -17.408   1.718  1.00  0.00     0.223 C 
HETATM   12  N   UNL     1      42.654 -18.709   2.061  1.00  0.00    -0.359 N 
HETATM   13  H   UNL     1      41.750 -18.933   2.472  1.00  0.00     0.162 HD
HETATM   14  O   UNL     1      44.002 -17.058   1.247  1.00  0.00    -0.273 OA
BRANCH  12  15
HETATM   15  C   UNL     1      43.661 -19.770   2.136  1.00  0.00     0.150 C 
BRANCH  15  16
HETATM   16  C   UNL     1      44.429 -19.867   3.472  1.00  0.00     0.253 C 
BRANCH  16  17
HETATM   17  N   UNL     1      44.961 -21.261   3.738  1.00  0.00    -0.077 N 
HETATM   18  H   UNL     1      45.985 -21.236   3.562  1.00  0.00     0.279 HD
HETATM   19  C   UNL     1      44.791 -21.706   5.165  1.00  0.00     0.269 C 
HETATM   20  C   UNL     1      44.378 -22.272   2.789  1.00  0.00     0.269 C 
ENDBRANCH  16  17
ENDBRANCH  15  16
ENDBRANCH  12  15
ENDBRANCH  10  11
ENDBRANCH   4  10
BRANCH   2  21
HETATM   21  C   UNL     1      41.639 -13.204   2.983  1.00  0.00     0.044 C 
HETATM   22  C   UNL     1      41.973 -14.893   3.649  1.00  0.00    -0.068 C 
HETATM   23  C   UNL     1      43.009 -15.143   4.691  1.00  0.00     0.044 C 
HETATM   24  C   UNL     1      40.883 -16.177   3.114  1.00  0.00     0.004 C 
HETATM   25  C   UNL     1      39.481 -15.801   2.061  1.00  0.00     0.007 C 
HETATM   26  C   UNL     1      39.064 -14.111   1.587  1.00  0.00    -0.065 C 
HETATM   27  C   UNL     1      37.747 -13.831   0.925  1.00  0.00     0.048 C 
HETATM   28  C   UNL     1      40.074 -12.757   2.107  1.00  0.00    -0.002 C 
ENDBRANCH   2  21
BRANCH   1  29
HETATM   29  C   UNL     1      40.969 -11.405   3.675  1.00  0.00     0.293 C 
HETATM   30  O   UNL     1      41.675 -11.101   4.683  1.00  0.00    -0.259 OA
BRANCH  29  31
HETATM   31  O   UNL     1      39.595 -11.354   4.099  1.00  0.00    -0.318 OA
BRANCH  31  32
HETATM   32  C   UNL     1      39.255 -11.396   5.503  1.00  0.00     0.174 C 
HETATM   33  C   UNL     1      39.108 -12.835   5.954  1.00  0.00     0.034 C 
ENDBRANCH  31  32
ENDBRANCH  29  31
ENDBRANCH   1  29
BRANCH   9  34
HETATM   34  C   UNL     1      41.986 -10.041  -0.297  1.00  0.00     0.435 C 
HETATM   35  F   UNL     1      42.077 -10.148  -1.656  1.00  0.00    -0.165 F 
HETATM   36  F   UNL     1      40.864  -9.316  -0.062  1.00  0.00    -0.165 F 
HETATM   37  F   UNL     1      43.068  -9.311   0.062  1.00  0.00    -0.165 F 
ENDBRANCH   9  34
TORSDOF 10
ENDMDL
MODEL 10
REMARK VINA RESULT:      -6.8      3.365      4.841
REMARK  10 active torsions:
REMARK  status: ('A' for Active; 'I' for Inactive)
REMARK    1  A    between atoms: C_2  and  O_3 
REMARK    2  A    between atoms: O_3  and  C_4 
REMARK    3  A    between atoms: C_4  and  C_5 
REMARK    4  A    between atoms: C_6  and  C_7 
REMARK    5  A    between atoms: C_16  and  C_17 
REMARK    6  A    between atoms: C_17  and  C_18 
REMARK       I    between atoms: C_18  and  N_19 
REMARK    7  A    between atoms: N_19  and  C_20 
REMARK    8  A    between atoms: C_20  and  C_21 
REMARK    9  A    between atoms: C_21  and  N_22 
REMARK   10  A    between atoms: C_31  and  C_32 
ROOT
HETATM    1  C   UNL     1      42.905 -16.539   3.638  1.00  0.00     0.075 C 
HETATM    2  C   UNL     1      41.797 -15.553   3.188  1.00  0.00     0.151 C 
HETATM    3  N   UNL     1      41.859 -15.017   1.862  1.00  0.00    -0.321 N 
HETATM    4  C   UNL     1      41.516 -13.925   1.267  1.00  0.00     0.011 C 
HETATM    5  C   UNL     1      42.036 -16.178   0.921  1.00  0.00     0.170 C 
HETATM    6  S   UNL     1      41.711 -15.747  -0.718  1.00  0.00    -0.086 SA
HETATM    7  C   UNL     1      41.540 -13.992  -0.245  1.00  0.00     0.135 C 
HETATM    8  N   UNL     1      42.304 -17.356   1.341  1.00  0.00    -0.219 NA
HETATM    9  C   UNL     1      42.775 -17.604   2.663  1.00  0.00     0.157 C 
ENDROOT
BRANCH   4  10
HETATM   10  C   UNL     1      40.968 -12.755   2.032  1.00  0.00     0.156 C 
BRANCH  10  11
HETATM   11  C   UNL     1      40.764 -11.502   1.206  1.00  0.00     0.223 C 
HETATM   12  N   UNL     1      39.584 -11.459   0.508  1.00  0.00    -0.359 N 
HETATM   13  H   UNL     1      38.964 -12.265   0.538  1.00  0.00     0.162 HD
HETATM   14  O   UNL     1      41.576 -10.581   1.192  1.00  0.00    -0.273 OA
BRANCH  12  15
HETATM   15  C   UNL     1      39.259 -10.451  -0.504  1.00  0.00     0.150 C 
BRANCH  15  16
HETATM   16  C   UNL     1      39.945 -10.636  -1.874  1.00  0.00     0.253 C 
BRANCH  16  17
HETATM   17  N   UNL     1      41.305  -9.970  -1.938  1.00  0.00    -0.077 N 
HETATM   18  H   UNL     1      41.507  -9.594  -0.991  1.00  0.00     0.279 HD
HETATM   19  C   UNL     1      42.425 -10.923  -2.259  1.00  0.00     0.269 C 
HETATM   20  C   UNL     1      41.311  -8.801  -2.885  1.00  0.00     0.269 C 
ENDBRANCH  16  17
ENDBRANCH  15  16
ENDBRANCH  12  15
ENDBRANCH  10  11
ENDBRANCH   4  10
BRANCH   2  21
HETATM   21  C   UNL     1      42.505 -14.873   4.221  1.00  0.00     0.044 C 
HETATM   22  C   UNL     1      41.896 -15.848   5.666  1.00  0.00    -0.068 C 
HETATM   23  C   UNL     1      42.754 -16.842   6.371  1.00  0.00     0.044 C 
HETATM   24  C   UNL     1      40.296 -15.420   6.282  1.00  0.00     0.004 C 
HETATM   25  C   UNL     1      39.389 -14.041   5.580  1.00  0.00     0.007 C 
HETATM   26  C   UNL     1      40.094 -12.982   4.300  1.00  0.00    -0.065 C 
HETATM   27  C   UNL     1      39.402 -11.702   3.935  1.00  0.00     0.048 C 
HETATM   28  C   UNL     1      41.704 -13.310   3.650  1.00  0.00    -0.002 C 
ENDBRANCH   2  21
BRANCH   1  29
HETATM   29  C   UNL     1      43.905 -15.801   5.380  1.00  0.00     0.293 C 
HETATM   30  O   UNL     1      44.512 -16.494   6.252  1.00  0.00    -0.259 OA
BRANCH  29  31
HETATM   31  O   UNL     1      44.015 -14.426   5.793  1.00  0.00    -0.318 OA
BRANCH  31  32
HETATM   32  C   UNL     1      45.129 -13.986   6.601  1.00  0.00     0.174 C 
HETATM   33  C   UNL     1      44.619 -13.338   7.872  1.00  0.00     0.034 C 
ENDBRANCH  31  32
ENDBRANCH  29  31
ENDBRANCH   1  29
BRANCH   9  34
HETATM   34  C   UNL     1      43.262 -19.105   2.671  1.00  0.00     0.435 C 
HETATM   35  F   UNL     1      44.527 -19.193   2.164  1.00  0.00    -0.165 F 
HETATM   36  F   UNL     1      43.334 -19.617   3.925  1.00  0.00    -0.165 F 
HETATM   37  F   UNL     1      42.525 -19.936   1.897  1.00  0.00    -0.165 F 
ENDBRANCH   9  34
TORSDOF 10
ENDMDL
