MODEL 1
REMARK VINA RESULT:      -9.1      0.000      0.000
REMARK  7 active torsions:
REMARK  status: ('A' for Active; 'I' for Inactive)
REMARK    1  A    between atoms: O_2  and  C_3 
REMARK    2  A    between atoms: C_6  and  C_7 
REMARK       I    between atoms: C_7  and  N_8 
REMARK    3  A    between atoms: N_8  and  C_9 
REMARK    4  A    between atoms: C_9  and  C_10 
REMARK    5  A    between atoms: C_10  and  N_11 
REMARK       I    between atoms: N_11  and  C_12 
REMARK    6  A    between atoms: C_12  and  C_13 
REMARK    7  A    between atoms: C_15  and  C_16 
ROOT
HETATM    1  N   UNL     1      44.147 -16.095   6.015  1.00  0.00    -0.355 N 
HETATM    2  C   UNL     1      43.273 -16.011   4.952  1.00  0.00     0.251 C 
HETATM    3  O   UNL     1      42.300 -15.265   4.943  1.00  0.00    -0.268 OA
HETATM    4  H   UNL     1      44.803 -16.862   6.069  1.00  0.00     0.162 HD
ENDROOT
BRANCH   1   5
HETATM    5  C   UNL     1      43.947 -15.306   7.219  1.00  0.00     0.142 C 
BRANCH   5   6
HETATM    6  C   UNL     1      44.713 -13.979   7.188  1.00  0.00     0.142 C 
BRANCH   6   7
HETATM    7  N   UNL     1      44.079 -12.942   7.981  1.00  0.00    -0.355 N 
HETATM    8  C   UNL     1      44.698 -12.417   9.097  1.00  0.00     0.251 C 
HETATM    9  O   UNL     1      45.814 -12.768   9.465  1.00  0.00    -0.268 OA
HETATM   10  H   UNL     1      43.262 -12.491   7.595  1.00  0.00     0.162 HD
BRANCH   8  11
HETATM   11  C   UNL     1      43.958 -11.360   9.841  1.00  0.00     0.032 A 
HETATM   12  C   UNL     1      42.803 -10.753   9.332  1.00  0.00     0.020 A 
HETATM   13  C   UNL     1      42.124  -9.781  10.079  1.00  0.00     0.038 A 
HETATM   14  C   UNL     1      42.588  -9.415  11.344  1.00  0.00     0.068 A 
HETATM   15  C   UNL     1      43.736 -10.026  11.853  1.00  0.00     0.038 A 
HETATM   16  C   UNL     1      44.416 -10.996  11.113  1.00  0.00     0.020 A 
BRANCH  14  17
HETATM   17  O   UNL     1      42.015  -8.492  12.175  1.00  0.00    -0.356 OA
HETATM   18  C   UNL     1      40.682  -8.745  12.598  1.00  0.00     0.210 C 
ENDBRANCH  14  17
ENDBRANCH   8  11
ENDBRANCH   6   7
ENDBRANCH   5   6
ENDBRANCH   1   5
BRANCH   2  19
HETATM   19  C   UNL     1      43.535 -16.920   3.800  1.00  0.00     0.032 A 
HETATM   20  C   UNL     1      43.791 -18.273   4.068  1.00  0.00     0.029 A 
HETATM   21  C   UNL     1      44.041 -19.175   3.024  1.00  0.00    -0.023 A 
HETATM   22  C   UNL     1      44.030 -18.700   1.706  1.00  0.00     0.012 A 
HETATM   23  C   UNL     1      43.758 -17.357   1.433  1.00  0.00     0.002 A 
HETATM   24  C   UNL     1      43.506 -16.467   2.477  1.00  0.00     0.017 A 
BRANCH  21  25
HETATM   25  C   UNL     1      44.315 -20.579   3.289  1.00  0.00    -0.002 A 
HETATM   26  C   UNL     1      44.272 -21.580   2.338  1.00  0.00     0.153 A 
HETATM   27  O   UNL     1      44.587 -22.782   2.884  1.00  0.00    -0.334 OA
HETATM   28  C   UNL     1      44.843 -22.562   4.198  1.00  0.00     0.142 A 
HETATM   29  C   UNL     1      44.695 -21.229   4.499  1.00  0.00     0.038 A 
ENDBRANCH  21  25
ENDBRANCH   2  19
TORSDOF 7
ENDMDL
MODEL 2
REMARK VINA RESULT:      -8.6      4.481      6.128
REMARK  7 active torsions:
REMARK  status: ('A' for Active; 'I' for Inactive)
REMARK    1  A    between atoms: O_2  and  C_3 
REMARK    2  A    between atoms: C_6  and  C_7 
REMARK       I    between atoms: C_7  and  N_8 
REMARK    3  A    between atoms: N_8  and  C_9 
REMARK    4  A    between atoms: C_9  and  C_10 
REMARK    5  A    between atoms: C_10  and  N_11 
REMARK       I    between atoms: N_11  and  C_12 
REMARK    6  A    between atoms: C_12  and  C_13 
REMARK    7  A    between atoms: C_15  and  C_16 
ROOT
HETATM    1  N   UNL     1      44.190 -18.699   6.713  1.00  0.00    -0.355 N 
HETATM    2  C   UNL     1      43.945 -19.967   6.233  1.00  0.00     0.251 C 
HETATM    3  O   UNL     1      43.729 -20.929   6.962  1.00  0.00    -0.268 OA
HETATM    4  H   UNL     1      44.566 -17.990   6.098  1.00  0.00     0.162 HD
ENDROOT
BRANCH   1   5
HETATM    5  C   UNL     1      44.233 -18.428   8.140  1.00  0.00     0.142 C 
BRANCH   5   6
HETATM    6  C   UNL     1      43.467 -17.157   8.523  1.00  0.00     0.142 C 
BRANCH   6   7
HETATM    7  N   UNL     1      43.383 -16.199   7.436  1.00  0.00    -0.355 N 
HETATM    8  C   UNL     1      42.313 -16.198   6.566  1.00  0.00     0.251 C 
HETATM    9  O   UNL     1      41.369 -16.974   6.671  1.00  0.00    -0.268 OA
HETATM   10  H   UNL     1      44.032 -15.425   7.444  1.00  0.00     0.162 HD
BRANCH   8  11
HETATM   11  C   UNL     1      42.327 -15.174   5.483  1.00  0.00     0.032 A 
HETATM   12  C   UNL     1      42.150 -13.809   5.739  1.00  0.00     0.020 A 
HETATM   13  C   UNL     1      42.198 -12.879   4.692  1.00  0.00     0.038 A 
HETATM   14  C   UNL     1      42.433 -13.303   3.384  1.00  0.00     0.068 A 
HETATM   15  C   UNL     1      42.616 -14.665   3.131  1.00  0.00     0.038 A 
HETATM   16  C   UNL     1      42.570 -15.596   4.171  1.00  0.00     0.020 A 
BRANCH  14  17
HETATM   17  O   UNL     1      42.512 -12.501   2.279  1.00  0.00    -0.356 OA
HETATM   18  C   UNL     1      42.065 -13.055   1.048  1.00  0.00     0.210 C 
ENDBRANCH  14  17
ENDBRANCH   8  11
ENDBRANCH   6   7
ENDBRANCH   5   6
ENDBRANCH   1   5
BRANCH   2  19
HETATM   19  C   UNL     1      43.998 -20.142   4.754  1.00  0.00     0.032 A 
HETATM   20  C   UNL     1      43.385 -19.170   3.949  1.00  0.00     0.029 A 
HETATM   21  C   UNL     1      43.405 -19.281   2.551  1.00  0.00    -0.023 A 
HETATM   22  C   UNL     1      44.050 -20.381   1.972  1.00  0.00     0.012 A 
HETATM   23  C   UNL     1      44.677 -21.343   2.768  1.00  0.00     0.002 A 
HETATM   24  C   UNL     1      44.655 -21.224   4.158  1.00  0.00     0.017 A 
BRANCH  21  25
HETATM   25  C   UNL     1      42.768 -18.282   1.705  1.00  0.00    -0.002 A 
HETATM   26  C   UNL     1      43.440 -17.449   0.833  1.00  0.00     0.153 A 
HETATM   27  O   UNL     1      42.574 -16.637   0.174  1.00  0.00    -0.334 OA
HETATM   28  C   UNL     1      41.330 -16.948   0.616  1.00  0.00     0.142 A 
HETATM   29  C   UNL     1      41.391 -17.953   1.552  1.00  0.00     0.038 A 
ENDBRANCH  21  25
ENDBRANCH   2  19
TORSDOF 7
ENDMDL
MODEL 3
REMARK VINA RESULT:      -8.6      1.482      2.577
REMARK  7 active torsions:
REMARK  status: ('A' for Active; 'I' for Inactive)
REMARK    1  A    between atoms: O_2  and  C_3 
REMARK    2  A    between atoms: C_6  and  C_7 
REMARK       I    between atoms: C_7  and  N_8 
REMARK    3  A    between atoms: N_8  and  C_9 
REMARK    4  A    between atoms: C_9  and  C_10 
REMARK    5  A    between atoms: C_10  and  N_11 
REMARK       I    between atoms: N_11  and  C_12 
REMARK    6  A    between atoms: C_12  and  C_13 
REMARK    7  A    between atoms: C_15  and  C_16 
ROOT
HETATM    1  N   UNL     1      44.418 -15.105   6.871  1.00  0.00    -0.355 N 
HETATM    2  C   UNL     1      43.384 -15.868   6.373  1.00  0.00     0.251 C 
HETATM    3  O   UNL     1      42.327 -15.387   5.977  1.00  0.00    -0.268 OA
HETATM    4  H   UNL     1      45.174 -15.548   7.375  1.00  0.00     0.162 HD
ENDROOT
BRANCH   1   5
HETATM    5  C   UNL     1      44.304 -13.661   6.981  1.00  0.00     0.142 C 
BRANCH   5   6
HETATM    6  C   UNL     1      45.107 -13.094   8.157  1.00  0.00     0.142 C 
BRANCH   6   7
HETATM    7  N   UNL     1      44.282 -12.381   9.114  1.00  0.00    -0.355 N 
HETATM    8  C   UNL     1      44.659 -11.148   9.604  1.00  0.00     0.251 C 
HETATM    9  O   UNL     1      45.684 -10.576   9.248  1.00  0.00    -0.268 OA
HETATM   10  H   UNL     1      43.345 -12.724   9.271  1.00  0.00     0.162 HD
BRANCH   8  11
HETATM   11  C   UNL     1      43.740 -10.504  10.585  1.00  0.00     0.032 A 
HETATM   12  C   UNL     1      44.074 -10.351  11.936  1.00  0.00     0.020 A 
HETATM   13  C   UNL     1      43.190  -9.715  12.818  1.00  0.00     0.038 A 
HETATM   14  C   UNL     1      41.970  -9.219  12.355  1.00  0.00     0.068 A 
HETATM   15  C   UNL     1      41.641  -9.368  11.005  1.00  0.00     0.038 A 
HETATM   16  C   UNL     1      42.520 -10.000  10.122  1.00  0.00     0.020 A 
BRANCH  14  17
HETATM   17  O   UNL     1      41.027  -8.575  13.105  1.00  0.00    -0.356 OA
HETATM   18  C   UNL     1      39.672  -8.715  12.696  1.00  0.00     0.210 C 
ENDBRANCH  14  17
ENDBRANCH   8  11
ENDBRANCH   6   7
ENDBRANCH   5   6
ENDBRANCH   1   5
BRANCH   2  19
HETATM   19  C   UNL     1      43.583 -17.345   6.375  1.00  0.00     0.032 A 
HETATM   20  C   UNL     1      43.721 -17.996   5.140  1.00  0.00     0.029 A 
HETATM   21  C   UNL     1      43.913 -19.385   5.080  1.00  0.00    -0.023 A 
HETATM   22  C   UNL     1      43.966 -20.109   6.278  1.00  0.00     0.012 A 
HETATM   23  C   UNL     1      43.847 -19.463   7.511  1.00  0.00     0.002 A 
HETATM   24  C   UNL     1      43.660 -18.081   7.562  1.00  0.00     0.017 A 
BRANCH  21  25
HETATM   25  C   UNL     1      44.051 -20.074   3.806  1.00  0.00    -0.002 A 
HETATM   26  C   UNL     1      44.683 -21.290   3.636  1.00  0.00     0.153 A 
HETATM   27  O   UNL     1      44.638 -21.682   2.337  1.00  0.00    -0.334 OA
HETATM   28  C   UNL     1      43.968 -20.718   1.658  1.00  0.00     0.142 A 
HETATM   29  C   UNL     1      43.582 -19.711   2.511  1.00  0.00     0.038 A 
ENDBRANCH  21  25
ENDBRANCH   2  19
TORSDOF 7
ENDMDL
MODEL 4
REMARK VINA RESULT:      -8.4      5.422      8.844
REMARK  7 active torsions:
REMARK  status: ('A' for Active; 'I' for Inactive)
REMARK    1  A    between atoms: O_2  and  C_3 
REMARK    2  A    between atoms: C_6  and  C_7 
REMARK       I    between atoms: C_7  and  N_8 
REMARK    3  A    between atoms: N_8  and  C_9 
REMARK    4  A    between atoms: C_9  and  C_10 
REMARK    5  A    between atoms: C_10  and  N_11 
REMARK       I    between atoms: N_11  and  C_12 
REMARK    6  A    between atoms: C_12  and  C_13 
REMARK    7  A    between atoms: C_15  and  C_16 
ROOT
HETATM    1  N   UNL     1      41.329 -16.369   3.573  1.00  0.00    -0.355 N 
HETATM    2  C   UNL     1      42.142 -16.220   4.676  1.00  0.00     0.251 C 
HETATM    3  O   UNL     1      42.085 -15.249   5.422  1.00  0.00    -0.268 OA
HETATM    4  H   UNL     1      41.548 -17.068   2.875  1.00  0.00     0.162 HD
ENDROOT
BRANCH   1   5
HETATM    5  C   UNL     1      40.357 -15.352   3.209  1.00  0.00     0.142 C 
BRANCH   5   6
HETATM    6  C   UNL     1      39.545 -15.730   1.966  1.00  0.00     0.142 C 
BRANCH   6   7
HETATM    7  N   UNL     1      39.928 -14.972   0.789  1.00  0.00    -0.355 N 
HETATM    8  C   UNL     1      41.039 -15.318   0.048  1.00  0.00     0.251 C 
HETATM    9  O   UNL     1      41.744 -16.285   0.317  1.00  0.00    -0.268 OA
HETATM   10  H   UNL     1      39.263 -14.304   0.425  1.00  0.00     0.162 HD
BRANCH   8  11
HETATM   11  C   UNL     1      41.344 -14.471  -1.140  1.00  0.00     0.032 A 
HETATM   12  C   UNL     1      40.957 -14.831  -2.437  1.00  0.00     0.020 A 
HETATM   13  C   UNL     1      41.243 -13.991  -3.521  1.00  0.00     0.038 A 
HETATM   14  C   UNL     1      41.909 -12.781  -3.317  1.00  0.00     0.068 A 
HETATM   15  C   UNL     1      42.289 -12.421  -2.022  1.00  0.00     0.038 A 
HETATM   16  C   UNL     1      42.005 -13.254  -0.938  1.00  0.00     0.020 A 
BRANCH  14  17
HETATM   17  O   UNL     1      42.239 -11.871  -4.284  1.00  0.00    -0.356 OA
HETATM   18  C   UNL     1      41.807 -10.531  -4.081  1.00  0.00     0.210 C 
ENDBRANCH  14  17
ENDBRANCH   8  11
ENDBRANCH   6   7
ENDBRANCH   5   6
ENDBRANCH   1   5
BRANCH   2  19
HETATM   19  C   UNL     1      43.152 -17.291   4.910  1.00  0.00     0.032 A 
HETATM   20  C   UNL     1      43.196 -18.367   4.012  1.00  0.00     0.029 A 
HETATM   21  C   UNL     1      44.127 -19.403   4.180  1.00  0.00    -0.023 A 
HETATM   22  C   UNL     1      45.014 -19.342   5.263  1.00  0.00     0.012 A 
HETATM   23  C   UNL     1      44.985 -18.263   6.151  1.00  0.00     0.002 A 
HETATM   24  C   UNL     1      44.059 -17.235   5.974  1.00  0.00     0.017 A 
BRANCH  21  25
HETATM   25  C   UNL     1      44.179 -20.529   3.260  1.00  0.00    -0.002 A 
HETATM   26  C   UNL     1      44.670 -21.780   3.577  1.00  0.00     0.153 A 
HETATM   27  O   UNL     1      44.574 -22.622   2.517  1.00  0.00    -0.334 OA
HETATM   28  C   UNL     1      44.012 -21.917   1.503  1.00  0.00     0.142 A 
HETATM   29  C   UNL     1      43.746 -20.629   1.906  1.00  0.00     0.038 A 
ENDBRANCH  21  25
ENDBRANCH   2  19
TORSDOF 7
ENDMDL
MODEL 5
REMARK VINA RESULT:      -8.4      4.482      7.848
REMARK  7 active torsions:
REMARK  status: ('A' for Active; 'I' for Inactive)
REMARK    1  A    between atoms: O_2  and  C_3 
REMARK    2  A    between atoms: C_6  and  C_7 
REMARK       I    between atoms: C_7  and  N_8 
REMARK    3  A    between atoms: N_8  and  C_9 
REMARK    4  A    between atoms: C_9  and  C_10 
REMARK    5  A    between atoms: C_10  and  N_11 
REMARK       I    between atoms: N_11  and  C_12 
REMARK    6  A    between atoms: C_12  and  C_13 
REMARK    7  A    between atoms: C_15  and  C_16 
ROOT
HETATM    1  N   UNL     1      42.348 -14.480   5.742  1.00  0.00    -0.355 N 
HETATM    2  C   UNL     1      42.038 -15.720   5.226  1.00  0.00     0.251 C 
HETATM    3  O   UNL     1      40.954 -15.980   4.712  1.00  0.00    -0.268 OA
HETATM    4  H   UNL     1      43.158 -14.369   6.336  1.00  0.00     0.162 HD
ENDROOT
BRANCH   1   5
HETATM    5  C   UNL     1      41.381 -13.395   5.729  1.00  0.00     0.142 C 
BRANCH   5   6
HETATM    6  C   UNL     1      41.556 -12.463   4.525  1.00  0.00     0.142 C 
BRANCH   6   7
HETATM    7  N   UNL     1      41.290 -13.119   3.259  1.00  0.00    -0.355 N 
HETATM    8  C   UNL     1      42.316 -13.626   2.488  1.00  0.00     0.251 C 
HETATM    9  O   UNL     1      43.492 -13.578   2.830  1.00  0.00    -0.268 OA
HETATM   10  H   UNL     1      40.331 -13.355   3.046  1.00  0.00     0.162 HD
BRANCH   8  11
HETATM   11  C   UNL     1      41.932 -14.278   1.203  1.00  0.00     0.032 A 
HETATM   12  C   UNL     1      41.765 -15.663   1.086  1.00  0.00     0.020 A 
HETATM   13  C   UNL     1      41.378 -16.230  -0.136  1.00  0.00     0.038 A 
HETATM   14  C   UNL     1      41.146 -15.417  -1.246  1.00  0.00     0.068 A 
HETATM   15  C   UNL     1      41.307 -14.034  -1.126  1.00  0.00     0.038 A 
HETATM   16  C   UNL     1      41.692 -13.465   0.090  1.00  0.00     0.020 A 
BRANCH  14  17
HETATM   17  O   UNL     1      40.757 -15.841  -2.487  1.00  0.00    -0.356 OA
HETATM   18  C   UNL     1      40.219 -14.859  -3.364  1.00  0.00     0.210 C 
ENDBRANCH  14  17
ENDBRANCH   8  11
ENDBRANCH   6   7
ENDBRANCH   5   6
ENDBRANCH   1   5
BRANCH   2  19
HETATM   19  C   UNL     1      43.079 -16.778   5.359  1.00  0.00     0.032 A 
HETATM   20  C   UNL     1      43.099 -17.811   4.411  1.00  0.00     0.029 A 
HETATM   21  C   UNL     1      44.057 -18.833   4.485  1.00  0.00    -0.023 A 
HETATM   22  C   UNL     1      44.997 -18.801   5.524  1.00  0.00     0.012 A 
HETATM   23  C   UNL     1      44.993 -17.764   6.460  1.00  0.00     0.002 A 
HETATM   24  C   UNL     1      44.038 -16.750   6.378  1.00  0.00     0.017 A 
BRANCH  21  25
HETATM   25  C   UNL     1      44.085 -19.915   3.512  1.00  0.00    -0.002 A 
HETATM   26  C   UNL     1      43.527 -19.849   2.250  1.00  0.00     0.153 A 
HETATM   27  O   UNL     1      43.726 -21.009   1.572  1.00  0.00    -0.334 OA
HETATM   28  C   UNL     1      44.421 -21.832   2.395  1.00  0.00     0.142 A 
HETATM   29  C   UNL     1      44.672 -21.210   3.596  1.00  0.00     0.038 A 
ENDBRANCH  21  25
ENDBRANCH   2  19
TORSDOF 7
ENDMDL
MODEL 6
REMARK VINA RESULT:      -8.4      4.872      7.573
REMARK  7 active torsions:
REMARK  status: ('A' for Active; 'I' for Inactive)
REMARK    1  A    between atoms: O_2  and  C_3 
REMARK    2  A    between atoms: C_6  and  C_7 
REMARK       I    between atoms: C_7  and  N_8 
REMARK    3  A    between atoms: N_8  and  C_9 
REMARK    4  A    between atoms: C_9  and  C_10 
REMARK    5  A    between atoms: C_10  and  N_11 
REMARK       I    between atoms: N_11  and  C_12 
REMARK    6  A    between atoms: C_12  and  C_13 
REMARK    7  A    between atoms: C_15  and  C_16 
ROOT
HETATM    1  N   UNL     1      41.340 -16.351   4.994  1.00  0.00    -0.355 N 
HETATM    2  C   UNL     1      42.691 -16.232   4.746  1.00  0.00     0.251 C 
HETATM    3  O   UNL     1      43.414 -15.445   5.348  1.00  0.00    -0.268 OA
HETATM    4  H   UNL     1      40.750 -16.851   4.342  1.00  0.00     0.162 HD
ENDROOT
BRANCH   1   5
HETATM    5  C   UNL     1      40.678 -15.517   5.983  1.00  0.00     0.142 C 
BRANCH   5   6
HETATM    6  C   UNL     1      39.845 -14.398   5.347  1.00  0.00     0.142 C 
BRANCH   6   7
HETATM    7  N   UNL     1      39.762 -14.506   3.903  1.00  0.00    -0.355 N 
HETATM    8  C   UNL     1      40.498 -13.678   3.081  1.00  0.00     0.251 C 
HETATM    9  O   UNL     1      41.274 -12.832   3.512  1.00  0.00    -0.268 OA
HETATM   10  H   UNL     1      39.295 -15.316   3.520  1.00  0.00     0.162 HD
BRANCH   8  11
HETATM   11  C   UNL     1      40.335 -13.870   1.613  1.00  0.00     0.032 A 
HETATM   12  C   UNL     1      39.080 -13.878   0.992  1.00  0.00     0.020 A 
HETATM   13  C   UNL     1      38.976 -14.037  -0.397  1.00  0.00     0.038 A 
HETATM   14  C   UNL     1      40.125 -14.178  -1.176  1.00  0.00     0.068 A 
HETATM   15  C   UNL     1      41.377 -14.164  -0.557  1.00  0.00     0.038 A 
HETATM   16  C   UNL     1      41.485 -14.005   0.827  1.00  0.00     0.020 A 
BRANCH  14  17
HETATM   17  O   UNL     1      40.162 -14.330  -2.535  1.00  0.00    -0.356 OA
HETATM   18  C   UNL     1      40.636 -15.575  -3.031  1.00  0.00     0.210 C 
ENDBRANCH  14  17
ENDBRANCH   8  11
ENDBRANCH   6   7
ENDBRANCH   5   6
ENDBRANCH   1   5
BRANCH   2  19
HETATM   19  C   UNL     1      43.248 -17.086   3.659  1.00  0.00     0.032 A 
HETATM   20  C   UNL     1      43.515 -18.433   3.946  1.00  0.00     0.029 A 
HETATM   21  C   UNL     1      44.038 -19.285   2.962  1.00  0.00    -0.023 A 
HETATM   22  C   UNL     1      44.287 -18.766   1.685  1.00  0.00     0.012 A 
HETATM   23  C   UNL     1      44.006 -17.429   1.389  1.00  0.00     0.002 A 
HETATM   24  C   UNL     1      43.482 -16.590   2.373  1.00  0.00     0.017 A 
BRANCH  21  25
HETATM   25  C   UNL     1      44.327 -20.682   3.249  1.00  0.00    -0.002 A 
HETATM   26  C   UNL     1      44.246 -21.705   2.324  1.00  0.00     0.153 A 
HETATM   27  O   UNL     1      44.588 -22.894   2.886  1.00  0.00    -0.334 OA
HETATM   28  C   UNL     1      44.897 -22.642   4.182  1.00  0.00     0.142 A 
HETATM   29  C   UNL     1      44.759 -21.302   4.456  1.00  0.00     0.038 A 
ENDBRANCH  21  25
ENDBRANCH   2  19
TORSDOF 7
ENDMDL
MODEL 7
REMARK VINA RESULT:      -8.2      1.998      2.704
REMARK  7 active torsions:
REMARK  status: ('A' for Active; 'I' for Inactive)
REMARK    1  A    between atoms: O_2  and  C_3 
REMARK    2  A    between atoms: C_6  and  C_7 
REMARK       I    between atoms: C_7  and  N_8 
REMARK    3  A    between atoms: N_8  and  C_9 
REMARK    4  A    between atoms: C_9  and  C_10 
REMARK    5  A    between atoms: C_10  and  N_11 
REMARK       I    between atoms: N_11  and  C_12 
REMARK    6  A    between atoms: C_12  and  C_13 
REMARK    7  A    between atoms: C_15  and  C_16 
ROOT
HETATM    1  N   UNL     1      41.904 -14.632   6.120  1.00  0.00    -0.355 N 
HETATM    2  C   UNL     1      42.602 -15.136   5.044  1.00  0.00     0.251 C 
HETATM    3  O   UNL     1      42.546 -14.647   3.921  1.00  0.00    -0.268 OA
HETATM    4  H   UNL     1      41.813 -15.181   6.964  1.00  0.00     0.162 HD
ENDROOT
BRANCH   1   5
HETATM    5  C   UNL     1      41.023 -13.485   5.976  1.00  0.00     0.142 C 
BRANCH   5   6
HETATM    6  C   UNL     1      41.769 -12.151   6.085  1.00  0.00     0.142 C 
BRANCH   6   7
HETATM    7  N   UNL     1      42.115 -11.806   7.452  1.00  0.00    -0.355 N 
HETATM    8  C   UNL     1      42.159 -10.492   7.868  1.00  0.00     0.251 C 
HETATM    9  O   UNL     1      41.888  -9.551   7.129  1.00  0.00    -0.268 OA
HETATM   10  H   UNL     1      42.143 -12.554   8.130  1.00  0.00     0.162 HD
BRANCH   8  11
HETATM   11  C   UNL     1      42.528 -10.249   9.291  1.00  0.00     0.032 A 
HETATM   12  C   UNL     1      41.786  -9.402  10.124  1.00  0.00     0.020 A 
HETATM   13  C   UNL     1      42.155  -9.224  11.464  1.00  0.00     0.038 A 
HETATM   14  C   UNL     1      43.261  -9.898  11.985  1.00  0.00     0.068 A 
HETATM   15  C   UNL     1      43.997 -10.747  11.154  1.00  0.00     0.038 A 
HETATM   16  C   UNL     1      43.632 -10.928   9.818  1.00  0.00     0.020 A 
BRANCH  14  17
HETATM   17  O   UNL     1      43.720  -9.819  13.270  1.00  0.00    -0.356 OA
HETATM   18  C   UNL     1      42.808  -9.339  14.251  1.00  0.00     0.210 C 
ENDBRANCH  14  17
ENDBRANCH   8  11
ENDBRANCH   6   7
ENDBRANCH   5   6
ENDBRANCH   1   5
BRANCH   2  19
HETATM   19  C   UNL     1      43.417 -16.359   5.291  1.00  0.00     0.032 A 
HETATM   20  C   UNL     1      43.373 -17.388   4.339  1.00  0.00     0.029 A 
HETATM   21  C   UNL     1      44.120 -18.561   4.517  1.00  0.00    -0.023 A 
HETATM   22  C   UNL     1      44.914 -18.686   5.665  1.00  0.00     0.012 A 
HETATM   23  C   UNL     1      44.975 -17.657   6.608  1.00  0.00     0.002 A 
HETATM   24  C   UNL     1      44.232 -16.491   6.421  1.00  0.00     0.017 A 
BRANCH  21  25
HETATM   25  C   UNL     1      44.079 -19.639   3.541  1.00  0.00    -0.002 A 
HETATM   26  C   UNL     1      43.348 -19.608   2.369  1.00  0.00     0.153 A 
HETATM   27  O   UNL     1      43.521 -20.753   1.659  1.00  0.00    -0.334 OA
HETATM   28  C   UNL     1      44.374 -21.532   2.371  1.00  0.00     0.142 A 
HETATM   29  C   UNL     1      44.750 -20.895   3.530  1.00  0.00     0.038 A 
ENDBRANCH  21  25
ENDBRANCH   2  19
TORSDOF 7
ENDMDL
MODEL 8
REMARK VINA RESULT:      -8.2      4.303      5.904
REMARK  7 active torsions:
REMARK  status: ('A' for Active; 'I' for Inactive)
REMARK    1  A    between atoms: O_2  and  C_3 
REMARK    2  A    between atoms: C_6  and  C_7 
REMARK       I    between atoms: C_7  and  N_8 
REMARK    3  A    between atoms: N_8  and  C_9 
REMARK    4  A    between atoms: C_9  and  C_10 
REMARK    5  A    between atoms: C_10  and  N_11 
REMARK       I    between atoms: N_11  and  C_12 
REMARK    6  A    between atoms: C_12  and  C_13 
REMARK    7  A    between atoms: C_15  and  C_16 
ROOT
HETATM    1  N   UNL     1      42.253 -16.464   0.315  1.00  0.00    -0.355 N 
HETATM    2  C   UNL     1      41.674 -17.125   1.377  1.00  0.00     0.251 C 
HETATM    3  O   UNL     1      40.482 -17.035   1.651  1.00  0.00    -0.268 OA
HETATM    4  H   UNL     1      43.261 -16.397   0.251  1.00  0.00     0.162 HD
ENDROOT
BRANCH   1   5
HETATM    5  C   UNL     1      41.475 -15.586  -0.542  1.00  0.00     0.142 C 
BRANCH   5   6
HETATM    6  C   UNL     1      41.590 -14.112  -0.137  1.00  0.00     0.142 C 
BRANCH   6   7
HETATM    7  N   UNL     1      41.021 -13.839   1.169  1.00  0.00    -0.355 N 
HETATM    8  C   UNL     1      41.821 -13.722   2.287  1.00  0.00     0.251 C 
HETATM    9  O   UNL     1      43.043 -13.812   2.242  1.00  0.00    -0.268 OA
HETATM   10  H   UNL     1      40.051 -13.560   1.208  1.00  0.00     0.162 HD
BRANCH   8  11
HETATM   11  C   UNL     1      41.134 -13.444   3.579  1.00  0.00     0.032 A 
HETATM   12  C   UNL     1      40.397 -14.420   4.262  1.00  0.00     0.020 A 
HETATM   13  C   UNL     1      39.789 -14.122   5.489  1.00  0.00     0.038 A 
HETATM   14  C   UNL     1      39.921 -12.850   6.048  1.00  0.00     0.068 A 
HETATM   15  C   UNL     1      40.661 -11.879   5.369  1.00  0.00     0.038 A 
HETATM   16  C   UNL     1      41.270 -12.172   4.146  1.00  0.00     0.020 A 
BRANCH  14  17
HETATM   17  O   UNL     1      39.388 -12.434   7.236  1.00  0.00    -0.356 OA
HETATM   18  C   UNL     1      39.628 -11.084   7.613  1.00  0.00     0.210 C 
ENDBRANCH  14  17
ENDBRANCH   8  11
ENDBRANCH   6   7
ENDBRANCH   5   6
ENDBRANCH   1   5
BRANCH   2  19
HETATM   19  C   UNL     1      42.583 -17.939   2.232  1.00  0.00     0.032 A 
HETATM   20  C   UNL     1      42.579 -17.704   3.615  1.00  0.00     0.029 A 
HETATM   21  C   UNL     1      43.412 -18.441   4.469  1.00  0.00    -0.023 A 
HETATM   22  C   UNL     1      44.247 -19.420   3.915  1.00  0.00     0.012 A 
HETATM   23  C   UNL     1      44.242 -19.671   2.541  1.00  0.00     0.002 A 
HETATM   24  C   UNL     1      43.408 -18.935   1.698  1.00  0.00     0.017 A 
BRANCH  21  25
HETATM   25  C   UNL     1      43.423 -18.202   5.905  1.00  0.00    -0.002 A 
HETATM   26  C   UNL     1      42.490 -17.441   6.580  1.00  0.00     0.153 A 
HETATM   27  O   UNL     1      42.758 -17.414   7.911  1.00  0.00    -0.334 OA
HETATM   28  C   UNL     1      43.869 -18.168   8.104  1.00  0.00     0.142 A 
HETATM   29  C   UNL     1      44.315 -18.678   6.908  1.00  0.00     0.038 A 
ENDBRANCH  21  25
ENDBRANCH   2  19
TORSDOF 7
ENDMDL
MODEL 9
REMARK VINA RESULT:      -8.0      3.749      5.916
REMARK  7 active torsions:
REMARK  status: ('A' for Active; 'I' for Inactive)
REMARK    1  A    between atoms: O_2  and  C_3 
REMARK    2  A    between atoms: C_6  and  C_7 
REMARK       I    between atoms: C_7  and  N_8 
REMARK    3  A    between atoms: N_8  and  C_9 
REMARK    4  A    between atoms: C_9  and  C_10 
REMARK    5  A    between atoms: C_10  and  N_11 
REMARK       I    between atoms: N_11  and  C_12 
REMARK    6  A    between atoms: C_12  and  C_13 
REMARK    7  A    between atoms: C_15  and  C_16 
ROOT
HETATM    1  N   UNL     1      41.859 -13.767   3.770  1.00  0.00    -0.355 N 
HETATM    2  C   UNL     1      42.891 -14.421   3.132  1.00  0.00     0.251 C 
HETATM    3  O   UNL     1      44.057 -14.044   3.184  1.00  0.00    -0.268 OA
HETATM    4  H   UNL     1      40.900 -13.984   3.532  1.00  0.00     0.162 HD
ENDROOT
BRANCH   1   5
HETATM    5  C   UNL     1      42.094 -12.554   4.535  1.00  0.00     0.142 C 
BRANCH   5   6
HETATM    6  C   UNL     1      42.524 -12.841   5.978  1.00  0.00     0.142 C 
BRANCH   6   7
HETATM    7  N   UNL     1      42.620 -14.260   6.267  1.00  0.00    -0.355 N 
HETATM    8  C   UNL     1      43.787 -14.813   6.751  1.00  0.00     0.251 C 
HETATM    9  O   UNL     1      44.790 -14.148   6.988  1.00  0.00    -0.268 OA
HETATM   10  H   UNL     1      41.763 -14.794   6.278  1.00  0.00     0.162 HD
BRANCH   8  11
HETATM   11  C   UNL     1      43.779 -16.280   7.012  1.00  0.00     0.032 A 
HETATM   12  C   UNL     1      43.737 -16.812   8.307  1.00  0.00     0.020 A 
HETATM   13  C   UNL     1      43.704 -18.199   8.503  1.00  0.00     0.038 A 
HETATM   14  C   UNL     1      43.702 -19.064   7.409  1.00  0.00     0.068 A 
HETATM   15  C   UNL     1      43.738 -18.533   6.117  1.00  0.00     0.038 A 
HETATM   16  C   UNL     1      43.770 -17.151   5.916  1.00  0.00     0.020 A 
BRANCH  14  17
HETATM   17  O   UNL     1      43.663 -20.430   7.463  1.00  0.00    -0.356 OA
HETATM   18  C   UNL     1      44.062 -21.133   6.292  1.00  0.00     0.210 C 
ENDBRANCH  14  17
ENDBRANCH   8  11
ENDBRANCH   6   7
ENDBRANCH   5   6
ENDBRANCH   1   5
BRANCH   2  19
HETATM   19  C   UNL     1      42.522 -15.612   2.315  1.00  0.00     0.032 A 
HETATM   20  C   UNL     1      43.168 -16.827   2.587  1.00  0.00     0.029 A 
HETATM   21  C   UNL     1      42.861 -17.982   1.852  1.00  0.00    -0.023 A 
HETATM   22  C   UNL     1      41.894 -17.900   0.842  1.00  0.00     0.012 A 
HETATM   23  C   UNL     1      41.234 -16.696   0.580  1.00  0.00     0.002 A 
HETATM   24  C   UNL     1      41.543 -15.553   1.317  1.00  0.00     0.017 A 
BRANCH  21  25
HETATM   25  C   UNL     1      43.529 -19.247   2.119  1.00  0.00    -0.002 A 
HETATM   26  C   UNL     1      44.727 -19.375   2.795  1.00  0.00     0.153 A 
HETATM   27  O   UNL     1      45.088 -20.680   2.898  1.00  0.00    -0.334 OA
HETATM   28  C   UNL     1      44.117 -21.406   2.291  1.00  0.00     0.142 A 
HETATM   29  C   UNL     1      43.135 -20.578   1.800  1.00  0.00     0.038 A 
ENDBRANCH  21  25
ENDBRANCH   2  19
TORSDOF 7
ENDMDL
MODEL 10
REMARK VINA RESULT:      -7.8      5.777     10.111
REMARK  7 active torsions:
REMARK  status: ('A' for Active; 'I' for Inactive)
REMARK    1  A    between atoms: O_2  and  C_3 
REMARK    2  A    between atoms: C_6  and  C_7 
REMARK       I    between atoms: C_7  and  N_8 
REMARK    3  A    between atoms: N_8  and  C_9 
REMARK    4  A    between atoms: C_9  and  C_10 
REMARK    5  A    between atoms: C_10  and  N_11 
REMARK       I    between atoms: N_11  and  C_12 
REMARK    6  A    between atoms: C_12  and  C_13 
REMARK    7  A    between atoms: C_15  and  C_16 
ROOT
HETATM    1  N   UNL     1      41.751 -15.925   2.416  1.00  0.00    -0.355 N 
HETATM    2  C   UNL     1      42.251 -15.763   3.690  1.00  0.00     0.251 C 
HETATM    3  O   UNL     1      42.100 -14.735   4.342  1.00  0.00    -0.268 OA
HETATM    4  H   UNL     1      42.073 -16.693   1.842  1.00  0.00     0.162 HD
ENDROOT
BRANCH   1   5
HETATM    5  C   UNL     1      41.026 -14.857   1.749  1.00  0.00     0.142 C 
BRANCH   5   6
HETATM    6  C   UNL     1      41.496 -14.637   0.306  1.00  0.00     0.142 C 
BRANCH   6   7
HETATM    7  N   UNL     1      40.420 -14.741  -0.661  1.00  0.00    -0.355 N 
HETATM    8  C   UNL     1      39.999 -13.643  -1.383  1.00  0.00     0.251 C 
HETATM    9  O   UNL     1      40.518 -12.537  -1.273  1.00  0.00    -0.268 OA
HETATM   10  H   UNL     1      40.112 -15.667  -0.921  1.00  0.00     0.162 HD
BRANCH   8  11
HETATM   11  C   UNL     1      38.884 -13.859  -2.347  1.00  0.00     0.032 A 
HETATM   12  C   UNL     1      37.936 -12.869  -2.631  1.00  0.00     0.020 A 
HETATM   13  C   UNL     1      36.919 -13.108  -3.565  1.00  0.00     0.038 A 
HETATM   14  C   UNL     1      36.848 -14.332  -4.231  1.00  0.00     0.068 A 
HETATM   15  C   UNL     1      37.798 -15.317  -3.951  1.00  0.00     0.038 A 
HETATM   16  C   UNL     1      38.815 -15.084  -3.022  1.00  0.00     0.020 A 
BRANCH  14  17
HETATM   17  O   UNL     1      35.916 -14.687  -5.166  1.00  0.00    -0.356 OA
HETATM   18  C   UNL     1      35.341 -13.636  -5.934  1.00  0.00     0.210 C 
ENDBRANCH  14  17
ENDBRANCH   8  11
ENDBRANCH   6   7
ENDBRANCH   5   6
ENDBRANCH   1   5
BRANCH   2  19
HETATM   19  C   UNL     1      43.041 -16.897   4.246  1.00  0.00     0.032 A 
HETATM   20  C   UNL     1      43.174 -18.056   3.468  1.00  0.00     0.029 A 
HETATM   21  C   UNL     1      43.909 -19.155   3.938  1.00  0.00    -0.023 A 
HETATM   22  C   UNL     1      44.509 -19.072   5.202  1.00  0.00     0.012 A 
HETATM   23  C   UNL     1      44.394 -17.913   5.974  1.00  0.00     0.002 A 
HETATM   24  C   UNL     1      43.665 -16.824   5.496  1.00  0.00     0.017 A 
BRANCH  21  25
HETATM   25  C   UNL     1      44.049 -20.366   3.144  1.00  0.00    -0.002 A 
HETATM   26  C   UNL     1      44.694 -21.512   3.567  1.00  0.00     0.153 A 
HETATM   27  O   UNL     1      44.649 -22.475   2.611  1.00  0.00    -0.334 OA
HETATM   28  C   UNL     1      43.964 -21.955   1.561  1.00  0.00     0.142 A 
HETATM   29  C   UNL     1      43.570 -20.667   1.836  1.00  0.00     0.038 A 
ENDBRANCH  21  25
ENDBRANCH   2  19
TORSDOF 7
ENDMDL
