MODEL 1
REMARK VINA RESULT:      -8.1      0.000      0.000
REMARK  3 active torsions:
REMARK  status: ('A' for Active; 'I' for Inactive)
REMARK    1  A    between atoms: C_3  and  N_4 
REMARK       I    between atoms: N_4  and  C_5 
REMARK    2  A    between atoms: C_5  and  C_6 
REMARK    3  A    between atoms: C_6  and  C_7 
ROOT
HETATM    1  C   UNL     1      43.605 -15.391   5.210  1.00  0.00     0.286 C 
HETATM    2  N   UNL     1      42.356 -15.163   4.360  1.00  0.00    -0.056 N 
HETATM    3  H   UNL     1      42.607 -14.535   3.588  1.00  0.00     0.278 HD
HETATM    4  H   UNL     1      42.133 -16.074   3.905  1.00  0.00     0.278 HD
HETATM    5  C   UNL     1      41.171 -14.629   5.122  1.00  0.00     0.209 C 
HETATM    6  C   UNL     1      41.587 -13.331   5.864  1.00  0.00     0.115 C 
HETATM    7  N   UNL     1      42.834 -13.491   6.611  1.00  0.00    -0.353 N 
HETATM    8  C   UNL     1      43.904 -14.224   6.162  1.00  0.00     0.249 C 
HETATM    9  O   UNL     1      45.026 -14.026   6.613  1.00  0.00    -0.271 OA
HETATM   10  C   UNL     1      40.000 -14.416   4.160  1.00  0.00     0.035 C 
HETATM   11  C   UNL     1      40.164 -13.197   3.254  1.00  0.00     0.002 C 
HETATM   12  C   UNL     1      40.476 -11.941   4.059  1.00  0.00     0.002 C 
HETATM   13  C   UNL     1      41.721 -12.131   4.916  1.00  0.00     0.027 C 
HETATM   14  H   UNL     1      43.099 -12.752   7.261  1.00  0.00     0.163 HD
ENDROOT
BRANCH   1  15
HETATM   15  C   UNL     1      43.501 -16.662   6.061  1.00  0.00     0.146 C 
BRANCH  15  16
HETATM   16  C   UNL     1      43.100 -17.856   5.230  1.00  0.00     0.224 C 
HETATM   17  N   UNL     1      44.189 -18.552   4.760  1.00  0.00    -0.327 N 
HETATM   18  H   UNL     1      45.079 -18.343   5.203  1.00  0.00     0.169 HD
HETATM   19  O   UNL     1      41.910 -18.145   5.144  1.00  0.00    -0.273 OA
BRANCH  17  20
HETATM   20  C   UNL     1      44.221 -19.704   3.938  1.00  0.00     0.040 A 
HETATM   21  C   UNL     1      43.918 -19.766   2.568  1.00  0.00    -0.035 A 
HETATM   22  C   UNL     1      43.598 -18.582   1.700  1.00  0.00     0.050 C 
HETATM   23  C   UNL     1      43.964 -21.020   1.921  1.00  0.00     0.009 A 
HETATM   24  C   UNL     1      44.358 -22.175   2.593  1.00  0.00     0.001 A 
HETATM   25  C   UNL     1      44.721 -22.100   3.929  1.00  0.00     0.002 A 
HETATM   26  C   UNL     1      44.659 -20.873   4.591  1.00  0.00     0.030 A 
ENDBRANCH  17  20
ENDBRANCH  15  16
ENDBRANCH   1  15
TORSDOF 3
ENDMDL
MODEL 2
REMARK VINA RESULT:      -8.0      4.160      5.458
REMARK  3 active torsions:
REMARK  status: ('A' for Active; 'I' for Inactive)
REMARK    1  A    between atoms: C_3  and  N_4 
REMARK       I    between atoms: N_4  and  C_5 
REMARK    2  A    between atoms: C_5  and  C_6 
REMARK    3  A    between atoms: C_6  and  C_7 
ROOT
HETATM    1  C   UNL     1      41.312 -15.229   0.485  1.00  0.00     0.286 C 
HETATM    2  N   UNL     1      41.835 -14.861  -0.903  1.00  0.00    -0.056 N 
HETATM    3  H   UNL     1      42.207 -13.905  -0.859  1.00  0.00     0.278 HD
HETATM    4  H   UNL     1      42.664 -15.465  -1.081  1.00  0.00     0.278 HD
HETATM    5  C   UNL     1      40.817 -14.991  -2.007  1.00  0.00     0.209 C 
HETATM    6  C   UNL     1      39.561 -14.155  -1.642  1.00  0.00     0.115 C 
HETATM    7  N   UNL     1      39.094 -14.417  -0.280  1.00  0.00    -0.353 N 
HETATM    8  C   UNL     1      39.932 -14.629   0.786  1.00  0.00     0.249 C 
HETATM    9  O   UNL     1      39.531 -14.465   1.932  1.00  0.00    -0.271 OA
HETATM   10  C   UNL     1      41.449 -14.566  -3.334  1.00  0.00     0.035 C 
HETATM   11  C   UNL     1      41.634 -13.056  -3.472  1.00  0.00     0.002 C 
HETATM   12  C   UNL     1      40.337 -12.306  -3.192  1.00  0.00     0.002 C 
HETATM   13  C   UNL     1      39.790 -12.646  -1.812  1.00  0.00     0.027 C 
HETATM   14  H   UNL     1      38.185 -14.044  -0.008  1.00  0.00     0.163 HD
ENDROOT
BRANCH   1  15
HETATM   15  C   UNL     1      41.205 -16.746   0.678  1.00  0.00     0.146 C 
BRANCH  15  16
HETATM   16  C   UNL     1      42.469 -17.323   1.267  1.00  0.00     0.224 C 
HETATM   17  N   UNL     1      42.247 -18.525   1.898  1.00  0.00    -0.327 N 
HETATM   18  H   UNL     1      41.363 -18.981   1.693  1.00  0.00     0.169 HD
HETATM   19  O   UNL     1      43.536 -16.756   1.050  1.00  0.00    -0.273 OA
BRANCH  17  20
HETATM   20  C   UNL     1      43.168 -19.354   2.581  1.00  0.00     0.040 A 
HETATM   21  C   UNL     1      43.705 -19.134   3.861  1.00  0.00    -0.035 A 
HETATM   22  C   UNL     1      43.311 -18.015   4.782  1.00  0.00     0.050 C 
HETATM   23  C   UNL     1      44.650 -20.056   4.365  1.00  0.00     0.009 A 
HETATM   24  C   UNL     1      45.011 -21.196   3.651  1.00  0.00     0.001 A 
HETATM   25  C   UNL     1      44.430 -21.444   2.418  1.00  0.00     0.002 A 
HETATM   26  C   UNL     1      43.513 -20.534   1.893  1.00  0.00     0.030 A 
ENDBRANCH  17  20
ENDBRANCH  15  16
ENDBRANCH   1  15
TORSDOF 3
ENDMDL
MODEL 3
REMARK VINA RESULT:      -7.9      4.149      5.485
REMARK  3 active torsions:
REMARK  status: ('A' for Active; 'I' for Inactive)
REMARK    1  A    between atoms: C_3  and  N_4 
REMARK       I    between atoms: N_4  and  C_5 
REMARK    2  A    between atoms: C_5  and  C_6 
REMARK    3  A    between atoms: C_6  and  C_7 
ROOT
HETATM    1  C   UNL     1      41.253 -15.243   0.583  1.00  0.00     0.286 C 
HETATM    2  N   UNL     1      41.774 -14.931  -0.819  1.00  0.00    -0.056 N 
HETATM    3  H   UNL     1      42.148 -13.975  -0.814  1.00  0.00     0.278 HD
HETATM    4  H   UNL     1      42.603 -15.544  -0.975  1.00  0.00     0.278 HD
HETATM    5  C   UNL     1      40.755 -15.104  -1.916  1.00  0.00     0.209 C 
HETATM    6  C   UNL     1      39.501 -14.252  -1.583  1.00  0.00     0.115 C 
HETATM    7  N   UNL     1      39.035 -14.459  -0.212  1.00  0.00    -0.353 N 
HETATM    8  C   UNL     1      39.874 -14.629   0.861  1.00  0.00     0.249 C 
HETATM    9  O   UNL     1      39.475 -14.419   2.001  1.00  0.00    -0.271 OA
HETATM   10  C   UNL     1      41.386 -14.734  -3.260  1.00  0.00     0.035 C 
HETATM   11  C   UNL     1      41.573 -13.231  -3.458  1.00  0.00     0.002 C 
HETATM   12  C   UNL     1      40.277 -12.468  -3.207  1.00  0.00     0.002 C 
HETATM   13  C   UNL     1      39.732 -12.752  -1.814  1.00  0.00     0.027 C 
HETATM   14  H   UNL     1      38.127 -14.074   0.046  1.00  0.00     0.163 HD
ENDROOT
BRANCH   1  15
HETATM   15  C   UNL     1      41.144 -16.751   0.836  1.00  0.00     0.146 C 
BRANCH  15  16
HETATM   16  C   UNL     1      42.436 -17.322   1.368  1.00  0.00     0.224 C 
HETATM   17  N   UNL     1      42.253 -18.021   2.539  1.00  0.00    -0.327 N 
HETATM   18  H   UNL     1      41.295 -18.271   2.765  1.00  0.00     0.169 HD
HETATM   19  O   UNL     1      43.455 -17.210   0.693  1.00  0.00    -0.273 OA
BRANCH  17  20
HETATM   20  C   UNL     1      43.216 -18.676   3.342  1.00  0.00     0.040 A 
HETATM   21  C   UNL     1      43.818 -19.919   3.084  1.00  0.00    -0.035 A 
HETATM   22  C   UNL     1      43.615 -20.735   1.839  1.00  0.00     0.050 C 
HETATM   23  C   UNL     1      44.732 -20.437   4.028  1.00  0.00     0.009 A 
HETATM   24  C   UNL     1      45.089 -19.720   5.169  1.00  0.00     0.001 A 
HETATM   25  C   UNL     1      44.543 -18.465   5.387  1.00  0.00     0.002 A 
HETATM   26  C   UNL     1      43.621 -17.947   4.478  1.00  0.00     0.030 A 
ENDBRANCH  17  20
ENDBRANCH  15  16
ENDBRANCH   1  15
TORSDOF 3
ENDMDL
MODEL 4
REMARK VINA RESULT:      -7.9      2.890      4.224
REMARK  3 active torsions:
REMARK  status: ('A' for Active; 'I' for Inactive)
REMARK    1  A    between atoms: C_3  and  N_4 
REMARK       I    between atoms: N_4  and  C_5 
REMARK    2  A    between atoms: C_5  and  C_6 
REMARK    3  A    between atoms: C_6  and  C_7 
ROOT
HETATM    1  C   UNL     1      40.297 -16.159   1.974  1.00  0.00     0.286 C 
HETATM    2  N   UNL     1      39.150 -15.156   2.091  1.00  0.00    -0.056 N 
HETATM    3  H   UNL     1      38.378 -15.485   1.500  1.00  0.00     0.278 HD
HETATM    4  H   UNL     1      38.791 -15.224   3.067  1.00  0.00     0.278 HD
HETATM    5  C   UNL     1      39.524 -13.738   1.745  1.00  0.00     0.209 C 
HETATM    6  C   UNL     1      40.149 -13.709   0.325  1.00  0.00     0.115 C 
HETATM    7  N   UNL     1      41.187 -14.726   0.152  1.00  0.00    -0.353 N 
HETATM    8  C   UNL     1      41.115 -15.988   0.686  1.00  0.00     0.249 C 
HETATM    9  O   UNL     1      41.787 -16.899   0.218  1.00  0.00    -0.271 OA
HETATM   10  C   UNL     1      38.291 -12.840   1.870  1.00  0.00     0.035 C 
HETATM   11  C   UNL     1      37.285 -13.017   0.734  1.00  0.00     0.002 C 
HETATM   12  C   UNL     1      37.952 -12.881  -0.629  1.00  0.00     0.002 C 
HETATM   13  C   UNL     1      39.099 -13.872  -0.783  1.00  0.00     0.027 C 
HETATM   14  H   UNL     1      41.768 -14.677  -0.684  1.00  0.00     0.163 HD
ENDROOT
BRANCH   1  15
HETATM   15  C   UNL     1      41.271 -16.063   3.153  1.00  0.00     0.146 C 
BRANCH  15  16
HETATM   16  C   UNL     1      41.716 -17.426   3.621  1.00  0.00     0.224 C 
HETATM   17  N   UNL     1      42.758 -17.919   2.871  1.00  0.00    -0.327 N 
HETATM   18  H   UNL     1      43.244 -17.247   2.285  1.00  0.00     0.169 HD
HETATM   19  O   UNL     1      41.211 -17.898   4.636  1.00  0.00    -0.273 OA
BRANCH  17  20
HETATM   20  C   UNL     1      43.428 -19.160   2.988  1.00  0.00     0.040 A 
HETATM   21  C   UNL     1      44.298 -19.550   4.021  1.00  0.00    -0.035 A 
HETATM   22  C   UNL     1      44.594 -18.742   5.251  1.00  0.00     0.050 C 
HETATM   23  C   UNL     1      44.910 -20.821   3.945  1.00  0.00     0.009 A 
HETATM   24  C   UNL     1      44.627 -21.708   2.909  1.00  0.00     0.001 A 
HETATM   25  C   UNL     1      43.717 -21.347   1.928  1.00  0.00     0.002 A 
HETATM   26  C   UNL     1      43.120 -20.087   1.973  1.00  0.00     0.030 A 
ENDBRANCH  17  20
ENDBRANCH  15  16
ENDBRANCH   1  15
TORSDOF 3
ENDMDL
MODEL 5
REMARK VINA RESULT:      -7.8      2.301      3.077
REMARK  3 active torsions:
REMARK  status: ('A' for Active; 'I' for Inactive)
REMARK    1  A    between atoms: C_3  and  N_4 
REMARK       I    between atoms: N_4  and  C_5 
REMARK    2  A    between atoms: C_5  and  C_6 
REMARK    3  A    between atoms: C_6  and  C_7 
ROOT
HETATM    1  C   UNL     1      42.664 -15.197   2.787  1.00  0.00     0.286 C 
HETATM    2  N   UNL     1      41.659 -15.229   1.636  1.00  0.00    -0.056 N 
HETATM    3  H   UNL     1      42.183 -15.180   0.754  1.00  0.00     0.278 HD
HETATM    4  H   UNL     1      41.227 -16.177   1.641  1.00  0.00     0.278 HD
HETATM    5  C   UNL     1      40.609 -14.150   1.695  1.00  0.00     0.209 C 
HETATM    6  C   UNL     1      41.306 -12.766   1.791  1.00  0.00     0.115 C 
HETATM    7  N   UNL     1      42.343 -12.735   2.823  1.00  0.00    -0.353 N 
HETATM    8  C   UNL     1      43.185 -13.785   3.090  1.00  0.00     0.249 C 
HETATM    9  O   UNL     1      44.249 -13.596   3.668  1.00  0.00    -0.271 OA
HETATM   10  C   UNL     1      39.687 -14.268   0.479  1.00  0.00     0.035 C 
HETATM   11  C   UNL     1      40.326 -13.792  -0.824  1.00  0.00     0.002 C 
HETATM   12  C   UNL     1      40.905 -12.389  -0.683  1.00  0.00     0.002 C 
HETATM   13  C   UNL     1      41.916 -12.322   0.454  1.00  0.00     0.027 C 
HETATM   14  H   UNL     1      42.738 -11.830   3.074  1.00  0.00     0.163 HD
ENDROOT
BRANCH   1  15
HETATM   15  C   UNL     1      42.073 -15.758   4.085  1.00  0.00     0.146 C 
BRANCH  15  16
HETATM   16  C   UNL     1      42.146 -17.264   4.126  1.00  0.00     0.224 C 
HETATM   17  N   UNL     1      43.283 -17.746   3.519  1.00  0.00    -0.327 N 
HETATM   18  H   UNL     1      44.018 -17.068   3.345  1.00  0.00     0.169 HD
HETATM   19  O   UNL     1      41.291 -17.882   4.754  1.00  0.00    -0.273 OA
BRANCH  17  20
HETATM   20  C   UNL     1      43.694 -19.088   3.340  1.00  0.00     0.040 A 
HETATM   21  C   UNL     1      44.408 -19.877   4.258  1.00  0.00    -0.035 A 
HETATM   22  C   UNL     1      44.778 -19.457   5.651  1.00  0.00     0.050 C 
HETATM   23  C   UNL     1      44.768 -21.190   3.884  1.00  0.00     0.009 A 
HETATM   24  C   UNL     1      44.383 -21.733   2.660  1.00  0.00     0.001 A 
HETATM   25  C   UNL     1      43.621 -20.976   1.784  1.00  0.00     0.002 A 
HETATM   26  C   UNL     1      43.276 -19.669   2.126  1.00  0.00     0.030 A 
ENDBRANCH  17  20
ENDBRANCH  15  16
ENDBRANCH   1  15
TORSDOF 3
ENDMDL
MODEL 6
REMARK VINA RESULT:      -7.6      1.974      2.978
REMARK  3 active torsions:
REMARK  status: ('A' for Active; 'I' for Inactive)
REMARK    1  A    between atoms: C_3  and  N_4 
REMARK       I    between atoms: N_4  and  C_5 
REMARK    2  A    between atoms: C_5  and  C_6 
REMARK    3  A    between atoms: C_6  and  C_7 
ROOT
HETATM    1  C   UNL     1      42.468 -15.557   3.691  1.00  0.00     0.286 C 
HETATM    2  N   UNL     1      42.506 -14.036   3.829  1.00  0.00    -0.056 N 
HETATM    3  H   UNL     1      42.745 -13.810   4.802  1.00  0.00     0.278 HD
HETATM    4  H   UNL     1      43.318 -13.703   3.267  1.00  0.00     0.278 HD
HETATM    5  C   UNL     1      41.235 -13.340   3.415  1.00  0.00     0.209 C 
HETATM    6  C   UNL     1      40.044 -13.945   4.206  1.00  0.00     0.115 C 
HETATM    7  N   UNL     1      40.037 -15.407   4.172  1.00  0.00    -0.353 N 
HETATM    8  C   UNL     1      41.172 -16.177   4.230  1.00  0.00     0.249 C 
HETATM    9  O   UNL     1      41.109 -17.351   4.577  1.00  0.00    -0.271 OA
HETATM   10  C   UNL     1      41.386 -11.832   3.628  1.00  0.00     0.035 C 
HETATM   11  C   UNL     1      41.323 -11.410   5.095  1.00  0.00     0.002 C 
HETATM   12  C   UNL     1      40.079 -11.960   5.782  1.00  0.00     0.002 C 
HETATM   13  C   UNL     1      40.012 -13.478   5.668  1.00  0.00     0.027 C 
HETATM   14  H   UNL     1      39.208 -15.889   4.518  1.00  0.00     0.163 HD
ENDROOT
BRANCH   1  15
HETATM   15  C   UNL     1      42.623 -16.008   2.234  1.00  0.00     0.146 C 
BRANCH  15  16
HETATM   16  C   UNL     1      43.535 -17.204   2.115  1.00  0.00     0.224 C 
HETATM   17  N   UNL     1      43.041 -18.303   2.779  1.00  0.00    -0.327 N 
HETATM   18  H   UNL     1      42.062 -18.262   3.046  1.00  0.00     0.169 HD
HETATM   19  O   UNL     1      44.523 -17.126   1.390  1.00  0.00    -0.273 OA
BRANCH  17  20
HETATM   20  C   UNL     1      43.612 -19.591   2.914  1.00  0.00     0.040 A 
HETATM   21  C   UNL     1      44.359 -20.067   4.005  1.00  0.00    -0.035 A 
HETATM   22  C   UNL     1      44.600 -19.313   5.281  1.00  0.00     0.050 C 
HETATM   23  C   UNL     1      44.888 -21.375   3.942  1.00  0.00     0.009 A 
HETATM   24  C   UNL     1      44.637 -22.214   2.859  1.00  0.00     0.001 A 
HETATM   25  C   UNL     1      43.844 -21.765   1.814  1.00  0.00     0.002 A 
HETATM   26  C   UNL     1      43.333 -20.467   1.847  1.00  0.00     0.030 A 
ENDBRANCH  17  20
ENDBRANCH  15  16
ENDBRANCH   1  15
TORSDOF 3
ENDMDL
MODEL 7
REMARK VINA RESULT:      -7.6      1.846      6.798
REMARK  3 active torsions:
REMARK  status: ('A' for Active; 'I' for Inactive)
REMARK    1  A    between atoms: C_3  and  N_4 
REMARK       I    between atoms: N_4  and  C_5 
REMARK    2  A    between atoms: C_5  and  C_6 
REMARK    3  A    between atoms: C_6  and  C_7 
ROOT
HETATM    1  C   UNL     1      42.810 -18.421   5.416  1.00  0.00     0.286 C 
HETATM    2  N   UNL     1      42.801 -18.887   3.961  1.00  0.00    -0.056 N 
HETATM    3  H   UNL     1      42.228 -19.736   3.902  1.00  0.00     0.278 HD
HETATM    4  H   UNL     1      42.275 -18.168   3.419  1.00  0.00     0.278 HD
HETATM    5  C   UNL     1      44.169 -19.119   3.373  1.00  0.00     0.209 C 
HETATM    6  C   UNL     1      44.947 -20.115   4.274  1.00  0.00     0.115 C 
HETATM    7  N   UNL     1      44.891 -19.747   5.689  1.00  0.00    -0.353 N 
HETATM    8  C   UNL     1      43.778 -19.222   6.297  1.00  0.00     0.249 C 
HETATM    9  O   UNL     1      43.647 -19.287   7.514  1.00  0.00    -0.271 OA
HETATM   10  C   UNL     1      44.027 -19.609   1.930  1.00  0.00     0.035 C 
HETATM   11  C   UNL     1      43.560 -21.059   1.816  1.00  0.00     0.002 C 
HETATM   12  C   UNL     1      44.429 -21.993   2.652  1.00  0.00     0.002 C 
HETATM   13  C   UNL     1      44.455 -21.561   4.112  1.00  0.00     0.027 C 
HETATM   14  H   UNL     1      45.506 -20.242   6.334  1.00  0.00     0.163 HD
ENDROOT
BRANCH   1  15
HETATM   15  C   UNL     1      43.186 -16.941   5.547  1.00  0.00     0.146 C 
BRANCH  15  16
HETATM   16  C   UNL     1      42.697 -16.135   4.369  1.00  0.00     0.224 C 
HETATM   17  N   UNL     1      41.358 -15.837   4.463  1.00  0.00    -0.327 N 
HETATM   18  H   UNL     1      40.933 -15.969   5.376  1.00  0.00     0.169 HD
HETATM   19  O   UNL     1      43.513 -15.749   3.537  1.00  0.00    -0.273 OA
BRANCH  17  20
HETATM   20  C   UNL     1      40.540 -15.124   3.554  1.00  0.00     0.040 A 
HETATM   21  C   UNL     1      40.037 -15.596   2.330  1.00  0.00    -0.035 A 
HETATM   22  C   UNL     1      40.200 -16.997   1.812  1.00  0.00     0.050 C 
HETATM   23  C   UNL     1      39.268 -14.720   1.532  1.00  0.00     0.009 A 
HETATM   24  C   UNL     1      38.953 -13.431   1.957  1.00  0.00     0.001 A 
HETATM   25  C   UNL     1      39.395 -12.991   3.195  1.00  0.00     0.002 A 
HETATM   26  C   UNL     1      40.175 -13.834   3.987  1.00  0.00     0.030 A 
ENDBRANCH  17  20
ENDBRANCH  15  16
ENDBRANCH   1  15
TORSDOF 3
ENDMDL
MODEL 8
REMARK VINA RESULT:      -7.2      2.061      3.435
REMARK  3 active torsions:
REMARK  status: ('A' for Active; 'I' for Inactive)
REMARK    1  A    between atoms: C_3  and  N_4 
REMARK       I    between atoms: N_4  and  C_5 
REMARK    2  A    between atoms: C_5  and  C_6 
REMARK    3  A    between atoms: C_6  and  C_7 
ROOT
HETATM    1  C   UNL     1      40.397 -15.327   3.917  1.00  0.00     0.286 C 
HETATM    2  N   UNL     1      39.964 -13.926   4.344  1.00  0.00    -0.056 N 
HETATM    3  H   UNL     1      38.939 -13.909   4.390  1.00  0.00     0.278 HD
HETATM    4  H   UNL     1      40.280 -13.801   5.330  1.00  0.00     0.278 HD
HETATM    5  C   UNL     1      40.480 -12.818   3.463  1.00  0.00     0.209 C 
HETATM    6  C   UNL     1      40.072 -13.106   1.993  1.00  0.00     0.115 C 
HETATM    7  N   UNL     1      40.388 -14.475   1.585  1.00  0.00    -0.353 N 
HETATM    8  C   UNL     1      40.255 -15.566   2.408  1.00  0.00     0.249 C 
HETATM    9  O   UNL     1      40.160 -16.692   1.935  1.00  0.00    -0.271 OA
HETATM   10  C   UNL     1      39.955 -11.474   3.973  1.00  0.00     0.035 C 
HETATM   11  C   UNL     1      38.476 -11.237   3.671  1.00  0.00     0.002 C 
HETATM   12  C   UNL     1      38.168 -11.445   2.193  1.00  0.00     0.002 C 
HETATM   13  C   UNL     1      38.583 -12.837   1.734  1.00  0.00     0.027 C 
HETATM   14  H   UNL     1      40.311 -14.707   0.596  1.00  0.00     0.163 HD
ENDROOT
BRANCH   1  15
HETATM   15  C   UNL     1      41.854 -15.622   4.294  1.00  0.00     0.146 C 
BRANCH  15  16
HETATM   16  C   UNL     1      42.110 -17.104   4.412  1.00  0.00     0.224 C 
HETATM   17  N   UNL     1      43.079 -17.535   3.536  1.00  0.00    -0.327 N 
HETATM   18  H   UNL     1      43.652 -16.812   3.112  1.00  0.00     0.169 HD
HETATM   19  O   UNL     1      41.544 -17.734   5.301  1.00  0.00    -0.273 OA
BRANCH  17  20
HETATM   20  C   UNL     1      43.576 -18.845   3.335  1.00  0.00     0.040 A 
HETATM   21  C   UNL     1      44.427 -19.560   4.195  1.00  0.00    -0.035 A 
HETATM   22  C   UNL     1      44.884 -19.089   5.546  1.00  0.00     0.050 C 
HETATM   23  C   UNL     1      44.854 -20.849   3.804  1.00  0.00     0.009 A 
HETATM   24  C   UNL     1      44.407 -21.441   2.625  1.00  0.00     0.001 A 
HETATM   25  C   UNL     1      43.515 -20.760   1.812  1.00  0.00     0.002 A 
HETATM   26  C   UNL     1      43.100 -19.477   2.169  1.00  0.00     0.030 A 
ENDBRANCH  17  20
ENDBRANCH  15  16
ENDBRANCH   1  15
TORSDOF 3
ENDMDL
MODEL 9
REMARK VINA RESULT:      -7.1      2.752      3.535
REMARK  3 active torsions:
REMARK  status: ('A' for Active; 'I' for Inactive)
REMARK    1  A    between atoms: C_3  and  N_4 
REMARK       I    between atoms: N_4  and  C_5 
REMARK    2  A    between atoms: C_5  and  C_6 
REMARK    3  A    between atoms: C_6  and  C_7 
ROOT
HETATM    1  C   UNL     1      42.088 -15.649   2.246  1.00  0.00     0.286 C 
HETATM    2  N   UNL     1      41.828 -14.351   1.482  1.00  0.00    -0.056 N 
HETATM    3  H   UNL     1      42.006 -13.566   2.120  1.00  0.00     0.278 HD
HETATM    4  H   UNL     1      42.568 -14.279   0.752  1.00  0.00     0.278 HD
HETATM    5  C   UNL     1      40.452 -14.249   0.877  1.00  0.00     0.209 C 
HETATM    6  C   UNL     1      39.390 -14.467   1.988  1.00  0.00     0.115 C 
HETATM    7  N   UNL     1      39.668 -15.653   2.799  1.00  0.00    -0.353 N 
HETATM    8  C   UNL     1      40.929 -16.044   3.172  1.00  0.00     0.249 C 
HETATM    9  O   UNL     1      41.090 -16.787   4.132  1.00  0.00    -0.271 OA
HETATM   10  C   UNL     1      40.305 -12.899   0.171  1.00  0.00     0.035 C 
HETATM   11  C   UNL     1      40.141 -11.720   1.127  1.00  0.00     0.002 C 
HETATM   12  C   UNL     1      39.018 -11.964   2.129  1.00  0.00     0.002 C 
HETATM   13  C   UNL     1      39.249 -13.249   2.912  1.00  0.00     0.027 C 
HETATM   14  H   UNL     1      38.943 -15.971   3.441  1.00  0.00     0.163 HD
ENDROOT
BRANCH   1  15
HETATM   15  C   UNL     1      42.347 -16.831   1.304  1.00  0.00     0.146 C 
BRANCH  15  16
HETATM   16  C   UNL     1      43.437 -17.733   1.828  1.00  0.00     0.224 C 
HETATM   17  N   UNL     1      42.943 -18.732   2.633  1.00  0.00    -0.327 N 
HETATM   18  H   UNL     1      41.941 -18.891   2.585  1.00  0.00     0.169 HD
HETATM   19  O   UNL     1      44.586 -17.569   1.426  1.00  0.00    -0.273 OA
BRANCH  17  20
HETATM   20  C   UNL     1      43.646 -19.750   3.320  1.00  0.00     0.040 A 
HETATM   21  C   UNL     1      43.997 -21.014   2.816  1.00  0.00    -0.035 A 
HETATM   22  C   UNL     1      43.770 -21.474   1.404  1.00  0.00     0.050 C 
HETATM   23  C   UNL     1      44.667 -21.920   3.668  1.00  0.00     0.009 A 
HETATM   24  C   UNL     1      45.034 -21.568   4.965  1.00  0.00     0.001 A 
HETATM   25  C   UNL     1      44.745 -20.297   5.437  1.00  0.00     0.002 A 
HETATM   26  C   UNL     1      44.064 -19.396   4.618  1.00  0.00     0.030 A 
ENDBRANCH  17  20
ENDBRANCH  15  16
ENDBRANCH   1  15
TORSDOF 3
ENDMDL
MODEL 10
REMARK VINA RESULT:      -7.0      1.934      2.551
REMARK  3 active torsions:
REMARK  status: ('A' for Active; 'I' for Inactive)
REMARK    1  A    between atoms: C_3  and  N_4 
REMARK       I    between atoms: N_4  and  C_5 
REMARK    2  A    between atoms: C_5  and  C_6 
REMARK    3  A    between atoms: C_6  and  C_7 
ROOT
HETATM    1  C   UNL     1      42.025 -14.109   3.859  1.00  0.00     0.286 C 
HETATM    2  N   UNL     1      41.144 -14.657   2.737  1.00  0.00    -0.056 N 
HETATM    3  H   UNL     1      41.408 -14.183   1.865  1.00  0.00     0.278 HD
HETATM    4  H   UNL     1      41.421 -15.652   2.597  1.00  0.00     0.278 HD
HETATM    5  C   UNL     1      39.664 -14.532   2.988  1.00  0.00     0.209 C 
HETATM    6  C   UNL     1      39.324 -13.049   3.292  1.00  0.00     0.115 C 
HETATM    7  N   UNL     1      40.214 -12.467   4.296  1.00  0.00    -0.353 N 
HETATM    8  C   UNL     1      41.557 -12.741   4.375  1.00  0.00     0.249 C 
HETATM    9  O   UNL     1      42.314 -11.973   4.956  1.00  0.00    -0.271 OA
HETATM   10  C   UNL     1      38.894 -15.085   1.786  1.00  0.00     0.035 C 
HETATM   11  C   UNL     1      38.922 -14.168   0.565  1.00  0.00     0.002 C 
HETATM   12  C   UNL     1      38.484 -12.751   0.919  1.00  0.00     0.002 C 
HETATM   13  C   UNL     1      39.346 -12.171   2.033  1.00  0.00     0.027 C 
HETATM   14  H   UNL     1      39.968 -11.556   4.682  1.00  0.00     0.163 HD
ENDROOT
BRANCH   1  15
HETATM   15  C   UNL     1      42.086 -15.058   5.061  1.00  0.00     0.146 C 
BRANCH  15  16
HETATM   16  C   UNL     1      42.124 -16.503   4.629  1.00  0.00     0.224 C 
HETATM   17  N   UNL     1      43.378 -16.890   4.216  1.00  0.00    -0.327 N 
HETATM   18  H   UNL     1      44.142 -16.272   4.470  1.00  0.00     0.169 HD
HETATM   19  O   UNL     1      41.118 -17.192   4.777  1.00  0.00    -0.273 OA
BRANCH  17  20
HETATM   20  C   UNL     1      43.803 -18.147   3.725  1.00  0.00     0.040 A 
HETATM   21  C   UNL     1      43.918 -18.526   2.377  1.00  0.00    -0.035 A 
HETATM   22  C   UNL     1      43.701 -17.614   1.203  1.00  0.00     0.050 C 
HETATM   23  C   UNL     1      44.321 -19.846   2.077  1.00  0.00     0.009 A 
HETATM   24  C   UNL     1      44.660 -20.752   3.080  1.00  0.00     0.001 A 
HETATM   25  C   UNL     1      44.609 -20.355   4.407  1.00  0.00     0.002 A 
HETATM   26  C   UNL     1      44.191 -19.063   4.723  1.00  0.00     0.030 A 
ENDBRANCH  17  20
ENDBRANCH  15  16
ENDBRANCH   1  15
TORSDOF 3
ENDMDL
