MODEL 1
REMARK VINA RESULT:      -7.7      0.000      0.000
REMARK  5 active torsions:
REMARK  status: ('A' for Active; 'I' for Inactive)
REMARK    1  A    between atoms: C_6  and  N_7 
REMARK       I    between atoms: N_7  and  C_8 
REMARK    2  A    between atoms: C_8  and  C_9 
REMARK    3  A    between atoms: C_10  and  O_11 
REMARK    4  A    between atoms: C_14  and  O_15 
REMARK    5  A    between atoms: C_20  and  C_21 
ROOT
HETATM    1  C   UNL     1      44.181 -15.374   6.494  1.00  0.00     0.073 C 
HETATM    2  C   UNL     1      43.309 -14.877   5.400  1.00  0.00     0.065 A 
HETATM    3  N   UNL     1      42.666 -13.710   5.537  1.00  0.00    -0.177 NA
HETATM    4  N   UNL     1      41.938 -13.618   4.416  1.00  0.00    -0.262 N 
HETATM    5  H   UNL     1      41.365 -12.793   4.296  1.00  0.00     0.191 HD
HETATM    6  C   UNL     1      42.134 -14.638   3.523  1.00  0.00     0.137 A 
HETATM    7  C   UNL     1      42.996 -15.515   4.163  1.00  0.00     0.046 A 
ENDROOT
BRANCH   6   8
HETATM    8  N   UNL     1      41.495 -14.626   2.292  1.00  0.00    -0.307 N 
HETATM    9  C   UNL     1      41.783 -13.678   1.316  1.00  0.00     0.260 C 
HETATM   10  O   UNL     1      42.497 -12.694   1.464  1.00  0.00    -0.267 OA
HETATM   11  H   UNL     1      40.687 -15.219   2.168  1.00  0.00     0.170 HD
BRANCH   9  12
HETATM   12  C   UNL     1      41.056 -13.856   0.024  1.00  0.00     0.065 A 
HETATM   13  C   UNL     1      39.654 -13.854  -0.012  1.00  0.00     0.086 A 
HETATM   14  C   UNL     1      38.965 -14.018  -1.223  1.00  0.00     0.074 A 
HETATM   15  C   UNL     1      39.672 -14.227  -2.405  1.00  0.00     0.070 A 
HETATM   16  C   UNL     1      41.069 -14.251  -2.371  1.00  0.00     0.038 A 
HETATM   17  C   UNL     1      41.760 -14.077  -1.168  1.00  0.00     0.022 A 
BRANCH  13  18
HETATM   18  O   UNL     1      38.911 -13.594   1.111  1.00  0.00    -0.355 OA
HETATM   19  C   UNL     1      37.561 -14.031   0.925  1.00  0.00     0.210 C 
ENDBRANCH  13  18
BRANCH  15  20
HETATM   20  O   UNL     1      39.128 -14.410  -3.645  1.00  0.00    -0.356 OA
HETATM   21  C   UNL     1      39.019 -15.753  -4.105  1.00  0.00     0.210 C 
ENDBRANCH  15  20
ENDBRANCH   9  12
ENDBRANCH   6   8
BRANCH   7  22
HETATM   22  C   UNL     1      43.329 -16.861   3.732  1.00  0.00    -0.020 A 
HETATM   23  C   UNL     1      43.096 -17.958   4.569  1.00  0.00     0.014 A 
HETATM   24  C   UNL     1      43.369 -19.255   4.124  1.00  0.00     0.020 A 
HETATM   25  C   UNL     1      43.872 -19.455   2.840  1.00  0.00     0.011 A 
HETATM   26 BR   UNL     1      44.235 -21.210   2.237  1.00  0.00    -0.051 Br
HETATM   27  C   UNL     1      44.106 -18.373   1.995  1.00  0.00     0.020 A 
HETATM   28  C   UNL     1      43.832 -17.079   2.439  1.00  0.00     0.014 A 
ENDBRANCH   7  22
TORSDOF 5
ENDMDL
MODEL 2
REMARK VINA RESULT:      -7.7      3.718      7.368
REMARK  5 active torsions:
REMARK  status: ('A' for Active; 'I' for Inactive)
REMARK    1  A    between atoms: C_6  and  N_7 
REMARK       I    between atoms: N_7  and  C_8 
REMARK    2  A    between atoms: C_8  and  C_9 
REMARK    3  A    between atoms: C_10  and  O_11 
REMARK    4  A    between atoms: C_14  and  O_15 
REMARK    5  A    between atoms: C_20  and  C_21 
ROOT
HETATM    1  C   UNL     1      40.142 -12.545  -0.809  1.00  0.00     0.073 C 
HETATM    2  C   UNL     1      40.847 -13.803  -0.455  1.00  0.00     0.065 A 
HETATM    3  N   UNL     1      41.063 -14.734  -1.393  1.00  0.00    -0.177 NA
HETATM    4  N   UNL     1      41.644 -15.734  -0.718  1.00  0.00    -0.262 N 
HETATM    5  H   UNL     1      41.910 -16.560  -1.239  1.00  0.00     0.191 HD
HETATM    6  C   UNL     1      41.881 -15.467   0.605  1.00  0.00     0.137 A 
HETATM    7  C   UNL     1      41.321 -14.219   0.825  1.00  0.00     0.046 A 
ENDROOT
BRANCH   6   8
HETATM    8  N   UNL     1      42.542 -16.391   1.401  1.00  0.00    -0.307 N 
HETATM    9  C   UNL     1      42.070 -17.686   1.582  1.00  0.00     0.260 C 
HETATM   10  O   UNL     1      40.988 -18.113   1.198  1.00  0.00    -0.267 OA
HETATM   11  H   UNL     1      43.293 -16.062   1.991  1.00  0.00     0.170 HD
BRANCH   9  12
HETATM   12  C   UNL     1      42.943 -18.570   2.410  1.00  0.00     0.065 A 
HETATM   13  C   UNL     1      43.188 -18.271   3.759  1.00  0.00     0.086 A 
HETATM   14  C   UNL     1      44.005 -19.099   4.542  1.00  0.00     0.074 A 
HETATM   15  C   UNL     1      44.618 -20.213   3.974  1.00  0.00     0.070 A 
HETATM   16  C   UNL     1      44.395 -20.504   2.626  1.00  0.00     0.038 A 
HETATM   17  C   UNL     1      43.573 -19.688   1.844  1.00  0.00     0.022 A 
BRANCH  13  18
HETATM   18  O   UNL     1      42.562 -17.222   4.381  1.00  0.00    -0.355 OA
HETATM   19  C   UNL     1      41.461 -17.695   5.164  1.00  0.00     0.210 C 
ENDBRANCH  13  18
BRANCH  15  20
HETATM   20  O   UNL     1      45.442 -21.093   4.620  1.00  0.00    -0.356 OA
HETATM   21  C   UNL     1      44.820 -22.198   5.265  1.00  0.00     0.210 C 
ENDBRANCH  15  20
ENDBRANCH   9  12
ENDBRANCH   6   8
BRANCH   7  22
HETATM   22  C   UNL     1      41.104 -13.589   2.116  1.00  0.00    -0.020 A 
HETATM   23  C   UNL     1      39.838 -13.603   2.714  1.00  0.00     0.014 A 
HETATM   24  C   UNL     1      39.652 -13.043   3.981  1.00  0.00     0.020 A 
HETATM   25  C   UNL     1      40.731 -12.472   4.652  1.00  0.00     0.011 A 
HETATM   26 BR   UNL     1      40.479 -11.720   6.369  1.00  0.00    -0.051 Br
HETATM   27  C   UNL     1      41.997 -12.453   4.071  1.00  0.00     0.020 A 
HETATM   28  C   UNL     1      42.183 -13.014   2.806  1.00  0.00     0.014 A 
ENDBRANCH   7  22
TORSDOF 5
ENDMDL
MODEL 3
REMARK VINA RESULT:      -7.7      3.557      6.797
REMARK  5 active torsions:
REMARK  status: ('A' for Active; 'I' for Inactive)
REMARK    1  A    between atoms: C_6  and  N_7 
REMARK       I    between atoms: N_7  and  C_8 
REMARK    2  A    between atoms: C_8  and  C_9 
REMARK    3  A    between atoms: C_10  and  O_11 
REMARK    4  A    between atoms: C_14  and  O_15 
REMARK    5  A    between atoms: C_20  and  C_21 
ROOT
HETATM    1  C   UNL     1      38.933 -11.759   4.767  1.00  0.00     0.073 C 
HETATM    2  C   UNL     1      39.711 -13.009   4.961  1.00  0.00     0.065 A 
HETATM    3  N   UNL     1      40.199 -13.309   6.172  1.00  0.00    -0.177 NA
HETATM    4  N   UNL     1      40.887 -14.439   5.963  1.00  0.00    -0.262 N 
HETATM    5  H   UNL     1      41.344 -14.864   6.760  1.00  0.00     0.191 HD
HETATM    6  C   UNL     1      40.810 -14.926   4.685  1.00  0.00     0.137 A 
HETATM    7  C   UNL     1      40.083 -13.978   3.983  1.00  0.00     0.046 A 
ENDROOT
BRANCH   6   8
HETATM    8  N   UNL     1      41.418 -16.128   4.353  1.00  0.00    -0.307 N 
HETATM    9  C   UNL     1      42.683 -16.186   3.780  1.00  0.00     0.260 C 
HETATM   10  O   UNL     1      43.332 -15.226   3.382  1.00  0.00    -0.267 OA
HETATM   11  H   UNL     1      40.858 -16.969   4.377  1.00  0.00     0.170 HD
BRANCH   9  12
HETATM   12  C   UNL     1      43.217 -17.562   3.555  1.00  0.00     0.065 A 
HETATM   13  C   UNL     1      43.799 -18.283   4.607  1.00  0.00     0.086 A 
HETATM   14  C   UNL     1      44.299 -19.577   4.402  1.00  0.00     0.074 A 
HETATM   15  C   UNL     1      44.258 -20.148   3.132  1.00  0.00     0.070 A 
HETATM   16  C   UNL     1      43.698 -19.426   2.076  1.00  0.00     0.038 A 
HETATM   17  C   UNL     1      43.188 -18.140   2.278  1.00  0.00     0.022 A 
BRANCH  13  18
HETATM   18  O   UNL     1      43.811 -17.792   5.887  1.00  0.00    -0.355 OA
HETATM   19  C   UNL     1      45.105 -17.967   6.474  1.00  0.00     0.210 C 
ENDBRANCH  13  18
BRANCH  15  20
HETATM   20  O   UNL     1      44.718 -21.390   2.795  1.00  0.00    -0.356 OA
HETATM   21  C   UNL     1      44.177 -21.975   1.615  1.00  0.00     0.210 C 
ENDBRANCH  15  20
ENDBRANCH   9  12
ENDBRANCH   6   8
BRANCH   7  22
HETATM   22  C   UNL     1      39.921 -13.913   2.541  1.00  0.00    -0.020 A 
HETATM   23  C   UNL     1      38.754 -14.386   1.931  1.00  0.00     0.014 A 
HETATM   24  C   UNL     1      38.585 -14.269   0.548  1.00  0.00     0.020 A 
HETATM   25  C   UNL     1      39.581 -13.676  -0.224  1.00  0.00     0.011 A 
HETATM   26 BR   UNL     1      39.348 -13.512  -2.094  1.00  0.00    -0.051 Br
HETATM   27  C   UNL     1      40.747 -13.197   0.370  1.00  0.00     0.020 A 
HETATM   28  C   UNL     1      40.914 -13.313   1.751  1.00  0.00     0.014 A 
ENDBRANCH   7  22
TORSDOF 5
ENDMDL
MODEL 4
REMARK VINA RESULT:      -7.6      3.461      6.940
REMARK  5 active torsions:
REMARK  status: ('A' for Active; 'I' for Inactive)
REMARK    1  A    between atoms: C_6  and  N_7 
REMARK       I    between atoms: N_7  and  C_8 
REMARK    2  A    between atoms: C_8  and  C_9 
REMARK    3  A    between atoms: C_10  and  O_11 
REMARK    4  A    between atoms: C_14  and  O_15 
REMARK    5  A    between atoms: C_20  and  C_21 
ROOT
HETATM    1  C   UNL     1      38.829 -11.866   4.677  1.00  0.00     0.073 C 
HETATM    2  C   UNL     1      39.610 -13.093   4.979  1.00  0.00     0.065 A 
HETATM    3  N   UNL     1      39.927 -13.387   6.247  1.00  0.00    -0.177 NA
HETATM    4  N   UNL     1      40.674 -14.494   6.136  1.00  0.00    -0.262 N 
HETATM    5  H   UNL     1      41.024 -14.910   6.989  1.00  0.00     0.191 HD
HETATM    6  C   UNL     1      40.796 -14.974   4.859  1.00  0.00     0.137 A 
HETATM    7  C   UNL     1      40.149 -14.043   4.062  1.00  0.00     0.046 A 
ENDROOT
BRANCH   6   8
HETATM    8  N   UNL     1      41.483 -16.154   4.615  1.00  0.00    -0.307 N 
HETATM    9  C   UNL     1      42.869 -16.234   4.688  1.00  0.00     0.260 C 
HETATM   10  O   UNL     1      43.634 -15.287   4.828  1.00  0.00    -0.267 OA
HETATM   11  H   UNL     1      40.973 -16.929   4.215  1.00  0.00     0.170 HD
BRANCH   9  12
HETATM   12  C   UNL     1      43.439 -17.597   4.468  1.00  0.00     0.065 A 
HETATM   13  C   UNL     1      43.289 -18.242   3.232  1.00  0.00     0.086 A 
HETATM   14  C   UNL     1      43.825 -19.521   3.018  1.00  0.00     0.074 A 
HETATM   15  C   UNL     1      44.481 -20.184   4.053  1.00  0.00     0.070 A 
HETATM   16  C   UNL     1      44.614 -19.554   5.293  1.00  0.00     0.038 A 
HETATM   17  C   UNL     1      44.092 -18.275   5.507  1.00  0.00     0.022 A 
BRANCH  13  18
HETATM   18  O   UNL     1      42.706 -17.611   2.164  1.00  0.00    -0.355 OA
HETATM   19  C   UNL     1      43.694 -17.279   1.184  1.00  0.00     0.210 C 
ENDBRANCH  13  18
BRANCH  15  20
HETATM   20  O   UNL     1      45.037 -21.431   3.982  1.00  0.00    -0.356 OA
HETATM   21  C   UNL     1      45.015 -22.210   5.173  1.00  0.00     0.210 C 
ENDBRANCH  15  20
ENDBRANCH   9  12
ENDBRANCH   6   8
BRANCH   7  22
HETATM   22  C   UNL     1      40.195 -13.973   2.612  1.00  0.00    -0.020 A 
HETATM   23  C   UNL     1      41.403 -13.741   1.946  1.00  0.00     0.014 A 
HETATM   24  C   UNL     1      41.447 -13.730   0.549  1.00  0.00     0.020 A 
HETATM   25  C   UNL     1      40.282 -13.954  -0.183  1.00  0.00     0.011 A 
HETATM   26 BR   UNL     1      40.343 -13.945  -2.073  1.00  0.00    -0.051 Br
HETATM   27  C   UNL     1      39.072 -14.189   0.467  1.00  0.00     0.020 A 
HETATM   28  C   UNL     1      39.030 -14.202   1.862  1.00  0.00     0.014 A 
ENDBRANCH   7  22
TORSDOF 5
ENDMDL
MODEL 5
REMARK VINA RESULT:      -7.6      2.579      3.559
REMARK  5 active torsions:
REMARK  status: ('A' for Active; 'I' for Inactive)
REMARK    1  A    between atoms: C_6  and  N_7 
REMARK       I    between atoms: N_7  and  C_8 
REMARK    2  A    between atoms: C_8  and  C_9 
REMARK    3  A    between atoms: C_10  and  O_11 
REMARK    4  A    between atoms: C_14  and  O_15 
REMARK    5  A    between atoms: C_20  and  C_21 
ROOT
HETATM    1  C   UNL     1      44.303 -18.622   8.143  1.00  0.00     0.073 C 
HETATM    2  C   UNL     1      43.925 -17.442   7.323  1.00  0.00     0.065 A 
HETATM    3  N   UNL     1      43.593 -16.291   7.923  1.00  0.00    -0.177 NA
HETATM    4  N   UNL     1      43.251 -15.492   6.904  1.00  0.00    -0.262 N 
HETATM    5  H   UNL     1      42.967 -14.546   7.125  1.00  0.00     0.191 HD
HETATM    6  C   UNL     1      43.413 -16.049   5.663  1.00  0.00     0.137 A 
HETATM    7  C   UNL     1      43.808 -17.355   5.905  1.00  0.00     0.046 A 
ENDROOT
BRANCH   6   8
HETATM    8  N   UNL     1      43.163 -15.303   4.521  1.00  0.00    -0.307 N 
HETATM    9  C   UNL     1      41.885 -14.874   4.180  1.00  0.00     0.260 C 
HETATM   10  O   UNL     1      40.847 -15.205   4.740  1.00  0.00    -0.267 OA
HETATM   11  H   UNL     1      43.902 -15.213   3.838  1.00  0.00     0.170 HD
BRANCH   9  12
HETATM   12  C   UNL     1      41.806 -14.020   2.957  1.00  0.00     0.065 A 
HETATM   13  C   UNL     1      42.080 -14.559   1.692  1.00  0.00     0.086 A 
HETATM   14  C   UNL     1      42.005 -13.763   0.539  1.00  0.00     0.074 A 
HETATM   15  C   UNL     1      41.695 -12.409   0.646  1.00  0.00     0.070 A 
HETATM   16  C   UNL     1      41.443 -11.863   1.906  1.00  0.00     0.038 A 
HETATM   17  C   UNL     1      41.505 -12.655   3.056  1.00  0.00     0.022 A 
BRANCH  13  18
HETATM   18  O   UNL     1      42.331 -15.897   1.525  1.00  0.00    -0.355 OA
HETATM   19  C   UNL     1      41.539 -16.420   0.454  1.00  0.00     0.210 C 
ENDBRANCH  13  18
BRANCH  15  20
HETATM   20  O   UNL     1      41.600 -11.523  -0.391  1.00  0.00    -0.356 OA
HETATM   21  C   UNL     1      42.735 -11.410  -1.242  1.00  0.00     0.210 C 
ENDBRANCH  15  20
ENDBRANCH   9  12
ENDBRANCH   6   8
BRANCH   7  22
HETATM   22  C   UNL     1      43.886 -18.425   4.925  1.00  0.00    -0.020 A 
HETATM   23  C   UNL     1      43.055 -18.424   3.799  1.00  0.00     0.014 A 
HETATM   24  C   UNL     1      43.175 -19.429   2.834  1.00  0.00     0.020 A 
HETATM   25  C   UNL     1      44.129 -20.432   2.993  1.00  0.00     0.011 A 
HETATM   26 BR   UNL     1      44.295 -21.786   1.684  1.00  0.00    -0.051 Br
HETATM   27  C   UNL     1      44.966 -20.443   4.107  1.00  0.00     0.020 A 
HETATM   28  C   UNL     1      44.846 -19.439   5.069  1.00  0.00     0.014 A 
ENDBRANCH   7  22
TORSDOF 5
ENDMDL
MODEL 6
REMARK VINA RESULT:      -7.5      3.973      7.385
REMARK  5 active torsions:
REMARK  status: ('A' for Active; 'I' for Inactive)
REMARK    1  A    between atoms: C_6  and  N_7 
REMARK       I    between atoms: N_7  and  C_8 
REMARK    2  A    between atoms: C_8  and  C_9 
REMARK    3  A    between atoms: C_10  and  O_11 
REMARK    4  A    between atoms: C_14  and  O_15 
REMARK    5  A    between atoms: C_20  and  C_21 
ROOT
HETATM    1  C   UNL     1      38.032 -12.131   1.782  1.00  0.00     0.073 C 
HETATM    2  C   UNL     1      38.661 -13.469   1.920  1.00  0.00     0.065 A 
HETATM    3  N   UNL     1      38.271 -14.475   1.126  1.00  0.00    -0.177 NA
HETATM    4  N   UNL     1      38.983 -15.520   1.569  1.00  0.00    -0.262 N 
HETATM    5  H   UNL     1      38.855 -16.407   1.099  1.00  0.00     0.191 HD
HETATM    6  C   UNL     1      39.872 -15.223   2.568  1.00  0.00     0.137 A 
HETATM    7  C   UNL     1      39.649 -13.886   2.860  1.00  0.00     0.046 A 
ENDROOT
BRANCH   6   8
HETATM    8  N   UNL     1      40.722 -16.199   3.066  1.00  0.00    -0.307 N 
HETATM    9  C   UNL     1      41.854 -16.619   2.378  1.00  0.00     0.260 C 
HETATM   10  O   UNL     1      42.154 -16.300   1.234  1.00  0.00    -0.267 OA
HETATM   11  H   UNL     1      40.417 -16.732   3.869  1.00  0.00     0.170 HD
BRANCH   9  12
HETATM   12  C   UNL     1      42.695 -17.626   3.092  1.00  0.00     0.065 A 
HETATM   13  C   UNL     1      43.059 -17.430   4.432  1.00  0.00     0.086 A 
HETATM   14  C   UNL     1      43.846 -18.373   5.109  1.00  0.00     0.074 A 
HETATM   15  C   UNL     1      44.311 -19.502   4.439  1.00  0.00     0.070 A 
HETATM   16  C   UNL     1      43.969 -19.692   3.098  1.00  0.00     0.038 A 
HETATM   17  C   UNL     1      43.176 -18.760   2.423  1.00  0.00     0.022 A 
BRANCH  13  18
HETATM   18  O   UNL     1      42.579 -16.367   5.153  1.00  0.00    -0.355 OA
HETATM   19  C   UNL     1      42.210 -16.788   6.470  1.00  0.00     0.210 C 
ENDBRANCH  13  18
BRANCH  15  20
HETATM   20  O   UNL     1      45.092 -20.489   4.975  1.00  0.00    -0.356 OA
HETATM   21  C   UNL     1      44.794 -21.824   4.583  1.00  0.00     0.210 C 
ENDBRANCH  15  20
ENDBRANCH   9  12
ENDBRANCH   6   8
BRANCH   7  22
HETATM   22  C   UNL     1      40.175 -13.157   4.001  1.00  0.00    -0.020 A 
HETATM   23  C   UNL     1      41.214 -12.233   3.841  1.00  0.00     0.014 A 
HETATM   24  C   UNL     1      41.676 -11.496   4.936  1.00  0.00     0.020 A 
HETATM   25  C   UNL     1      41.096 -11.680   6.190  1.00  0.00     0.011 A 
HETATM   26 BR   UNL     1      41.718 -10.678   7.668  1.00  0.00    -0.051 Br
HETATM   27  C   UNL     1      40.060 -12.594   6.363  1.00  0.00     0.020 A 
HETATM   28  C   UNL     1      39.598 -13.328   5.270  1.00  0.00     0.014 A 
ENDBRANCH   7  22
TORSDOF 5
ENDMDL
MODEL 7
REMARK VINA RESULT:      -7.0      3.007      4.230
REMARK  5 active torsions:
REMARK  status: ('A' for Active; 'I' for Inactive)
REMARK    1  A    between atoms: C_6  and  N_7 
REMARK       I    between atoms: N_7  and  C_8 
REMARK    2  A    between atoms: C_8  and  C_9 
REMARK    3  A    between atoms: C_10  and  O_11 
REMARK    4  A    between atoms: C_14  and  O_15 
REMARK    5  A    between atoms: C_20  and  C_21 
ROOT
HETATM    1  C   UNL     1      43.712 -18.984   5.201  1.00  0.00     0.073 C 
HETATM    2  C   UNL     1      43.639 -18.536   3.787  1.00  0.00     0.065 A 
HETATM    3  N   UNL     1      44.206 -19.274   2.823  1.00  0.00    -0.177 NA
HETATM    4  N   UNL     1      44.011 -18.548   1.715  1.00  0.00    -0.262 N 
HETATM    5  H   UNL     1      44.356 -18.924   0.841  1.00  0.00     0.191 HD
HETATM    6  C   UNL     1      43.279 -17.405   1.903  1.00  0.00     0.137 A 
HETATM    7  C   UNL     1      43.061 -17.339   3.270  1.00  0.00     0.046 A 
ENDROOT
BRANCH   6   8
HETATM    8  N   UNL     1      42.944 -16.600   0.824  1.00  0.00    -0.307 N 
HETATM    9  C   UNL     1      41.625 -16.353   0.463  1.00  0.00     0.260 C 
HETATM   10  O   UNL     1      40.639 -16.904   0.939  1.00  0.00    -0.267 OA
HETATM   11  H   UNL     1      43.680 -16.323   0.189  1.00  0.00     0.170 HD
BRANCH   9  12
HETATM   12  C   UNL     1      41.444 -15.407  -0.677  1.00  0.00     0.065 A 
HETATM   13  C   UNL     1      41.607 -14.026  -0.492  1.00  0.00     0.086 A 
HETATM   14  C   UNL     1      41.441 -13.132  -1.560  1.00  0.00     0.074 A 
HETATM   15  C   UNL     1      41.070 -13.607  -2.816  1.00  0.00     0.070 A 
HETATM   16  C   UNL     1      40.886 -14.980  -3.001  1.00  0.00     0.038 A 
HETATM   17  C   UNL     1      41.061 -15.876  -1.942  1.00  0.00     0.022 A 
BRANCH  13  18
HETATM   18  O   UNL     1      42.028 -13.512   0.707  1.00  0.00    -0.355 OA
HETATM   19  C   UNL     1      40.942 -12.865   1.379  1.00  0.00     0.210 C 
ENDBRANCH  13  18
BRANCH  15  20
HETATM   20  O   UNL     1      40.866 -12.847  -3.934  1.00  0.00    -0.356 OA
HETATM   21  C   UNL     1      41.709 -11.712  -4.099  1.00  0.00     0.210 C 
ENDBRANCH  15  20
ENDBRANCH   9  12
ENDBRANCH   6   8
BRANCH   7  22
HETATM   22  C   UNL     1      42.534 -16.201   4.002  1.00  0.00    -0.020 A 
HETATM   23  C   UNL     1      43.228 -14.986   4.031  1.00  0.00     0.014 A 
HETATM   24  C   UNL     1      42.686 -13.881   4.693  1.00  0.00     0.020 A 
HETATM   25  C   UNL     1      41.449 -13.989   5.324  1.00  0.00     0.011 A 
HETATM   26 BR   UNL     1      40.714 -12.491   6.213  1.00  0.00    -0.051 Br
HETATM   27  C   UNL     1      40.745 -15.191   5.301  1.00  0.00     0.020 A 
HETATM   28  C   UNL     1      41.286 -16.294   4.639  1.00  0.00     0.014 A 
ENDBRANCH   7  22
TORSDOF 5
ENDMDL
MODEL 8
REMARK VINA RESULT:      -6.9      3.878      7.918
REMARK  5 active torsions:
REMARK  status: ('A' for Active; 'I' for Inactive)
REMARK    1  A    between atoms: C_6  and  N_7 
REMARK       I    between atoms: N_7  and  C_8 
REMARK    2  A    between atoms: C_8  and  C_9 
REMARK    3  A    between atoms: C_10  and  O_11 
REMARK    4  A    between atoms: C_14  and  O_15 
REMARK    5  A    between atoms: C_20  and  C_21 
ROOT
HETATM    1  C   UNL     1      41.021 -13.556  -3.426  1.00  0.00     0.073 C 
HETATM    2  C   UNL     1      41.171 -14.414  -2.223  1.00  0.00     0.065 A 
HETATM    3  N   UNL     1      41.041 -15.743  -2.331  1.00  0.00    -0.177 NA
HETATM    4  N   UNL     1      41.165 -16.175  -1.069  1.00  0.00    -0.262 N 
HETATM    5  H   UNL     1      41.108 -17.172  -0.907  1.00  0.00     0.191 HD
HETATM    6  C   UNL     1      41.441 -15.193  -0.154  1.00  0.00     0.137 A 
HETATM    7  C   UNL     1      41.401 -14.010  -0.875  1.00  0.00     0.046 A 
ENDROOT
BRANCH   6   8
HETATM    8  N   UNL     1      41.664 -15.515   1.177  1.00  0.00    -0.307 N 
HETATM    9  C   UNL     1      40.625 -15.802   2.055  1.00  0.00     0.260 C 
HETATM   10  O   UNL     1      39.430 -15.672   1.815  1.00  0.00    -0.267 OA
HETATM   11  H   UNL     1      42.591 -15.375   1.552  1.00  0.00     0.170 HD
BRANCH   9  12
HETATM   12  C   UNL     1      41.047 -16.199   3.431  1.00  0.00     0.065 A 
HETATM   13  C   UNL     1      41.783 -17.375   3.640  1.00  0.00     0.086 A 
HETATM   14  C   UNL     1      42.185 -17.752   4.930  1.00  0.00     0.074 A 
HETATM   15  C   UNL     1      41.820 -16.977   6.028  1.00  0.00     0.070 A 
HETATM   16  C   UNL     1      41.069 -15.817   5.828  1.00  0.00     0.038 A 
HETATM   17  C   UNL     1      40.675 -15.431   4.543  1.00  0.00     0.022 A 
BRANCH  13  18
HETATM   18  O   UNL     1      42.218 -18.140   2.589  1.00  0.00    -0.355 OA
HETATM   19  C   UNL     1      43.548 -18.608   2.835  1.00  0.00     0.210 C 
ENDBRANCH  13  18
BRANCH  15  20
HETATM   20  O   UNL     1      42.135 -17.236   7.333  1.00  0.00    -0.356 OA
HETATM   21  C   UNL     1      43.457 -16.914   7.749  1.00  0.00     0.210 C 
ENDBRANCH  15  20
ENDBRANCH   9  12
ENDBRANCH   6   8
BRANCH   7  22
HETATM   22  C   UNL     1      41.400 -12.666  -0.322  1.00  0.00    -0.020 A 
HETATM   23  C   UNL     1      42.458 -11.787  -0.581  1.00  0.00     0.014 A 
HETATM   24  C   UNL     1      42.421 -10.478  -0.090  1.00  0.00     0.020 A 
HETATM   25  C   UNL     1      41.326 -10.048   0.657  1.00  0.00     0.011 A 
HETATM   26 BR   UNL     1      41.276  -8.276   1.314  1.00  0.00    -0.051 Br
HETATM   27  C   UNL     1      40.265 -10.911   0.919  1.00  0.00     0.020 A 
HETATM   28  C   UNL     1      40.301 -12.217   0.427  1.00  0.00     0.014 A 
ENDBRANCH   7  22
TORSDOF 5
ENDMDL
MODEL 9
REMARK VINA RESULT:      -6.8      3.735      7.738
REMARK  5 active torsions:
REMARK  status: ('A' for Active; 'I' for Inactive)
REMARK    1  A    between atoms: C_6  and  N_7 
REMARK       I    between atoms: N_7  and  C_8 
REMARK    2  A    between atoms: C_8  and  C_9 
REMARK    3  A    between atoms: C_10  and  O_11 
REMARK    4  A    between atoms: C_14  and  O_15 
REMARK    5  A    between atoms: C_20  and  C_21 
ROOT
HETATM    1  C   UNL     1      40.226 -13.170  -2.009  1.00  0.00     0.073 C 
HETATM    2  C   UNL     1      40.730 -14.302  -1.192  1.00  0.00     0.065 A 
HETATM    3  N   UNL     1      41.006 -15.476  -1.775  1.00  0.00    -0.177 NA
HETATM    4  N   UNL     1      41.360 -16.262  -0.750  1.00  0.00    -0.262 N 
HETATM    5  H   UNL     1      41.625 -17.215  -0.961  1.00  0.00     0.191 HD
HETATM    6  C   UNL     1      41.395 -15.632   0.466  1.00  0.00     0.137 A 
HETATM    7  C   UNL     1      40.934 -14.349   0.219  1.00  0.00     0.046 A 
ENDROOT
BRANCH   6   8
HETATM    8  N   UNL     1      41.814 -16.315   1.598  1.00  0.00    -0.307 N 
HETATM    9  C   UNL     1      42.988 -17.060   1.624  1.00  0.00     0.260 C 
HETATM   10  O   UNL     1      43.693 -17.315   0.655  1.00  0.00    -0.267 OA
HETATM   11  H   UNL     1      41.166 -16.406   2.368  1.00  0.00     0.170 HD
BRANCH   9  12
HETATM   12  C   UNL     1      43.325 -17.669   2.944  1.00  0.00     0.065 A 
HETATM   13  C   UNL     1      43.286 -16.900   4.117  1.00  0.00     0.086 A 
HETATM   14  C   UNL     1      43.599 -17.468   5.360  1.00  0.00     0.074 A 
HETATM   15  C   UNL     1      43.994 -18.801   5.439  1.00  0.00     0.070 A 
HETATM   16  C   UNL     1      44.055 -19.566   4.271  1.00  0.00     0.038 A 
HETATM   17  C   UNL     1      43.733 -19.008   3.031  1.00  0.00     0.022 A 
BRANCH  13  18
HETATM   18  O   UNL     1      42.847 -15.602   4.103  1.00  0.00    -0.355 OA
HETATM   19  C   UNL     1      42.004 -15.351   5.232  1.00  0.00     0.210 C 
ENDBRANCH  13  18
BRANCH  15  20
HETATM   20  O   UNL     1      44.335 -19.472   6.580  1.00  0.00    -0.356 OA
HETATM   21  C   UNL     1      44.075 -18.811   7.813  1.00  0.00     0.210 C 
ENDBRANCH  15  20
ENDBRANCH   9  12
ENDBRANCH   6   8
BRANCH   7  22
HETATM   22  C   UNL     1      40.566 -13.361   1.218  1.00  0.00    -0.020 A 
HETATM   23  C   UNL     1      41.386 -12.253   1.464  1.00  0.00     0.014 A 
HETATM   24  C   UNL     1      40.996 -11.280   2.388  1.00  0.00     0.020 A 
HETATM   25  C   UNL     1      39.784 -11.411   3.064  1.00  0.00     0.011 A 
HETATM   26 BR   UNL     1      39.255 -10.090   4.309  1.00  0.00    -0.051 Br
HETATM   27  C   UNL     1      38.957 -12.506   2.827  1.00  0.00     0.020 A 
HETATM   28  C   UNL     1      39.346 -13.477   1.903  1.00  0.00     0.014 A 
ENDBRANCH   7  22
TORSDOF 5
ENDMDL
MODEL 10
REMARK VINA RESULT:      -6.8      3.703      7.860
REMARK  5 active torsions:
REMARK  status: ('A' for Active; 'I' for Inactive)
REMARK    1  A    between atoms: C_6  and  N_7 
REMARK       I    between atoms: N_7  and  C_8 
REMARK    2  A    between atoms: C_8  and  C_9 
REMARK    3  A    between atoms: C_10  and  O_11 
REMARK    4  A    between atoms: C_14  and  O_15 
REMARK    5  A    between atoms: C_20  and  C_21 
ROOT
HETATM    1  C   UNL     1      40.729 -13.725  -3.557  1.00  0.00     0.073 C 
HETATM    2  C   UNL     1      41.012 -14.387  -2.259  1.00  0.00     0.065 A 
HETATM    3  N   UNL     1      40.645 -15.660  -2.065  1.00  0.00    -0.177 NA
HETATM    4  N   UNL     1      40.987 -15.897  -0.791  1.00  0.00    -0.262 N 
HETATM    5  H   UNL     1      40.806 -16.821  -0.421  1.00  0.00     0.191 HD
HETATM    6  C   UNL     1      41.626 -14.857  -0.170  1.00  0.00     0.137 A 
HETATM    7  C   UNL     1      41.614 -13.824  -1.094  1.00  0.00     0.046 A 
ENDROOT
BRANCH   6   8
HETATM    8  N   UNL     1      42.097 -14.996   1.127  1.00  0.00    -0.307 N 
HETATM    9  C   UNL     1      41.336 -15.579   2.134  1.00  0.00     0.260 C 
HETATM   10  O   UNL     1      40.157 -15.898   2.045  1.00  0.00    -0.267 OA
HETATM   11  H   UNL     1      42.948 -14.513   1.380  1.00  0.00     0.170 HD
BRANCH   9  12
HETATM   12  C   UNL     1      42.025 -15.715   3.453  1.00  0.00     0.065 A 
HETATM   13  C   UNL     1      42.752 -14.644   3.992  1.00  0.00     0.086 A 
HETATM   14  C   UNL     1      43.398 -14.765   5.231  1.00  0.00     0.074 A 
HETATM   15  C   UNL     1      43.357 -15.973   5.924  1.00  0.00     0.070 A 
HETATM   16  C   UNL     1      42.651 -17.049   5.381  1.00  0.00     0.038 A 
HETATM   17  C   UNL     1      41.996 -16.930   4.152  1.00  0.00     0.022 A 
BRANCH  13  18
HETATM   18  O   UNL     1      42.775 -13.418   3.380  1.00  0.00    -0.355 OA
HETATM   19  C   UNL     1      42.022 -12.469   4.143  1.00  0.00     0.210 C 
ENDBRANCH  13  18
BRANCH  15  20
HETATM   20  O   UNL     1      43.949 -16.227   7.130  1.00  0.00    -0.356 OA
HETATM   21  C   UNL     1      43.273 -17.131   7.997  1.00  0.00     0.210 C 
ENDBRANCH  15  20
ENDBRANCH   9  12
ENDBRANCH   6   8
BRANCH   7  22
HETATM   22  C   UNL     1      41.963 -12.437  -0.839  1.00  0.00    -0.020 A 
HETATM   23  C   UNL     1      41.311 -11.710   0.164  1.00  0.00     0.014 A 
HETATM   24  C   UNL     1      41.691 -10.393   0.439  1.00  0.00     0.020 A 
HETATM   25  C   UNL     1      42.726  -9.804  -0.287  1.00  0.00     0.011 A 
HETATM   26 BR   UNL     1      43.244  -8.026   0.091  1.00  0.00    -0.051 Br
HETATM   27  C   UNL     1      43.385 -10.517  -1.285  1.00  0.00     0.020 A 
HETATM   28  C   UNL     1      43.006 -11.833  -1.558  1.00  0.00     0.014 A 
ENDBRANCH   7  22
TORSDOF 5
ENDMDL
