MODEL 1
REMARK VINA RESULT:      -8.6      0.000      0.000
REMARK  10 active torsions:
REMARK  status: ('A' for Active; 'I' for Inactive)
REMARK    1  A    between atoms: C_2  and  C_3 
REMARK    2  A    between atoms: C_3  and  O_4 
REMARK    3  A    between atoms: O_4  and  C_5 
REMARK    4  A    between atoms: C_8  and  C_9 
REMARK       I    between atoms: C_9  and  N_10 
REMARK    5  A    between atoms: N_10  and  C_11 
REMARK    6  A    between atoms: C_11  and  N_12 
REMARK    7  A    between atoms: N_12  and  C_13 
REMARK    8  A    between atoms: C_16  and  N_17 
REMARK    9  A    between atoms: N_20  and  C_22 
REMARK   10  A    between atoms: C_22  and  C_23 
ROOT
HETATM    1  C   UNL     1      40.689 -11.989   6.184  1.00  0.00     0.034 A 
HETATM    2  C   UNL     1      39.778 -13.043   6.260  1.00  0.00     0.032 A 
HETATM    3  C   UNL     1      39.986 -14.223   5.533  1.00  0.00     0.031 A 
HETATM    4  C   UNL     1      41.090 -14.383   4.683  1.00  0.00     0.030 A 
HETATM    5  C   UNL     1      41.983 -13.309   4.608  1.00  0.00     0.031 A 
HETATM    6  C   UNL     1      41.795 -12.133   5.354  1.00  0.00     0.032 A 
ENDROOT
BRANCH   1   7
HETATM    7  N   UNL     1      40.356 -10.805   6.869  1.00  0.00    -0.333 N 
HETATM    8  H   UNL     1      39.378 -10.737   7.155  1.00  0.00     0.168 HD
BRANCH   7   9
HETATM    9  C   UNL     1      41.085  -9.678   7.164  1.00  0.00     0.179 C 
HETATM   10  S   UNL     1      41.479  -8.401   6.159  1.00  0.00    -0.040 SA
BRANCH   9  11
HETATM   11  N   UNL     1      41.546  -9.610   8.470  1.00  0.00    -0.299 N 
HETATM   12  C   UNL     1      42.502 -10.424   9.061  1.00  0.00     0.257 C 
HETATM   13  O   UNL     1      43.315 -11.097   8.436  1.00  0.00    -0.267 OA
HETATM   14  H   UNL     1      40.948  -9.060   9.071  1.00  0.00     0.171 HD
BRANCH  12  15
HETATM   15  C   UNL     1      42.475 -10.471  10.543  1.00  0.00     0.032 A 
HETATM   16  C   UNL     1      41.326 -10.976  11.159  1.00  0.00     0.020 A 
HETATM   17  C   UNL     1      41.219 -10.985  12.552  1.00  0.00     0.038 A 
HETATM   18  C   UNL     1      42.269 -10.502  13.336  1.00  0.00     0.068 A 
HETATM   19  C   UNL     1      43.429 -10.031  12.713  1.00  0.00     0.038 A 
HETATM   20  C   UNL     1      43.539 -10.009  11.320  1.00  0.00     0.020 A 
BRANCH  18  21
HETATM   21  O   UNL     1      42.288 -10.448  14.701  1.00  0.00    -0.351 OA
BRANCH  21  22
HETATM   22  C   UNL     1      42.490  -9.164  15.296  1.00  0.00     0.175 C 
BRANCH  22  23
HETATM   23  C   UNL     1      41.272  -8.301  14.982  1.00  0.00     0.022 C 
HETATM   24  C   UNL     1      40.336  -8.196  16.172  1.00  0.00     0.007 C 
ENDBRANCH  22  23
ENDBRANCH  21  22
ENDBRANCH  18  21
ENDBRANCH  12  15
ENDBRANCH   9  11
ENDBRANCH   7   9
ENDBRANCH   1   7
BRANCH   4  25
HETATM   25  N   UNL     1      41.220 -15.544   3.927  1.00  0.00    -0.378 N 
HETATM   26  C   UNL     1      40.838 -16.815   4.571  1.00  0.00     0.150 C 
HETATM   27  C   UNL     1      42.081 -17.542   5.127  1.00  0.00     0.255 C 
HETATM   28  N   UNL     1      43.131 -17.723   4.025  1.00  0.00    -0.064 N 
HETATM   29  H   UNL     1      42.685 -18.282   3.287  1.00  0.00     0.280 HD
HETATM   30  C   UNL     1      43.510 -16.378   3.413  1.00  0.00     0.255 C 
HETATM   31  C   UNL     1      42.257 -15.650   2.890  1.00  0.00     0.150 C 
BRANCH  28  32
HETATM   32  C   UNL     1      44.347 -18.486   4.486  1.00  0.00     0.273 C 
BRANCH  32  33
HETATM   33  C   UNL     1      44.387 -19.893   3.959  1.00  0.00    -0.033 A 
HETATM   34  C   UNL     1      44.760 -20.957   4.795  1.00  0.00     0.009 A 
HETATM   35  C   UNL     1      44.821 -22.260   4.299  1.00  0.00     0.001 A 
HETATM   36  C   UNL     1      44.507 -22.512   2.964  1.00  0.00     0.000 A 
HETATM   37  C   UNL     1      44.129 -21.465   2.126  1.00  0.00     0.001 A 
HETATM   38  C   UNL     1      44.068 -20.162   2.619  1.00  0.00     0.009 A 
ENDBRANCH  32  33
ENDBRANCH  28  32
ENDBRANCH   4  25
TORSDOF 10
ENDMDL
MODEL 2
REMARK VINA RESULT:      -8.5      1.546      2.373
REMARK  10 active torsions:
REMARK  status: ('A' for Active; 'I' for Inactive)
REMARK    1  A    between atoms: C_2  and  C_3 
REMARK    2  A    between atoms: C_3  and  O_4 
REMARK    3  A    between atoms: O_4  and  C_5 
REMARK    4  A    between atoms: C_8  and  C_9 
REMARK       I    between atoms: C_9  and  N_10 
REMARK    5  A    between atoms: N_10  and  C_11 
REMARK    6  A    between atoms: C_11  and  N_12 
REMARK    7  A    between atoms: N_12  and  C_13 
REMARK    8  A    between atoms: C_16  and  N_17 
REMARK    9  A    between atoms: N_20  and  C_22 
REMARK   10  A    between atoms: C_22  and  C_23 
ROOT
HETATM    1  C   UNL     1      40.307 -11.664   5.140  1.00  0.00     0.034 A 
HETATM    2  C   UNL     1      39.509 -12.717   5.585  1.00  0.00     0.032 A 
HETATM    3  C   UNL     1      40.064 -13.977   5.846  1.00  0.00     0.031 A 
HETATM    4  C   UNL     1      41.426 -14.240   5.643  1.00  0.00     0.030 A 
HETATM    5  C   UNL     1      42.207 -13.176   5.179  1.00  0.00     0.031 A 
HETATM    6  C   UNL     1      41.662 -11.904   4.941  1.00  0.00     0.032 A 
ENDROOT
BRANCH   1   7
HETATM    7  N   UNL     1      39.655 -10.460   4.809  1.00  0.00    -0.333 N 
HETATM    8  H   UNL     1      39.520 -10.308   3.808  1.00  0.00     0.168 HD
BRANCH   7   9
HETATM    9  C   UNL     1      39.226  -9.406   5.578  1.00  0.00     0.179 C 
HETATM   10  S   UNL     1      38.197  -8.158   5.151  1.00  0.00    -0.040 SA
BRANCH   9  11
HETATM   11  N   UNL     1      39.722  -9.390   6.872  1.00  0.00    -0.299 N 
HETATM   12  C   UNL     1      41.037  -9.179   7.260  1.00  0.00     0.257 C 
HETATM   13  O   UNL     1      41.887  -8.647   6.552  1.00  0.00    -0.267 OA
HETATM   14  H   UNL     1      39.085  -9.798   7.543  1.00  0.00     0.171 HD
BRANCH  12  15
HETATM   15  C   UNL     1      41.395  -9.673   8.611  1.00  0.00     0.032 A 
HETATM   16  C   UNL     1      42.487 -10.540   8.721  1.00  0.00     0.020 A 
HETATM   17  C   UNL     1      42.830 -11.088   9.960  1.00  0.00     0.038 A 
HETATM   18  C   UNL     1      42.091 -10.759  11.097  1.00  0.00     0.068 A 
HETATM   19  C   UNL     1      41.021  -9.864  10.986  1.00  0.00     0.038 A 
HETATM   20  C   UNL     1      40.666  -9.320   9.749  1.00  0.00     0.020 A 
BRANCH  18  21
HETATM   21  O   UNL     1      42.316 -11.229  12.361  1.00  0.00    -0.351 OA
BRANCH  21  22
HETATM   22  C   UNL     1      41.454 -10.748  13.395  1.00  0.00     0.175 C 
BRANCH  22  23
HETATM   23  C   UNL     1      42.328 -10.228  14.532  1.00  0.00     0.022 C 
HETATM   24  C   UNL     1      43.282  -9.147  14.059  1.00  0.00     0.007 C 
ENDBRANCH  22  23
ENDBRANCH  21  22
ENDBRANCH  18  21
ENDBRANCH  12  15
ENDBRANCH   9  11
ENDBRANCH   7   9
ENDBRANCH   1   7
BRANCH   4  25
HETATM   25  N   UNL     1      41.922 -15.525   5.847  1.00  0.00    -0.378 N 
HETATM   26  C   UNL     1      43.353 -15.747   5.566  1.00  0.00     0.150 C 
HETATM   27  C   UNL     1      43.546 -16.352   4.159  1.00  0.00     0.255 C 
HETATM   28  N   UNL     1      42.703 -17.623   4.004  1.00  0.00    -0.064 N 
HETATM   29  H   UNL     1      43.026 -18.277   4.726  1.00  0.00     0.280 HD
HETATM   30  C   UNL     1      41.230 -17.331   4.278  1.00  0.00     0.255 C 
HETATM   31  C   UNL     1      41.055 -16.699   5.673  1.00  0.00     0.150 C 
BRANCH  28  32
HETATM   32  C   UNL     1      42.895 -18.302   2.672  1.00  0.00     0.273 C 
BRANCH  32  33
HETATM   33  C   UNL     1      43.525 -19.661   2.796  1.00  0.00    -0.033 A 
HETATM   34  C   UNL     1      43.423 -20.592   1.750  1.00  0.00     0.009 A 
HETATM   35  C   UNL     1      43.988 -21.862   1.877  1.00  0.00     0.001 A 
HETATM   36  C   UNL     1      44.662 -22.212   3.046  1.00  0.00     0.000 A 
HETATM   37  C   UNL     1      44.775 -21.294   4.087  1.00  0.00     0.001 A 
HETATM   38  C   UNL     1      44.211 -20.024   3.965  1.00  0.00     0.009 A 
ENDBRANCH  32  33
ENDBRANCH  28  32
ENDBRANCH   4  25
TORSDOF 10
ENDMDL
MODEL 3
REMARK VINA RESULT:      -8.4      1.566      2.308
REMARK  10 active torsions:
REMARK  status: ('A' for Active; 'I' for Inactive)
REMARK    1  A    between atoms: C_2  and  C_3 
REMARK    2  A    between atoms: C_3  and  O_4 
REMARK    3  A    between atoms: O_4  and  C_5 
REMARK    4  A    between atoms: C_8  and  C_9 
REMARK       I    between atoms: C_9  and  N_10 
REMARK    5  A    between atoms: N_10  and  C_11 
REMARK    6  A    between atoms: C_11  and  N_12 
REMARK    7  A    between atoms: N_12  and  C_13 
REMARK    8  A    between atoms: C_16  and  N_17 
REMARK    9  A    between atoms: N_20  and  C_22 
REMARK   10  A    between atoms: C_22  and  C_23 
ROOT
HETATM    1  C   UNL     1      41.077 -11.665   4.053  1.00  0.00     0.034 A 
HETATM    2  C   UNL     1      42.216 -12.458   4.189  1.00  0.00     0.032 A 
HETATM    3  C   UNL     1      42.130 -13.855   4.114  1.00  0.00     0.031 A 
HETATM    4  C   UNL     1      40.905 -14.511   3.929  1.00  0.00     0.030 A 
HETATM    5  C   UNL     1      39.771 -13.699   3.812  1.00  0.00     0.031 A 
HETATM    6  C   UNL     1      39.854 -12.297   3.860  1.00  0.00     0.032 A 
ENDROOT
BRANCH   1   7
HETATM    7  N   UNL     1      41.236 -10.278   4.239  1.00  0.00    -0.333 N 
HETATM    8  H   UNL     1      41.550  -9.769   3.410  1.00  0.00     0.168 HD
BRANCH   7   9
HETATM    9  C   UNL     1      41.120  -9.480   5.351  1.00  0.00     0.179 C 
HETATM   10  S   UNL     1      40.661  -7.875   5.436  1.00  0.00    -0.040 SA
BRANCH   9  11
HETATM   11  N   UNL     1      41.430 -10.105   6.549  1.00  0.00    -0.299 N 
HETATM   12  C   UNL     1      40.545 -10.480   7.549  1.00  0.00     0.257 C 
HETATM   13  O   UNL     1      39.337 -10.620   7.383  1.00  0.00    -0.267 OA
HETATM   14  H   UNL     1      42.414 -10.058   6.774  1.00  0.00     0.171 HD
BRANCH  12  15
HETATM   15  C   UNL     1      41.141 -10.682   8.891  1.00  0.00     0.032 A 
HETATM   16  C   UNL     1      42.535 -10.755   8.981  1.00  0.00     0.020 A 
HETATM   17  C   UNL     1      43.149 -11.008  10.210  1.00  0.00     0.038 A 
HETATM   18  C   UNL     1      42.373 -11.175  11.358  1.00  0.00     0.068 A 
HETATM   19  C   UNL     1      40.981 -11.066  11.267  1.00  0.00     0.038 A 
HETATM   20  C   UNL     1      40.359 -10.823  10.039  1.00  0.00     0.020 A 
BRANCH  18  21
HETATM   21  O   UNL     1      42.847 -11.434  12.614  1.00  0.00    -0.351 OA
BRANCH  21  22
HETATM   22  C   UNL     1      42.366 -10.603  13.672  1.00  0.00     0.175 C 
BRANCH  22  23
HETATM   23  C   UNL     1      43.305  -9.408  13.798  1.00  0.00     0.022 C 
HETATM   24  C   UNL     1      42.574  -8.094  13.589  1.00  0.00     0.007 C 
ENDBRANCH  22  23
ENDBRANCH  21  22
ENDBRANCH  18  21
ENDBRANCH  12  15
ENDBRANCH   9  11
ENDBRANCH   7   9
ENDBRANCH   1   7
BRANCH   4  25
HETATM   25  N   UNL     1      40.855 -15.902   3.930  1.00  0.00    -0.378 N 
HETATM   26  C   UNL     1      41.581 -16.601   5.007  1.00  0.00     0.150 C 
HETATM   27  C   UNL     1      42.968 -17.071   4.516  1.00  0.00     0.255 C 
HETATM   28  N   UNL     1      42.826 -17.916   3.244  1.00  0.00    -0.064 N 
HETATM   29  H   UNL     1      42.239 -18.721   3.493  1.00  0.00     0.280 HD
HETATM   30  C   UNL     1      42.095 -17.136   2.156  1.00  0.00     0.255 C 
HETATM   31  C   UNL     1      40.726 -16.647   2.669  1.00  0.00     0.150 C 
BRANCH  28  32
HETATM   32  C   UNL     1      44.140 -18.462   2.748  1.00  0.00     0.273 C 
BRANCH  32  33
HETATM   33  C   UNL     1      44.354 -19.901   3.126  1.00  0.00    -0.033 A 
HETATM   34  C   UNL     1      44.122 -20.925   2.194  1.00  0.00     0.009 A 
HETATM   35  C   UNL     1      44.297 -22.262   2.554  1.00  0.00     0.001 A 
HETATM   36  C   UNL     1      44.709 -22.588   3.846  1.00  0.00     0.000 A 
HETATM   37  C   UNL     1      44.949 -21.580   4.776  1.00  0.00     0.001 A 
HETATM   38  C   UNL     1      44.774 -20.243   4.421  1.00  0.00     0.009 A 
ENDBRANCH  32  33
ENDBRANCH  28  32
ENDBRANCH   4  25
TORSDOF 10
ENDMDL
MODEL 4
REMARK VINA RESULT:      -8.4      3.419     11.113
REMARK  10 active torsions:
REMARK  status: ('A' for Active; 'I' for Inactive)
REMARK    1  A    between atoms: C_2  and  C_3 
REMARK    2  A    between atoms: C_3  and  O_4 
REMARK    3  A    between atoms: O_4  and  C_5 
REMARK    4  A    between atoms: C_8  and  C_9 
REMARK       I    between atoms: C_9  and  N_10 
REMARK    5  A    between atoms: N_10  and  C_11 
REMARK    6  A    between atoms: C_11  and  N_12 
REMARK    7  A    between atoms: N_12  and  C_13 
REMARK    8  A    between atoms: C_16  and  N_17 
REMARK    9  A    between atoms: N_20  and  C_22 
REMARK   10  A    between atoms: C_22  and  C_23 
ROOT
HETATM    1  C   UNL     1      39.763 -12.943   4.300  1.00  0.00     0.034 A 
HETATM    2  C   UNL     1      39.720 -13.405   5.615  1.00  0.00     0.032 A 
HETATM    3  C   UNL     1      39.800 -12.510   6.692  1.00  0.00     0.031 A 
HETATM    4  C   UNL     1      39.956 -11.131   6.495  1.00  0.00     0.030 A 
HETATM    5  C   UNL     1      40.015 -10.689   5.169  1.00  0.00     0.031 A 
HETATM    6  C   UNL     1      39.909 -11.577   4.086  1.00  0.00     0.032 A 
ENDROOT
BRANCH   1   7
HETATM    7  N   UNL     1      39.775 -13.915   3.281  1.00  0.00    -0.333 N 
HETATM    8  H   UNL     1      39.065 -14.644   3.376  1.00  0.00     0.168 HD
BRANCH   7   9
HETATM    9  C   UNL     1      40.614 -14.115   2.211  1.00  0.00     0.179 C 
HETATM   10  S   UNL     1      40.779 -13.186   0.831  1.00  0.00    -0.040 SA
BRANCH   9  11
HETATM   11  N   UNL     1      41.418 -15.240   2.306  1.00  0.00    -0.299 N 
HETATM   12  C   UNL     1      41.000 -16.561   2.389  1.00  0.00     0.257 C 
HETATM   13  O   UNL     1      39.886 -16.953   2.056  1.00  0.00    -0.267 OA
HETATM   14  H   UNL     1      42.371 -15.023   2.564  1.00  0.00     0.171 HD
BRANCH  12  15
HETATM   15  C   UNL     1      41.989 -17.512   2.950  1.00  0.00     0.032 A 
HETATM   16  C   UNL     1      42.138 -17.553   4.340  1.00  0.00     0.020 A 
HETATM   17  C   UNL     1      43.100 -18.383   4.921  1.00  0.00     0.038 A 
HETATM   18  C   UNL     1      43.907 -19.188   4.115  1.00  0.00     0.068 A 
HETATM   19  C   UNL     1      43.728 -19.168   2.728  1.00  0.00     0.038 A 
HETATM   20  C   UNL     1      42.776 -18.332   2.138  1.00  0.00     0.020 A 
BRANCH  18  21
HETATM   21  O   UNL     1      44.886 -20.034   4.555  1.00  0.00    -0.351 OA
BRANCH  21  22
HETATM   22  C   UNL     1      44.508 -21.016   5.522  1.00  0.00     0.175 C 
BRANCH  22  23
HETATM   23  C   UNL     1      45.024 -22.370   5.045  1.00  0.00     0.022 C 
HETATM   24  C   UNL     1      44.577 -22.675   3.627  1.00  0.00     0.007 C 
ENDBRANCH  22  23
ENDBRANCH  21  22
ENDBRANCH  18  21
ENDBRANCH  12  15
ENDBRANCH   9  11
ENDBRANCH   7   9
ENDBRANCH   1   7
BRANCH   4  25
HETATM   25  N   UNL     1      40.101 -10.286   7.593  1.00  0.00    -0.378 N 
HETATM   26  C   UNL     1      41.409  -9.627   7.767  1.00  0.00     0.150 C 
HETATM   27  C   UNL     1      42.281 -10.400   8.780  1.00  0.00     0.255 C 
HETATM   28  N   UNL     1      41.525 -10.587  10.101  1.00  0.00    -0.064 N 
HETATM   29  H   UNL     1      41.313  -9.645  10.451  1.00  0.00     0.280 HD
HETATM   30  C   UNL     1      40.195 -11.297   9.867  1.00  0.00     0.255 C 
HETATM   31  C   UNL     1      39.348 -10.532   8.831  1.00  0.00     0.150 C 
BRANCH  28  32
HETATM   32  C   UNL     1      42.345 -11.279  11.159  1.00  0.00     0.273 C 
BRANCH  32  33
HETATM   33  C   UNL     1      42.344 -10.545  12.471  1.00  0.00    -0.033 A 
HETATM   34  C   UNL     1      43.426  -9.725  12.830  1.00  0.00     0.009 A 
HETATM   35  C   UNL     1      43.434  -9.064  14.059  1.00  0.00     0.001 A 
HETATM   36  C   UNL     1      42.363  -9.214  14.938  1.00  0.00     0.000 A 
HETATM   37  C   UNL     1      41.282 -10.019  14.590  1.00  0.00     0.001 A 
HETATM   38  C   UNL     1      41.270 -10.683  13.363  1.00  0.00     0.009 A 
ENDBRANCH  32  33
ENDBRANCH  28  32
ENDBRANCH   4  25
TORSDOF 10
ENDMDL
MODEL 5
REMARK VINA RESULT:      -8.2      2.174      2.912
REMARK  10 active torsions:
REMARK  status: ('A' for Active; 'I' for Inactive)
REMARK    1  A    between atoms: C_2  and  C_3 
REMARK    2  A    between atoms: C_3  and  O_4 
REMARK    3  A    between atoms: O_4  and  C_5 
REMARK    4  A    between atoms: C_8  and  C_9 
REMARK       I    between atoms: C_9  and  N_10 
REMARK    5  A    between atoms: N_10  and  C_11 
REMARK    6  A    between atoms: C_11  and  N_12 
REMARK    7  A    between atoms: N_12  and  C_13 
REMARK    8  A    between atoms: C_16  and  N_17 
REMARK    9  A    between atoms: N_20  and  C_22 
REMARK   10  A    between atoms: C_22  and  C_23 
ROOT
HETATM    1  C   UNL     1      38.897 -12.286   3.413  1.00  0.00     0.034 A 
HETATM    2  C   UNL     1      39.613 -13.246   4.127  1.00  0.00     0.032 A 
HETATM    3  C   UNL     1      40.154 -14.366   3.479  1.00  0.00     0.031 A 
HETATM    4  C   UNL     1      39.975 -14.581   2.105  1.00  0.00     0.030 A 
HETATM    5  C   UNL     1      39.239 -13.616   1.410  1.00  0.00     0.031 A 
HETATM    6  C   UNL     1      38.716 -12.479   2.048  1.00  0.00     0.032 A 
ENDROOT
BRANCH   1   7
HETATM    7  N   UNL     1      38.305 -11.246   4.155  1.00  0.00    -0.333 N 
HETATM    8  H   UNL     1      37.341 -11.422   4.446  1.00  0.00     0.168 HD
BRANCH   7   9
HETATM    9  C   UNL     1      38.753  -9.994   4.504  1.00  0.00     0.179 C 
HETATM   10  S   UNL     1      38.746  -8.595   3.589  1.00  0.00    -0.040 SA
BRANCH   9  11
HETATM   11  N   UNL     1      39.277  -9.901   5.783  1.00  0.00    -0.299 N 
HETATM   12  C   UNL     1      40.571 -10.207   6.181  1.00  0.00     0.257 C 
HETATM   13  O   UNL     1      41.527 -10.283   5.415  1.00  0.00    -0.267 OA
HETATM   14  H   UNL     1      38.565  -9.820   6.496  1.00  0.00     0.171 HD
BRANCH  12  15
HETATM   15  C   UNL     1      40.750 -10.482   7.626  1.00  0.00     0.032 A 
HETATM   16  C   UNL     1      39.622 -10.853   8.364  1.00  0.00     0.020 A 
HETATM   17  C   UNL     1      39.718 -11.061   9.743  1.00  0.00     0.038 A 
HETATM   18  C   UNL     1      40.948 -10.913  10.387  1.00  0.00     0.068 A 
HETATM   19  C   UNL     1      42.079 -10.575   9.637  1.00  0.00     0.038 A 
HETATM   20  C   UNL     1      41.988 -10.355   8.259  1.00  0.00     0.020 A 
BRANCH  18  21
HETATM   21  O   UNL     1      41.175 -11.079  11.724  1.00  0.00    -0.351 OA
BRANCH  21  22
HETATM   22  C   UNL     1      42.535 -11.235  12.136  1.00  0.00     0.175 C 
BRANCH  22  23
HETATM   23  C   UNL     1      42.682 -10.617  13.523  1.00  0.00     0.022 C 
HETATM   24  C   UNL     1      43.254  -9.213  13.454  1.00  0.00     0.007 C 
ENDBRANCH  22  23
ENDBRANCH  21  22
ENDBRANCH  18  21
ENDBRANCH  12  15
ENDBRANCH   9  11
ENDBRANCH   7   9
ENDBRANCH   1   7
BRANCH   4  25
HETATM   25  N   UNL     1      40.470 -15.741   1.515  1.00  0.00    -0.378 N 
HETATM   26  C   UNL     1      40.204 -17.016   2.209  1.00  0.00     0.150 C 
HETATM   27  C   UNL     1      41.419 -17.437   3.064  1.00  0.00     0.255 C 
HETATM   28  N   UNL     1      42.688 -17.477   2.204  1.00  0.00    -0.064 N 
HETATM   29  H   UNL     1      42.515 -18.164   1.460  1.00  0.00     0.280 HD
HETATM   30  C   UNL     1      42.931 -16.128   1.534  1.00  0.00     0.255 C 
HETATM   31  C   UNL     1      41.699 -15.705   0.710  1.00  0.00     0.150 C 
BRANCH  28  32
HETATM   32  C   UNL     1      43.902 -17.945   2.965  1.00  0.00     0.273 C 
BRANCH  32  33
HETATM   33  C   UNL     1      44.047 -19.441   2.970  1.00  0.00    -0.033 A 
HETATM   34  C   UNL     1      44.675 -20.093   4.043  1.00  0.00     0.009 A 
HETATM   35  C   UNL     1      44.831 -21.480   4.035  1.00  0.00     0.001 A 
HETATM   36  C   UNL     1      44.357 -22.228   2.958  1.00  0.00     0.000 A 
HETATM   37  C   UNL     1      43.726 -21.593   1.891  1.00  0.00     0.001 A 
HETATM   38  C   UNL     1      43.570 -20.207   1.895  1.00  0.00     0.009 A 
ENDBRANCH  32  33
ENDBRANCH  28  32
ENDBRANCH   4  25
TORSDOF 10
ENDMDL
MODEL 6
REMARK VINA RESULT:      -8.0      3.114     10.544
REMARK  10 active torsions:
REMARK  status: ('A' for Active; 'I' for Inactive)
REMARK    1  A    between atoms: C_2  and  C_3 
REMARK    2  A    between atoms: C_3  and  O_4 
REMARK    3  A    between atoms: O_4  and  C_5 
REMARK    4  A    between atoms: C_8  and  C_9 
REMARK       I    between atoms: C_9  and  N_10 
REMARK    5  A    between atoms: N_10  and  C_11 
REMARK    6  A    between atoms: C_11  and  N_12 
REMARK    7  A    between atoms: N_12  and  C_13 
REMARK    8  A    between atoms: C_16  and  N_17 
REMARK    9  A    between atoms: N_20  and  C_22 
REMARK   10  A    between atoms: C_22  and  C_23 
ROOT
HETATM    1  C   UNL     1      41.028 -11.015   4.924  1.00  0.00     0.034 A 
HETATM    2  C   UNL     1      40.376 -11.861   5.821  1.00  0.00     0.032 A 
HETATM    3  C   UNL     1      39.877 -11.371   7.036  1.00  0.00     0.031 A 
HETATM    4  C   UNL     1      40.038 -10.031   7.413  1.00  0.00     0.030 A 
HETATM    5  C   UNL     1      40.710  -9.201   6.509  1.00  0.00     0.031 A 
HETATM    6  C   UNL     1      41.189  -9.680   5.278  1.00  0.00     0.032 A 
ENDROOT
BRANCH   1   7
HETATM    7  N   UNL     1      41.583 -11.606   3.773  1.00  0.00    -0.333 N 
HETATM    8  H   UNL     1      42.351 -11.081   3.351  1.00  0.00     0.168 HD
BRANCH   7   9
HETATM    9  C   UNL     1      41.238 -12.728   3.058  1.00  0.00     0.179 C 
HETATM   10  S   UNL     1      40.282 -12.836   1.691  1.00  0.00    -0.040 SA
BRANCH   9  11
HETATM   11  N   UNL     1      41.759 -13.913   3.551  1.00  0.00    -0.299 N 
HETATM   12  C   UNL     1      43.080 -14.335   3.492  1.00  0.00     0.257 C 
HETATM   13  O   UNL     1      44.033 -13.586   3.299  1.00  0.00    -0.267 OA
HETATM   14  H   UNL     1      41.047 -14.601   3.758  1.00  0.00     0.171 HD
BRANCH  12  15
HETATM   15  C   UNL     1      43.296 -15.793   3.647  1.00  0.00     0.032 A 
HETATM   16  C   UNL     1      43.167 -16.339   4.928  1.00  0.00     0.020 A 
HETATM   17  C   UNL     1      43.423 -17.695   5.144  1.00  0.00     0.038 A 
HETATM   18  C   UNL     1      43.793 -18.515   4.077  1.00  0.00     0.068 A 
HETATM   19  C   UNL     1      43.886 -17.970   2.793  1.00  0.00     0.038 A 
HETATM   20  C   UNL     1      43.643 -16.611   2.570  1.00  0.00     0.020 A 
BRANCH  18  21
HETATM   21  O   UNL     1      44.078 -19.850   4.155  1.00  0.00    -0.351 OA
BRANCH  21  22
HETATM   22  C   UNL     1      44.913 -20.396   3.132  1.00  0.00     0.175 C 
BRANCH  22  23
HETATM   23  C   UNL     1      44.427 -21.810   2.831  1.00  0.00     0.022 C 
HETATM   24  C   UNL     1      43.941 -21.945   1.400  1.00  0.00     0.007 C 
ENDBRANCH  22  23
ENDBRANCH  21  22
ENDBRANCH  18  21
ENDBRANCH  12  15
ENDBRANCH   9  11
ENDBRANCH   7   9
ENDBRANCH   1   7
BRANCH   4  25
HETATM   25  N   UNL     1      39.589  -9.602   8.659  1.00  0.00    -0.378 N 
HETATM   26  C   UNL     1      40.062  -8.287   9.130  1.00  0.00     0.150 C 
HETATM   27  C   UNL     1      41.262  -8.449  10.088  1.00  0.00     0.255 C 
HETATM   28  N   UNL     1      40.905  -9.402  11.235  1.00  0.00    -0.064 N 
HETATM   29  H   UNL     1      40.106  -8.981  11.725  1.00  0.00     0.280 HD
HETATM   30  C   UNL     1      40.450 -10.754  10.693  1.00  0.00     0.255 C 
HETATM   31  C   UNL     1      39.272 -10.575   9.716  1.00  0.00     0.150 C 
BRANCH  28  32
HETATM   32  C   UNL     1      42.014  -9.554  12.245  1.00  0.00     0.273 C 
BRANCH  32  33
HETATM   33  C   UNL     1      43.116 -10.460  11.769  1.00  0.00    -0.033 A 
HETATM   34  C   UNL     1      44.074  -9.996  10.853  1.00  0.00     0.009 A 
HETATM   35  C   UNL     1      45.082 -10.845  10.393  1.00  0.00     0.001 A 
HETATM   36  C   UNL     1      45.143 -12.163  10.845  1.00  0.00     0.000 A 
HETATM   37  C   UNL     1      44.202 -12.631  11.758  1.00  0.00     0.001 A 
HETATM   38  C   UNL     1      43.192 -11.786  12.220  1.00  0.00     0.009 A 
ENDBRANCH  32  33
ENDBRANCH  28  32
ENDBRANCH   4  25
TORSDOF 10
ENDMDL
MODEL 7
REMARK VINA RESULT:      -7.9      5.256      8.791
REMARK  10 active torsions:
REMARK  status: ('A' for Active; 'I' for Inactive)
REMARK    1  A    between atoms: C_2  and  C_3 
REMARK    2  A    between atoms: C_3  and  O_4 
REMARK    3  A    between atoms: O_4  and  C_5 
REMARK    4  A    between atoms: C_8  and  C_9 
REMARK       I    between atoms: C_9  and  N_10 
REMARK    5  A    between atoms: N_10  and  C_11 
REMARK    6  A    between atoms: C_11  and  N_12 
REMARK    7  A    between atoms: N_12  and  C_13 
REMARK    8  A    between atoms: C_16  and  N_17 
REMARK    9  A    between atoms: N_20  and  C_22 
REMARK   10  A    between atoms: C_22  and  C_23 
ROOT
HETATM    1  C   UNL     1      41.073 -12.367   5.283  1.00  0.00     0.034 A 
HETATM    2  C   UNL     1      42.300 -13.021   5.384  1.00  0.00     0.032 A 
HETATM    3  C   UNL     1      42.360 -14.409   5.579  1.00  0.00     0.031 A 
HETATM    4  C   UNL     1      41.200 -15.186   5.711  1.00  0.00     0.030 A 
HETATM    5  C   UNL     1      39.979 -14.509   5.624  1.00  0.00     0.031 A 
HETATM    6  C   UNL     1      39.912 -13.123   5.403  1.00  0.00     0.032 A 
ENDROOT
BRANCH   1   7
HETATM    7  N   UNL     1      41.101 -10.963   5.186  1.00  0.00    -0.333 N 
HETATM    8  H   UNL     1      41.164 -10.473   6.080  1.00  0.00     0.168 HD
BRANCH   7   9
HETATM    9  C   UNL     1      40.987 -10.113   4.112  1.00  0.00     0.179 C 
HETATM   10  S   UNL     1      40.832  -8.448   4.115  1.00  0.00    -0.040 SA
BRANCH   9  11
HETATM   11  N   UNL     1      41.001 -10.736   2.874  1.00  0.00    -0.299 N 
HETATM   12  C   UNL     1      39.905 -11.192   2.156  1.00  0.00     0.257 C 
HETATM   13  O   UNL     1      38.752 -10.817   2.346  1.00  0.00    -0.267 OA
HETATM   14  H   UNL     1      41.917 -11.073   2.613  1.00  0.00     0.171 HD
BRANCH  12  15
HETATM   15  C   UNL     1      40.195 -12.218   1.126  1.00  0.00     0.032 A 
HETATM   16  C   UNL     1      39.155 -12.594   0.269  1.00  0.00     0.020 A 
HETATM   17  C   UNL     1      39.352 -13.602  -0.678  1.00  0.00     0.038 A 
HETATM   18  C   UNL     1      40.595 -14.229  -0.782  1.00  0.00     0.068 A 
HETATM   19  C   UNL     1      41.640 -13.824   0.054  1.00  0.00     0.038 A 
HETATM   20  C   UNL     1      41.448 -12.823   1.011  1.00  0.00     0.020 A 
BRANCH  18  21
HETATM   21  O   UNL     1      40.916 -15.230  -1.657  1.00  0.00    -0.351 OA
BRANCH  21  22
HETATM   22  C   UNL     1      40.688 -14.976  -3.044  1.00  0.00     0.175 C 
BRANCH  22  23
HETATM   23  C   UNL     1      39.756 -16.061  -3.575  1.00  0.00     0.022 C 
HETATM   24  C   UNL     1      38.402 -15.497  -3.965  1.00  0.00     0.007 C 
ENDBRANCH  22  23
ENDBRANCH  21  22
ENDBRANCH  18  21
ENDBRANCH  12  15
ENDBRANCH   9  11
ENDBRANCH   7   9
ENDBRANCH   1   7
BRANCH   4  25
HETATM   25  N   UNL     1      41.305 -16.549   5.973  1.00  0.00    -0.378 N 
HETATM   26  C   UNL     1      42.133 -16.951   7.127  1.00  0.00     0.150 C 
HETATM   27  C   UNL     1      43.549 -17.359   6.667  1.00  0.00     0.255 C 
HETATM   28  N   UNL     1      43.468 -18.441   5.584  1.00  0.00    -0.064 N 
HETATM   29  H   UNL     1      42.981 -19.240   6.006  1.00  0.00     0.280 HD
HETATM   30  C   UNL     1      42.626 -17.963   4.405  1.00  0.00     0.255 C 
HETATM   31  C   UNL     1      41.226 -17.530   4.881  1.00  0.00     0.150 C 
BRANCH  28  32
HETATM   32  C   UNL     1      44.821 -18.932   5.136  1.00  0.00     0.273 C 
BRANCH  32  33
HETATM   33  C   UNL     1      44.757 -20.262   4.438  1.00  0.00    -0.033 A 
HETATM   34  C   UNL     1      44.635 -20.329   3.041  1.00  0.00     0.009 A 
HETATM   35  C   UNL     1      44.551 -21.564   2.397  1.00  0.00     0.001 A 
HETATM   36  C   UNL     1      44.590 -22.742   3.140  1.00  0.00     0.000 A 
HETATM   37  C   UNL     1      44.717 -22.689   4.526  1.00  0.00     0.001 A 
HETATM   38  C   UNL     1      44.800 -21.456   5.174  1.00  0.00     0.009 A 
ENDBRANCH  32  33
ENDBRANCH  28  32
ENDBRANCH   4  25
TORSDOF 10
ENDMDL
MODEL 8
REMARK VINA RESULT:      -7.8      4.387      8.382
REMARK  10 active torsions:
REMARK  status: ('A' for Active; 'I' for Inactive)
REMARK    1  A    between atoms: C_2  and  C_3 
REMARK    2  A    between atoms: C_3  and  O_4 
REMARK    3  A    between atoms: O_4  and  C_5 
REMARK    4  A    between atoms: C_8  and  C_9 
REMARK       I    between atoms: C_9  and  N_10 
REMARK    5  A    between atoms: N_10  and  C_11 
REMARK    6  A    between atoms: C_11  and  N_12 
REMARK    7  A    between atoms: N_12  and  C_13 
REMARK    8  A    between atoms: C_16  and  N_17 
REMARK    9  A    between atoms: N_20  and  C_22 
REMARK   10  A    between atoms: C_22  and  C_23 
ROOT
HETATM    1  C   UNL     1      41.936 -17.770   1.665  1.00  0.00     0.034 A 
HETATM    2  C   UNL     1      40.749 -17.280   2.208  1.00  0.00     0.032 A 
HETATM    3  C   UNL     1      40.200 -16.071   1.759  1.00  0.00     0.031 A 
HETATM    4  C   UNL     1      40.831 -15.294   0.777  1.00  0.00     0.030 A 
HETATM    5  C   UNL     1      42.030 -15.794   0.257  1.00  0.00     0.031 A 
HETATM    6  C   UNL     1      42.571 -17.018   0.683  1.00  0.00     0.032 A 
ENDROOT
BRANCH   1   7
HETATM    7  N   UNL     1      42.469 -18.940   2.240  1.00  0.00    -0.333 N 
HETATM    8  H   UNL     1      41.869 -19.764   2.166  1.00  0.00     0.168 HD
BRANCH   7   9
HETATM    9  C   UNL     1      43.620 -19.173   2.953  1.00  0.00     0.179 C 
HETATM   10  S   UNL     1      44.702 -20.439   2.798  1.00  0.00    -0.040 SA
BRANCH   9  11
HETATM   11  N   UNL     1      43.903 -18.225   3.924  1.00  0.00    -0.299 N 
HETATM   12  C   UNL     1      43.088 -17.841   4.979  1.00  0.00     0.257 C 
HETATM   13  O   UNL     1      42.150 -18.509   5.404  1.00  0.00    -0.267 OA
HETATM   14  H   UNL     1      44.678 -17.626   3.675  1.00  0.00     0.171 HD
BRANCH  12  15
HETATM   15  C   UNL     1      43.392 -16.518   5.575  1.00  0.00     0.032 A 
HETATM   16  C   UNL     1      43.128 -15.380   4.806  1.00  0.00     0.020 A 
HETATM   17  C   UNL     1      43.455 -14.111   5.291  1.00  0.00     0.038 A 
HETATM   18  C   UNL     1      44.032 -13.973   6.554  1.00  0.00     0.068 A 
HETATM   19  C   UNL     1      44.261 -15.113   7.333  1.00  0.00     0.038 A 
HETATM   20  C   UNL     1      43.947 -16.387   6.850  1.00  0.00     0.020 A 
BRANCH  18  21
HETATM   21  O   UNL     1      44.404 -12.796   7.140  1.00  0.00    -0.351 OA
BRANCH  21  22
HETATM   22  C   UNL     1      45.196 -12.883   8.326  1.00  0.00     0.175 C 
BRANCH  22  23
HETATM   23  C   UNL     1      44.567 -11.979   9.381  1.00  0.00     0.022 C 
HETATM   24  C   UNL     1      45.568 -10.981   9.935  1.00  0.00     0.007 C 
ENDBRANCH  22  23
ENDBRANCH  21  22
ENDBRANCH  18  21
ENDBRANCH  12  15
ENDBRANCH   9  11
ENDBRANCH   7   9
ENDBRANCH   1   7
BRANCH   4  25
HETATM   25  N   UNL     1      40.287 -14.066   0.410  1.00  0.00    -0.378 N 
HETATM   26  C   UNL     1      41.062 -12.858   0.752  1.00  0.00     0.150 C 
HETATM   27  C   UNL     1      40.538 -12.223   2.058  1.00  0.00     0.255 C 
HETATM   28  N   UNL     1      39.032 -11.958   1.955  1.00  0.00    -0.064 N 
HETATM   29  H   UNL     1      38.902 -11.316   1.164  1.00  0.00     0.280 HD
HETATM   30  C   UNL     1      38.277 -13.243   1.629  1.00  0.00     0.255 C 
HETATM   31  C   UNL     1      38.830 -13.883   0.341  1.00  0.00     0.150 C 
BRANCH  28  32
HETATM   32  C   UNL     1      38.466 -11.278   3.176  1.00  0.00     0.273 C 
BRANCH  32  33
HETATM   33  C   UNL     1      39.363 -11.397   4.377  1.00  0.00    -0.033 A 
HETATM   34  C   UNL     1      40.305 -10.397   4.666  1.00  0.00     0.009 A 
HETATM   35  C   UNL     1      41.153 -10.522   5.767  1.00  0.00     0.001 A 
HETATM   36  C   UNL     1      41.066 -11.642   6.591  1.00  0.00     0.000 A 
HETATM   37  C   UNL     1      40.130 -12.637   6.319  1.00  0.00     0.001 A 
HETATM   38  C   UNL     1      39.281 -12.518   5.218  1.00  0.00     0.009 A 
ENDBRANCH  32  33
ENDBRANCH  28  32
ENDBRANCH   4  25
TORSDOF 10
ENDMDL
MODEL 9
REMARK VINA RESULT:      -7.7      7.404     12.081
REMARK  10 active torsions:
REMARK  status: ('A' for Active; 'I' for Inactive)
REMARK    1  A    between atoms: C_2  and  C_3 
REMARK    2  A    between atoms: C_3  and  O_4 
REMARK    3  A    between atoms: O_4  and  C_5 
REMARK    4  A    between atoms: C_8  and  C_9 
REMARK       I    between atoms: C_9  and  N_10 
REMARK    5  A    between atoms: N_10  and  C_11 
REMARK    6  A    between atoms: C_11  and  N_12 
REMARK    7  A    between atoms: N_12  and  C_13 
REMARK    8  A    between atoms: C_16  and  N_17 
REMARK    9  A    between atoms: N_20  and  C_22 
REMARK   10  A    between atoms: C_22  and  C_23 
ROOT
HETATM    1  C   UNL     1      39.161 -14.514   1.530  1.00  0.00     0.034 A 
HETATM    2  C   UNL     1      40.281 -14.649   0.711  1.00  0.00     0.032 A 
HETATM    3  C   UNL     1      40.212 -14.340  -0.655  1.00  0.00     0.031 A 
HETATM    4  C   UNL     1      39.019 -13.915  -1.256  1.00  0.00     0.030 A 
HETATM    5  C   UNL     1      37.902 -13.801  -0.421  1.00  0.00     0.031 A 
HETATM    6  C   UNL     1      37.971 -14.084   0.953  1.00  0.00     0.032 A 
ENDROOT
BRANCH   1   7
HETATM    7  N   UNL     1      39.290 -14.937   2.867  1.00  0.00    -0.333 N 
HETATM    8  H   UNL     1      38.490 -15.461   3.228  1.00  0.00     0.168 HD
BRANCH   7   9
HETATM    9  C   UNL     1      40.262 -14.717   3.812  1.00  0.00     0.179 C 
HETATM   10  S   UNL     1      40.405 -13.438   4.879  1.00  0.00    -0.040 SA
BRANCH   9  11
HETATM   11  N   UNL     1      41.246 -15.692   3.871  1.00  0.00    -0.299 N 
HETATM   12  C   UNL     1      42.511 -15.638   3.305  1.00  0.00     0.257 C 
HETATM   13  O   UNL     1      43.067 -14.600   2.960  1.00  0.00    -0.267 OA
HETATM   14  H   UNL     1      40.890 -16.592   4.163  1.00  0.00     0.171 HD
BRANCH  12  15
HETATM   15  C   UNL     1      43.178 -16.946   3.099  1.00  0.00     0.032 A 
HETATM   16  C   UNL     1      43.333 -17.398   1.784  1.00  0.00     0.020 A 
HETATM   17  C   UNL     1      43.896 -18.652   1.533  1.00  0.00     0.038 A 
HETATM   18  C   UNL     1      44.319 -19.453   2.594  1.00  0.00     0.068 A 
HETATM   19  C   UNL     1      44.193 -18.980   3.904  1.00  0.00     0.038 A 
HETATM   20  C   UNL     1      43.622 -17.731   4.165  1.00  0.00     0.020 A 
BRANCH  18  21
HETATM   21  O   UNL     1      44.876 -20.697   2.485  1.00  0.00    -0.351 OA
BRANCH  21  22
HETATM   22  C   UNL     1      44.024 -21.814   2.749  1.00  0.00     0.175 C 
BRANCH  22  23
HETATM   23  C   UNL     1      44.780 -22.780   3.655  1.00  0.00     0.022 C 
HETATM   24  C   UNL     1      44.754 -22.330   5.104  1.00  0.00     0.007 C 
ENDBRANCH  22  23
ENDBRANCH  21  22
ENDBRANCH  18  21
ENDBRANCH  12  15
ENDBRANCH   9  11
ENDBRANCH   7   9
ENDBRANCH   1   7
BRANCH   4  25
HETATM   25  N   UNL     1      38.978 -13.685  -2.629  1.00  0.00    -0.378 N 
HETATM   26  C   UNL     1      38.336 -12.437  -3.084  1.00  0.00     0.150 C 
HETATM   27  C   UNL     1      36.875 -12.698  -3.511  1.00  0.00     0.255 C 
HETATM   28  N   UNL     1      36.816 -13.817  -4.557  1.00  0.00    -0.064 N 
HETATM   29  H   UNL     1      37.374 -13.497  -5.357  1.00  0.00     0.280 HD
HETATM   30  C   UNL     1      37.467 -15.090  -4.025  1.00  0.00     0.255 C 
HETATM   31  C   UNL     1      38.914 -14.809  -3.574  1.00  0.00     0.150 C 
BRANCH  28  32
HETATM   32  C   UNL     1      35.421 -14.078  -5.065  1.00  0.00     0.273 C 
BRANCH  32  33
HETATM   33  C   UNL     1      35.135 -13.381  -6.366  1.00  0.00    -0.033 A 
HETATM   34  C   UNL     1      35.508 -13.967  -7.586  1.00  0.00     0.009 A 
HETATM   35  C   UNL     1      35.263 -13.308  -8.791  1.00  0.00     0.001 A 
HETATM   36  C   UNL     1      34.642 -12.060  -8.790  1.00  0.00     0.000 A 
HETATM   37  C   UNL     1      34.261 -11.472  -7.586  1.00  0.00     0.001 A 
HETATM   38  C   UNL     1      34.504 -12.128  -6.379  1.00  0.00     0.009 A 
ENDBRANCH  32  33
ENDBRANCH  28  32
ENDBRANCH   4  25
TORSDOF 10
ENDMDL
MODEL 10
REMARK VINA RESULT:      -7.6      2.858     11.686
REMARK  10 active torsions:
REMARK  status: ('A' for Active; 'I' for Inactive)
REMARK    1  A    between atoms: C_2  and  C_3 
REMARK    2  A    between atoms: C_3  and  O_4 
REMARK    3  A    between atoms: O_4  and  C_5 
REMARK    4  A    between atoms: C_8  and  C_9 
REMARK       I    between atoms: C_9  and  N_10 
REMARK    5  A    between atoms: N_10  and  C_11 
REMARK    6  A    between atoms: C_11  and  N_12 
REMARK    7  A    between atoms: N_12  and  C_13 
REMARK    8  A    between atoms: C_16  and  N_17 
REMARK    9  A    between atoms: N_20  and  C_22 
REMARK   10  A    between atoms: C_22  and  C_23 
ROOT
HETATM    1  C   UNL     1      40.875 -12.271   4.843  1.00  0.00     0.034 A 
HETATM    2  C   UNL     1      39.958 -12.912   5.675  1.00  0.00     0.032 A 
HETATM    3  C   UNL     1      39.454 -12.271   6.815  1.00  0.00     0.031 A 
HETATM    4  C   UNL     1      39.868 -10.983   7.182  1.00  0.00     0.030 A 
HETATM    5  C   UNL     1      40.802 -10.363   6.344  1.00  0.00     0.031 A 
HETATM    6  C   UNL     1      41.291 -10.989   5.186  1.00  0.00     0.032 A 
ENDROOT
BRANCH   1   7
HETATM    7  N   UNL     1      41.404 -13.020   3.775  1.00  0.00    -0.333 N 
HETATM    8  H   UNL     1      42.418 -12.952   3.666  1.00  0.00     0.168 HD
BRANCH   7   9
HETATM    9  C   UNL     1      40.806 -13.776   2.796  1.00  0.00     0.179 C 
HETATM   10  S   UNL     1      39.621 -13.318   1.708  1.00  0.00    -0.040 SA
BRANCH   9  11
HETATM   11  N   UNL     1      41.253 -15.085   2.717  1.00  0.00    -0.299 N 
HETATM   12  C   UNL     1      41.484 -15.954   3.774  1.00  0.00     0.257 C 
HETATM   13  O   UNL     1      41.012 -15.812   4.898  1.00  0.00    -0.267 OA
HETATM   14  H   UNL     1      41.652 -15.312   1.816  1.00  0.00     0.171 HD
BRANCH  12  15
HETATM   15  C   UNL     1      42.387 -17.093   3.483  1.00  0.00     0.032 A 
HETATM   16  C   UNL     1      43.152 -17.036   2.314  1.00  0.00     0.020 A 
HETATM   17  C   UNL     1      43.972 -18.109   1.956  1.00  0.00     0.038 A 
HETATM   18  C   UNL     1      44.042 -19.238   2.773  1.00  0.00     0.068 A 
HETATM   19  C   UNL     1      43.301 -19.273   3.959  1.00  0.00     0.038 A 
HETATM   20  C   UNL     1      42.470 -18.209   4.319  1.00  0.00     0.020 A 
BRANCH  18  21
HETATM   21  O   UNL     1      44.795 -20.354   2.534  1.00  0.00    -0.351 OA
BRANCH  21  22
HETATM   22  C   UNL     1      44.095 -21.591   2.397  1.00  0.00     0.175 C 
BRANCH  22  23
HETATM   23  C   UNL     1      44.813 -22.637   3.244  1.00  0.00     0.022 C 
HETATM   24  C   UNL     1      44.830 -22.255   4.713  1.00  0.00     0.007 C 
ENDBRANCH  22  23
ENDBRANCH  21  22
ENDBRANCH  18  21
ENDBRANCH  12  15
ENDBRANCH   9  11
ENDBRANCH   7   9
ENDBRANCH   1   7
BRANCH   4  25
HETATM   25  N   UNL     1      39.395 -10.411   8.359  1.00  0.00    -0.378 N 
HETATM   26  C   UNL     1      39.229  -8.945   8.377  1.00  0.00     0.150 C 
HETATM   27  C   UNL     1      40.449  -8.265   9.035  1.00  0.00     0.255 C 
HETATM   28  N   UNL     1      40.703  -8.855  10.427  1.00  0.00    -0.064 N 
HETATM   29  H   UNL     1      39.853  -8.681  10.976  1.00  0.00     0.280 HD
HETATM   30  C   UNL     1      40.895 -10.366  10.347  1.00  0.00     0.255 C 
HETATM   31  C   UNL     1      39.685 -11.029   9.661  1.00  0.00     0.150 C 
BRANCH  28  32
HETATM   32  C   UNL     1      41.845  -8.188  11.152  1.00  0.00     0.273 C 
BRANCH  32  33
HETATM   33  C   UNL     1      41.862  -8.500  12.623  1.00  0.00    -0.033 A 
HETATM   34  C   UNL     1      40.797  -8.107  13.448  1.00  0.00     0.009 A 
HETATM   35  C   UNL     1      40.826  -8.375  14.817  1.00  0.00     0.001 A 
HETATM   36  C   UNL     1      41.916  -9.041  15.374  1.00  0.00     0.000 A 
HETATM   37  C   UNL     1      42.976  -9.442  14.564  1.00  0.00     0.001 A 
HETATM   38  C   UNL     1      42.952  -9.175  13.195  1.00  0.00     0.009 A 
ENDBRANCH  32  33
ENDBRANCH  28  32
ENDBRANCH   4  25
TORSDOF 10
ENDMDL
