MODEL 1
REMARK VINA RESULT:      -9.3      0.000      0.000
REMARK  6 active torsions:
REMARK  status: ('A' for Active; 'I' for Inactive)
REMARK    1  A    between atoms: O_2  and  C_3 
REMARK    2  A    between atoms: C_4  and  C_5 
REMARK    3  A    between atoms: C_5  and  N_6 
REMARK       I    between atoms: N_6  and  C_7 
REMARK    4  A    between atoms: C_7  and  C_8 
REMARK    5  A    between atoms: C_8  and  O_9 
REMARK    6  A    between atoms: N_10  and  C_11 
ROOT
HETATM    1  C   UNL     1      41.233 -16.325   2.845  1.00  0.00     0.256 C 
HETATM    2  N   UNL     1      41.382 -15.010   2.198  1.00  0.00    -0.254 N 
HETATM    3  C   UNL     1      42.379 -14.147   2.639  1.00  0.00     0.330 C 
HETATM    4  O   UNL     1      42.846 -13.208   1.994  1.00  0.00    -0.246 OA
HETATM    5  N   UNL     1      42.908 -14.368   3.875  1.00  0.00    -0.308 N 
HETATM    6  C   UNL     1      42.479 -15.338   4.767  1.00  0.00     0.048 A 
HETATM    7  C   UNL     1      41.602 -16.313   4.317  1.00  0.00     0.034 A 
HETATM    8  C   UNL     1      42.927 -15.313   6.090  1.00  0.00     0.030 A 
HETATM    9  C   UNL     1      42.473 -16.277   6.989  1.00  0.00     0.002 A 
HETATM   10  C   UNL     1      41.589 -17.263   6.559  1.00  0.00     0.001 A 
HETATM   11  C   UNL     1      41.163 -17.289   5.229  1.00  0.00     0.015 A 
HETATM   12  H   UNL     1      43.567 -13.662   4.177  1.00  0.00     0.170 HD
ENDROOT
BRANCH   1  13
HETATM   13  C   UNL     1      42.086 -17.439   2.113  1.00  0.00     0.279 C 
HETATM   14  N   UNL     1      43.375 -17.648   2.551  1.00  0.00    -0.352 N 
HETATM   15  H   UNL     1      43.798 -16.973   3.175  1.00  0.00     0.162 HD
HETATM   16  O   UNL     1      41.568 -18.109   1.212  1.00  0.00    -0.268 OA
BRANCH  14  17
HETATM   17  C   UNL     1      44.255 -18.628   1.942  1.00  0.00     0.164 C 
BRANCH  17  18
HETATM   18  C   UNL     1      44.384 -19.921   2.719  1.00  0.00    -0.007 A 
HETATM   19  C   UNL     1      44.623 -19.861   4.111  1.00  0.00     0.076 A 
HETATM   20  C   UNL     1      44.721 -21.040   4.856  1.00  0.00     0.037 A 
HETATM   21  C   UNL     1      44.589 -22.282   4.233  1.00  0.00     0.003 A 
HETATM   22  C   UNL     1      44.355 -22.353   2.864  1.00  0.00     0.001 A 
HETATM   23  C   UNL     1      44.251 -21.182   2.112  1.00  0.00     0.011 A 
BRANCH  19  24
HETATM   24  O   UNL     1      44.721 -18.601   4.645  1.00  0.00    -0.355 OA
HETATM   25  C   UNL     1      45.096 -18.506   6.015  1.00  0.00     0.210 C 
ENDBRANCH  19  24
ENDBRANCH  17  18
ENDBRANCH  14  17
ENDBRANCH   1  13
BRANCH   1  26
HETATM   26  O   UNL     1      39.846 -16.698   2.808  1.00  0.00    -0.359 OA
HETATM   27  H   UNL     1      39.359 -15.853   2.834  1.00  0.00     0.213 HD
ENDBRANCH   1  26
BRANCH   2  28
HETATM   28  C   UNL     1      40.630 -14.690   1.007  1.00  0.00     0.043 A 
HETATM   29  C   UNL     1      39.414 -13.987   1.044  1.00  0.00     0.031 A 
HETATM   30  C   UNL     1      38.722 -13.664  -0.132  1.00  0.00     0.026 A 
HETATM   31  C   UNL     1      39.243 -14.028  -1.368  1.00  0.00     0.034 A 
HETATM   32 CL   UNL     1      38.401 -13.618  -2.810  1.00  0.00    -0.084 Cl
HETATM   33  C   UNL     1      40.446 -14.715  -1.438  1.00  0.00     0.026 A 
HETATM   34  C   UNL     1      41.129 -15.043  -0.260  1.00  0.00     0.031 A 
ENDBRANCH   2  28
TORSDOF 6
ENDMDL
MODEL 2
REMARK VINA RESULT:      -8.7      3.065      7.131
REMARK  6 active torsions:
REMARK  status: ('A' for Active; 'I' for Inactive)
REMARK    1  A    between atoms: O_2  and  C_3 
REMARK    2  A    between atoms: C_4  and  C_5 
REMARK    3  A    between atoms: C_5  and  N_6 
REMARK       I    between atoms: N_6  and  C_7 
REMARK    4  A    between atoms: C_7  and  C_8 
REMARK    5  A    between atoms: C_8  and  O_9 
REMARK    6  A    between atoms: N_10  and  C_11 
ROOT
HETATM    1  C   UNL     1      42.269 -15.787   3.009  1.00  0.00     0.256 C 
HETATM    2  N   UNL     1      42.127 -17.042   3.768  1.00  0.00    -0.254 N 
HETATM    3  C   UNL     1      41.162 -17.127   4.765  1.00  0.00     0.330 C 
HETATM    4  O   UNL     1      40.696 -18.172   5.220  1.00  0.00    -0.246 OA
HETATM    5  N   UNL     1      40.665 -15.962   5.267  1.00  0.00    -0.308 N 
HETATM    6  C   UNL     1      41.100 -14.692   4.922  1.00  0.00     0.048 A 
HETATM    7  C   UNL     1      41.943 -14.553   3.829  1.00  0.00     0.034 A 
HETATM    8  C   UNL     1      40.692 -13.589   5.674  1.00  0.00     0.030 A 
HETATM    9  C   UNL     1      41.152 -12.317   5.338  1.00  0.00     0.002 A 
HETATM   10  C   UNL     1      42.002 -12.154   4.247  1.00  0.00     0.001 A 
HETATM   11  C   UNL     1      42.389 -13.263   3.490  1.00  0.00     0.015 A 
HETATM   12  H   UNL     1      40.031 -16.083   6.046  1.00  0.00     0.170 HD
ENDROOT
BRANCH   1  13
HETATM   13  C   UNL     1      41.371 -15.787   1.705  1.00  0.00     0.279 C 
HETATM   14  N   UNL     1      42.012 -15.700   0.489  1.00  0.00    -0.352 N 
HETATM   15  H   UNL     1      42.992 -15.446   0.465  1.00  0.00     0.162 HD
HETATM   16  O   UNL     1      40.145 -15.905   1.810  1.00  0.00    -0.268 OA
BRANCH  14  17
HETATM   17  C   UNL     1      41.291 -15.672  -0.770  1.00  0.00     0.164 C 
BRANCH  17  18
HETATM   18  C   UNL     1      41.468 -14.395  -1.563  1.00  0.00    -0.007 A 
HETATM   19  C   UNL     1      41.184 -14.407  -2.948  1.00  0.00     0.076 A 
HETATM   20  C   UNL     1      41.314 -13.234  -3.700  1.00  0.00     0.037 A 
HETATM   21  C   UNL     1      41.730 -12.049  -3.092  1.00  0.00     0.003 A 
HETATM   22  C   UNL     1      42.013 -12.026  -1.731  1.00  0.00     0.001 A 
HETATM   23  C   UNL     1      41.882 -13.189  -0.971  1.00  0.00     0.011 A 
BRANCH  19  24
HETATM   24  O   UNL     1      40.764 -15.608  -3.461  1.00  0.00    -0.355 OA
HETATM   25  C   UNL     1      39.414 -15.687  -3.902  1.00  0.00     0.210 C 
ENDBRANCH  19  24
ENDBRANCH  17  18
ENDBRANCH  14  17
ENDBRANCH   1  13
BRANCH   1  26
HETATM   26  O   UNL     1      43.646 -15.635   2.629  1.00  0.00    -0.359 OA
HETATM   27  H   UNL     1      44.139 -16.216   3.239  1.00  0.00     0.213 HD
ENDBRANCH   1  26
BRANCH   2  28
HETATM   28  C   UNL     1      42.851 -18.227   3.366  1.00  0.00     0.043 A 
HETATM   29  C   UNL     1      43.886 -18.782   4.138  1.00  0.00     0.031 A 
HETATM   30  C   UNL     1      44.550 -19.950   3.736  1.00  0.00     0.026 A 
HETATM   31  C   UNL     1      44.178 -20.591   2.560  1.00  0.00     0.034 A 
HETATM   32 CL   UNL     1      44.983 -22.032   2.077  1.00  0.00    -0.084 Cl
HETATM   33  C   UNL     1      43.154 -20.073   1.781  1.00  0.00     0.026 A 
HETATM   34  C   UNL     1      42.500 -18.901   2.182  1.00  0.00     0.031 A 
ENDBRANCH   2  28
TORSDOF 6
ENDMDL
MODEL 3
REMARK VINA RESULT:      -8.5      1.820      2.783
REMARK  6 active torsions:
REMARK  status: ('A' for Active; 'I' for Inactive)
REMARK    1  A    between atoms: O_2  and  C_3 
REMARK    2  A    between atoms: C_4  and  C_5 
REMARK    3  A    between atoms: C_5  and  N_6 
REMARK       I    between atoms: N_6  and  C_7 
REMARK    4  A    between atoms: C_7  and  C_8 
REMARK    5  A    between atoms: C_8  and  O_9 
REMARK    6  A    between atoms: N_10  and  C_11 
ROOT
HETATM    1  C   UNL     1      40.985 -15.092   1.779  1.00  0.00     0.256 C 
HETATM    2  N   UNL     1      41.093 -14.180   0.626  1.00  0.00    -0.254 N 
HETATM    3  C   UNL     1      41.865 -13.029   0.743  1.00  0.00     0.330 C 
HETATM    4  O   UNL     1      42.328 -12.383  -0.198  1.00  0.00    -0.246 OA
HETATM    5  N   UNL     1      42.160 -12.587   1.998  1.00  0.00    -0.308 N 
HETATM    6  C   UNL     1      41.687 -13.147   3.174  1.00  0.00     0.048 A 
HETATM    7  C   UNL     1      41.048 -14.376   3.115  1.00  0.00     0.034 A 
HETATM    8  C   UNL     1      41.855 -12.468   4.383  1.00  0.00     0.030 A 
HETATM    9  C   UNL     1      41.355 -13.024   5.560  1.00  0.00     0.002 A 
HETATM   10  C   UNL     1      40.708 -14.256   5.524  1.00  0.00     0.001 A 
HETATM   11  C   UNL     1      40.562 -14.934   4.311  1.00  0.00     0.015 A 
HETATM   12  H   UNL     1      42.650 -11.703   2.022  1.00  0.00     0.170 HD
ENDROOT
BRANCH   1  13
HETATM   13  C   UNL     1      42.101 -16.214   1.745  1.00  0.00     0.279 C 
HETATM   14  N   UNL     1      41.718 -17.505   2.035  1.00  0.00    -0.352 N 
HETATM   15  H   UNL     1      40.806 -17.668   2.442  1.00  0.00     0.162 HD
HETATM   16  O   UNL     1      43.256 -15.914   1.425  1.00  0.00    -0.268 OA
BRANCH  14  17
HETATM   17  C   UNL     1      42.658 -18.609   2.053  1.00  0.00     0.164 C 
BRANCH  17  18
HETATM   18  C   UNL     1      43.216 -18.934   3.422  1.00  0.00    -0.007 A 
HETATM   19  C   UNL     1      44.239 -19.902   3.530  1.00  0.00     0.076 A 
HETATM   20  C   UNL     1      44.790 -20.202   4.781  1.00  0.00     0.037 A 
HETATM   21  C   UNL     1      44.331 -19.554   5.928  1.00  0.00     0.003 A 
HETATM   22  C   UNL     1      43.324 -18.601   5.834  1.00  0.00     0.001 A 
HETATM   23  C   UNL     1      42.771 -18.291   4.591  1.00  0.00     0.011 A 
BRANCH  19  24
HETATM   24  O   UNL     1      44.643 -20.478   2.352  1.00  0.00    -0.355 OA
HETATM   25  C   UNL     1      44.387 -21.868   2.189  1.00  0.00     0.210 C 
ENDBRANCH  19  24
ENDBRANCH  17  18
ENDBRANCH  14  17
ENDBRANCH   1  13
BRANCH   1  26
HETATM   26  O   UNL     1      39.692 -15.717   1.747  1.00  0.00    -0.359 OA
HETATM   27  H   UNL     1      39.789 -16.519   2.296  1.00  0.00     0.213 HD
ENDBRANCH   1  26
BRANCH   2  28
HETATM   28  C   UNL     1      40.559 -14.560  -0.662  1.00  0.00     0.043 A 
HETATM   29  C   UNL     1      41.175 -15.515  -1.487  1.00  0.00     0.031 A 
HETATM   30  C   UNL     1      40.616 -15.885  -2.718  1.00  0.00     0.026 A 
HETATM   31  C   UNL     1      39.421 -15.314  -3.139  1.00  0.00     0.034 A 
HETATM   32 CL   UNL     1      38.728 -15.781  -4.642  1.00  0.00    -0.084 Cl
HETATM   33  C   UNL     1      38.784 -14.374  -2.342  1.00  0.00     0.026 A 
HETATM   34  C   UNL     1      39.351 -14.001  -1.117  1.00  0.00     0.031 A 
ENDBRANCH   2  28
TORSDOF 6
ENDMDL
MODEL 4
REMARK VINA RESULT:      -8.3      2.003      3.182
REMARK  6 active torsions:
REMARK  status: ('A' for Active; 'I' for Inactive)
REMARK    1  A    between atoms: O_2  and  C_3 
REMARK    2  A    between atoms: C_4  and  C_5 
REMARK    3  A    between atoms: C_5  and  N_6 
REMARK       I    between atoms: N_6  and  C_7 
REMARK    4  A    between atoms: C_7  and  C_8 
REMARK    5  A    between atoms: C_8  and  O_9 
REMARK    6  A    between atoms: N_10  and  C_11 
ROOT
HETATM    1  C   UNL     1      40.566 -14.463   2.709  1.00  0.00     0.256 C 
HETATM    2  N   UNL     1      40.940 -13.704   1.503  1.00  0.00    -0.254 N 
HETATM    3  C   UNL     1      41.809 -12.625   1.623  1.00  0.00     0.330 C 
HETATM    4  O   UNL     1      42.472 -12.138   0.706  1.00  0.00    -0.246 OA
HETATM    5  N   UNL     1      41.967 -12.073   2.858  1.00  0.00    -0.308 N 
HETATM    6  C   UNL     1      41.271 -12.447   3.997  1.00  0.00     0.048 A 
HETATM    7  C   UNL     1      40.516 -13.609   3.962  1.00  0.00     0.034 A 
HETATM    8  C   UNL     1      41.338 -11.654   5.144  1.00  0.00     0.030 A 
HETATM    9  C   UNL     1      40.616 -12.021   6.279  1.00  0.00     0.002 A 
HETATM   10  C   UNL     1      39.848 -13.182   6.265  1.00  0.00     0.001 A 
HETATM   11  C   UNL     1      39.804 -13.978   5.117  1.00  0.00     0.015 A 
HETATM   12  H   UNL     1      42.544 -11.241   2.870  1.00  0.00     0.170 HD
ENDROOT
BRANCH   1  13
HETATM   13  C   UNL     1      41.545 -15.682   2.960  1.00  0.00     0.279 C 
HETATM   14  N   UNL     1      41.011 -16.827   3.510  1.00  0.00    -0.352 N 
HETATM   15  H   UNL     1      40.083 -16.794   3.912  1.00  0.00     0.162 HD
HETATM   16  O   UNL     1      42.730 -15.591   2.622  1.00  0.00    -0.268 OA
BRANCH  14  17
HETATM   17  C   UNL     1      41.816 -17.998   3.801  1.00  0.00     0.164 C 
BRANCH  17  18
HETATM   18  C   UNL     1      42.548 -17.941   5.125  1.00  0.00    -0.007 A 
HETATM   19  C   UNL     1      43.869 -18.438   5.197  1.00  0.00     0.076 A 
HETATM   20  C   UNL     1      44.577 -18.374   6.402  1.00  0.00     0.037 A 
HETATM   21  C   UNL     1      43.984 -17.826   7.540  1.00  0.00     0.003 A 
HETATM   22  C   UNL     1      42.684 -17.335   7.482  1.00  0.00     0.001 A 
HETATM   23  C   UNL     1      41.971 -17.390   6.283  1.00  0.00     0.011 A 
BRANCH  19  24
HETATM   24  O   UNL     1      44.381 -18.943   4.028  1.00  0.00    -0.355 OA
HETATM   25  C   UNL     1      44.770 -20.312   4.030  1.00  0.00     0.210 C 
ENDBRANCH  19  24
ENDBRANCH  17  18
ENDBRANCH  14  17
ENDBRANCH   1  13
BRANCH   1  26
HETATM   26  O   UNL     1      39.230 -14.963   2.539  1.00  0.00    -0.359 OA
HETATM   27  H   UNL     1      38.910 -15.132   3.446  1.00  0.00     0.213 HD
ENDBRANCH   1  26
BRANCH   2  28
HETATM   28  C   UNL     1      40.558 -14.176   0.191  1.00  0.00     0.043 A 
HETATM   29  C   UNL     1      39.473 -13.640  -0.522  1.00  0.00     0.031 A 
HETATM   30  C   UNL     1      39.146 -14.099  -1.806  1.00  0.00     0.026 A 
HETATM   31  C   UNL     1      39.909 -15.095  -2.404  1.00  0.00     0.034 A 
HETATM   32 CL   UNL     1      39.515 -15.646  -3.985  1.00  0.00    -0.084 Cl
HETATM   33  C   UNL     1      40.991 -15.639  -1.728  1.00  0.00     0.026 A 
HETATM   34  C   UNL     1      41.309 -15.183  -0.442  1.00  0.00     0.031 A 
ENDBRANCH   2  28
TORSDOF 6
ENDMDL
MODEL 5
REMARK VINA RESULT:      -8.1      2.343      3.075
REMARK  6 active torsions:
REMARK  status: ('A' for Active; 'I' for Inactive)
REMARK    1  A    between atoms: O_2  and  C_3 
REMARK    2  A    between atoms: C_4  and  C_5 
REMARK    3  A    between atoms: C_5  and  N_6 
REMARK       I    between atoms: N_6  and  C_7 
REMARK    4  A    between atoms: C_7  and  C_8 
REMARK    5  A    between atoms: C_8  and  O_9 
REMARK    6  A    between atoms: N_10  and  C_11 
ROOT
HETATM    1  C   UNL     1      40.801 -14.094   3.342  1.00  0.00     0.256 C 
HETATM    2  N   UNL     1      41.088 -13.397   2.076  1.00  0.00    -0.254 N 
HETATM    3  C   UNL     1      41.642 -12.122   2.115  1.00  0.00     0.330 C 
HETATM    4  O   UNL     1      42.247 -11.579   1.190  1.00  0.00    -0.246 OA
HETATM    5  N   UNL     1      41.535 -11.419   3.277  1.00  0.00    -0.308 N 
HETATM    6  C   UNL     1      40.848 -11.838   4.405  1.00  0.00     0.048 A 
HETATM    7  C   UNL     1      40.415 -13.155   4.469  1.00  0.00     0.034 A 
HETATM    8  C   UNL     1      40.600 -10.938   5.443  1.00  0.00     0.030 A 
HETATM    9  C   UNL     1      39.886 -11.358   6.565  1.00  0.00     0.002 A 
HETATM   10  C   UNL     1      39.440 -12.674   6.648  1.00  0.00     0.001 A 
HETATM   11  C   UNL     1      39.710 -13.572   5.612  1.00  0.00     0.015 A 
HETATM   12  H   UNL     1      41.880 -10.470   3.222  1.00  0.00     0.170 HD
ENDROOT
BRANCH   1  13
HETATM   13  C   UNL     1      42.025 -14.981   3.812  1.00  0.00     0.279 C 
HETATM   14  N   UNL     1      41.749 -16.229   4.328  1.00  0.00    -0.352 N 
HETATM   15  H   UNL     1      40.795 -16.461   4.571  1.00  0.00     0.162 HD
HETATM   16  O   UNL     1      43.177 -14.556   3.667  1.00  0.00    -0.268 OA
BRANCH  14  17
HETATM   17  C   UNL     1      42.789 -17.119   4.807  1.00  0.00     0.164 C 
BRANCH  17  18
HETATM   18  C   UNL     1      43.167 -18.219   3.838  1.00  0.00    -0.007 A 
HETATM   19  C   UNL     1      43.998 -19.270   4.288  1.00  0.00     0.076 A 
HETATM   20  C   UNL     1      44.342 -20.312   3.420  1.00  0.00     0.037 A 
HETATM   21  C   UNL     1      43.873 -20.319   2.105  1.00  0.00     0.003 A 
HETATM   22  C   UNL     1      43.056 -19.289   1.651  1.00  0.00     0.001 A 
HETATM   23  C   UNL     1      42.703 -18.248   2.511  1.00  0.00     0.011 A 
BRANCH  19  24
HETATM   24  O   UNL     1      44.400 -19.194   5.598  1.00  0.00    -0.355 OA
HETATM   25  C   UNL     1      43.934 -20.212   6.477  1.00  0.00     0.210 C 
ENDBRANCH  19  24
ENDBRANCH  17  18
ENDBRANCH  14  17
ENDBRANCH   1  13
BRANCH   1  26
HETATM   26  O   UNL     1      39.657 -14.941   3.149  1.00  0.00    -0.359 OA
HETATM   27  H   UNL     1      40.026 -15.796   2.854  1.00  0.00     0.213 HD
ENDBRANCH   1  26
BRANCH   2  28
HETATM   28  C   UNL     1      40.967 -14.089   0.814  1.00  0.00     0.043 A 
HETATM   29  C   UNL     1      41.712 -15.240   0.505  1.00  0.00     0.031 A 
HETATM   30  C   UNL     1      41.550 -15.908  -0.717  1.00  0.00     0.026 A 
HETATM   31  C   UNL     1      40.628 -15.443  -1.647  1.00  0.00     0.034 A 
HETATM   32 CL   UNL     1      40.420 -16.272  -3.139  1.00  0.00    -0.084 Cl
HETATM   33  C   UNL     1      39.871 -14.314  -1.368  1.00  0.00     0.026 A 
HETATM   34  C   UNL     1      40.043 -13.645  -0.150  1.00  0.00     0.031 A 
ENDBRANCH   2  28
TORSDOF 6
ENDMDL
MODEL 6
REMARK VINA RESULT:      -8.1      3.292      7.461
REMARK  6 active torsions:
REMARK  status: ('A' for Active; 'I' for Inactive)
REMARK    1  A    between atoms: O_2  and  C_3 
REMARK    2  A    between atoms: C_4  and  C_5 
REMARK    3  A    between atoms: C_5  and  N_6 
REMARK       I    between atoms: N_6  and  C_7 
REMARK    4  A    between atoms: C_7  and  C_8 
REMARK    5  A    between atoms: C_8  and  O_9 
REMARK    6  A    between atoms: N_10  and  C_11 
ROOT
HETATM    1  C   UNL     1      41.856 -14.654   4.235  1.00  0.00     0.256 C 
HETATM    2  N   UNL     1      41.778 -15.816   5.137  1.00  0.00    -0.254 N 
HETATM    3  C   UNL     1      40.719 -15.908   6.033  1.00  0.00     0.330 C 
HETATM    4  O   UNL     1      40.333 -16.945   6.576  1.00  0.00    -0.246 OA
HETATM    5  N   UNL     1      40.030 -14.769   6.321  1.00  0.00    -0.308 N 
HETATM    6  C   UNL     1      40.347 -13.503   5.854  1.00  0.00     0.048 A 
HETATM    7  C   UNL     1      41.289 -13.385   4.844  1.00  0.00     0.034 A 
HETATM    8  C   UNL     1      39.723 -12.382   6.406  1.00  0.00     0.030 A 
HETATM    9  C   UNL     1      40.063 -11.110   5.949  1.00  0.00     0.002 A 
HETATM   10  C   UNL     1      41.009 -10.967   4.938  1.00  0.00     0.001 A 
HETATM   11  C   UNL     1      41.613 -12.097   4.380  1.00  0.00     0.015 A 
HETATM   12  H   UNL     1      39.328 -14.879   7.041  1.00  0.00     0.170 HD
ENDROOT
BRANCH   1  13
HETATM   13  C   UNL     1      41.124 -14.931   2.858  1.00  0.00     0.279 C 
HETATM   14  N   UNL     1      39.747 -14.899   2.849  1.00  0.00    -0.352 N 
HETATM   15  H   UNL     1      39.249 -14.896   3.729  1.00  0.00     0.162 HD
HETATM   16  O   UNL     1      41.797 -15.124   1.840  1.00  0.00    -0.268 OA
BRANCH  14  17
HETATM   17  C   UNL     1      38.971 -15.157   1.650  1.00  0.00     0.164 C 
BRANCH  17  18
HETATM   18  C   UNL     1      38.620 -13.918   0.853  1.00  0.00    -0.007 A 
HETATM   19  C   UNL     1      39.211 -13.734  -0.417  1.00  0.00     0.076 A 
HETATM   20  C   UNL     1      38.884 -12.611  -1.185  1.00  0.00     0.037 A 
HETATM   21  C   UNL     1      37.980 -11.665  -0.702  1.00  0.00     0.003 A 
HETATM   22  C   UNL     1      37.393 -11.835   0.547  1.00  0.00     0.001 A 
HETATM   23  C   UNL     1      37.709 -12.954   1.319  1.00  0.00     0.011 A 
BRANCH  19  24
HETATM   24  O   UNL     1      40.075 -14.720  -0.823  1.00  0.00    -0.355 OA
HETATM   25  C   UNL     1      41.219 -14.314  -1.564  1.00  0.00     0.210 C 
ENDBRANCH  19  24
ENDBRANCH  17  18
ENDBRANCH  14  17
ENDBRANCH   1  13
BRANCH   1  26
HETATM   26  O   UNL     1      43.239 -14.364   3.979  1.00  0.00    -0.359 OA
HETATM   27  H   UNL     1      43.718 -15.171   4.252  1.00  0.00     0.213 HD
ENDBRANCH   1  26
BRANCH   2  28
HETATM   28  C   UNL     1      42.682 -16.932   4.974  1.00  0.00     0.043 A 
HETATM   29  C   UNL     1      43.762 -17.166   5.841  1.00  0.00     0.031 A 
HETATM   30  C   UNL     1      44.604 -18.275   5.674  1.00  0.00     0.026 A 
HETATM   31  C   UNL     1      44.369 -19.178   4.644  1.00  0.00     0.034 A 
HETATM   32 CL   UNL     1      45.392 -20.547   4.451  1.00  0.00    -0.084 Cl
HETATM   33  C   UNL     1      43.304 -18.979   3.777  1.00  0.00     0.026 A 
HETATM   34  C   UNL     1      42.472 -17.865   3.942  1.00  0.00     0.031 A 
ENDBRANCH   2  28
TORSDOF 6
ENDMDL
MODEL 7
REMARK VINA RESULT:      -8.1      3.208      6.941
REMARK  6 active torsions:
REMARK  status: ('A' for Active; 'I' for Inactive)
REMARK    1  A    between atoms: O_2  and  C_3 
REMARK    2  A    between atoms: C_4  and  C_5 
REMARK    3  A    between atoms: C_5  and  N_6 
REMARK       I    between atoms: N_6  and  C_7 
REMARK    4  A    between atoms: C_7  and  C_8 
REMARK    5  A    between atoms: C_8  and  O_9 
REMARK    6  A    between atoms: N_10  and  C_11 
ROOT
HETATM    1  C   UNL     1      41.587 -14.515   3.932  1.00  0.00     0.256 C 
HETATM    2  N   UNL     1      41.611 -15.708   4.797  1.00  0.00    -0.254 N 
HETATM    3  C   UNL     1      40.758 -15.767   5.893  1.00  0.00     0.330 C 
HETATM    4  O   UNL     1      40.414 -16.797   6.475  1.00  0.00    -0.246 OA
HETATM    5  N   UNL     1      40.234 -14.596   6.353  1.00  0.00    -0.308 N 
HETATM    6  C   UNL     1      40.542 -13.336   5.866  1.00  0.00     0.048 A 
HETATM    7  C   UNL     1      41.260 -13.238   4.683  1.00  0.00     0.034 A 
HETATM    8  C   UNL     1      40.135 -12.200   6.569  1.00  0.00     0.030 A 
HETATM    9  C   UNL     1      40.470 -10.935   6.088  1.00  0.00     0.002 A 
HETATM   10  C   UNL     1      41.192 -10.814   4.904  1.00  0.00     0.001 A 
HETATM   11  C   UNL     1      41.578 -11.956   4.199  1.00  0.00     0.015 A 
HETATM   12  H   UNL     1      39.691 -14.690   7.202  1.00  0.00     0.170 HD
ENDROOT
BRANCH   1  13
HETATM   13  C   UNL     1      40.566 -14.680   2.734  1.00  0.00     0.279 C 
HETATM   14  N   UNL     1      41.077 -14.686   1.455  1.00  0.00    -0.352 N 
HETATM   15  H   UNL     1      42.035 -14.394   1.306  1.00  0.00     0.162 HD
HETATM   16  O   UNL     1      39.364 -14.839   2.976  1.00  0.00    -0.268 OA
BRANCH  14  17
HETATM   17  C   UNL     1      40.235 -14.811   0.281  1.00  0.00     0.164 C 
BRANCH  17  18
HETATM   18  C   UNL     1      40.824 -14.213  -0.980  1.00  0.00    -0.007 A 
HETATM   19  C   UNL     1      41.208 -12.854  -0.975  1.00  0.00     0.076 A 
HETATM   20  C   UNL     1      41.779 -12.283  -2.118  1.00  0.00     0.037 A 
HETATM   21  C   UNL     1      41.967 -13.048  -3.270  1.00  0.00     0.003 A 
HETATM   22  C   UNL     1      41.591 -14.387  -3.286  1.00  0.00     0.001 A 
HETATM   23  C   UNL     1      41.025 -14.967  -2.149  1.00  0.00     0.011 A 
BRANCH  19  24
HETATM   24  O   UNL     1      41.005 -12.180   0.203  1.00  0.00    -0.355 OA
HETATM   25  C   UNL     1      41.906 -11.120   0.506  1.00  0.00     0.210 C 
ENDBRANCH  19  24
ENDBRANCH  17  18
ENDBRANCH  14  17
ENDBRANCH   1  13
BRANCH   1  26
HETATM   26  O   UNL     1      42.905 -14.311   3.398  1.00  0.00    -0.359 OA
HETATM   27  H   UNL     1      42.764 -13.823   2.564  1.00  0.00     0.213 HD
ENDBRANCH   1  26
BRANCH   2  28
HETATM   28  C   UNL     1      42.372 -16.875   4.414  1.00  0.00     0.043 A 
HETATM   29  C   UNL     1      42.046 -17.661   3.296  1.00  0.00     0.031 A 
HETATM   30  C   UNL     1      42.822 -18.771   2.933  1.00  0.00     0.026 A 
HETATM   31  C   UNL     1      43.948 -19.105   3.676  1.00  0.00     0.034 A 
HETATM   32 CL   UNL     1      44.908 -20.457   3.220  1.00  0.00    -0.084 Cl
HETATM   33  C   UNL     1      44.301 -18.343   4.780  1.00  0.00     0.026 A 
HETATM   34  C   UNL     1      43.518 -17.241   5.144  1.00  0.00     0.031 A 
ENDBRANCH   2  28
TORSDOF 6
ENDMDL
MODEL 8
REMARK VINA RESULT:      -7.8      4.889      8.479
REMARK  6 active torsions:
REMARK  status: ('A' for Active; 'I' for Inactive)
REMARK    1  A    between atoms: O_2  and  C_3 
REMARK    2  A    between atoms: C_4  and  C_5 
REMARK    3  A    between atoms: C_5  and  N_6 
REMARK       I    between atoms: N_6  and  C_7 
REMARK    4  A    between atoms: C_7  and  C_8 
REMARK    5  A    between atoms: C_8  and  O_9 
REMARK    6  A    between atoms: N_10  and  C_11 
ROOT
HETATM    1  C   UNL     1      40.886 -12.578   5.103  1.00  0.00     0.256 C 
HETATM    2  N   UNL     1      41.972 -13.483   4.687  1.00  0.00    -0.254 N 
HETATM    3  C   UNL     1      42.639 -13.237   3.493  1.00  0.00     0.330 C 
HETATM    4  O   UNL     1      43.754 -13.668   3.198  1.00  0.00    -0.246 OA
HETATM    5  N   UNL     1      42.027 -12.434   2.578  1.00  0.00    -0.308 N 
HETATM    6  C   UNL     1      40.754 -11.902   2.705  1.00  0.00     0.048 A 
HETATM    7  C   UNL     1      40.118 -11.989   3.935  1.00  0.00     0.034 A 
HETATM    8  C   UNL     1      40.139 -11.299   1.606  1.00  0.00     0.030 A 
HETATM    9  C   UNL     1      38.848 -10.787   1.734  1.00  0.00     0.002 A 
HETATM   10  C   UNL     1      38.190 -10.867   2.958  1.00  0.00     0.001 A 
HETATM   11  C   UNL     1      38.822 -11.455   4.055  1.00  0.00     0.015 A 
HETATM   12  H   UNL     1      42.518 -12.360   1.697  1.00  0.00     0.170 HD
ENDROOT
BRANCH   1  13
HETATM   13  C   UNL     1      41.423 -11.396   6.009  1.00  0.00     0.279 C 
HETATM   14  N   UNL     1      41.484 -11.611   7.369  1.00  0.00    -0.352 N 
HETATM   15  H   UNL     1      41.014 -12.416   7.762  1.00  0.00     0.162 HD
HETATM   16  O   UNL     1      41.807 -10.348   5.479  1.00  0.00    -0.268 OA
BRANCH  14  17
HETATM   17  C   UNL     1      41.942 -10.594   8.297  1.00  0.00     0.164 C 
BRANCH  17  18
HETATM   18  C   UNL     1      43.134 -11.003   9.136  1.00  0.00    -0.007 A 
HETATM   19  C   UNL     1      43.191 -10.591  10.487  1.00  0.00     0.076 A 
HETATM   20  C   UNL     1      44.268 -10.977  11.291  1.00  0.00     0.037 A 
HETATM   21  C   UNL     1      45.295 -11.763  10.767  1.00  0.00     0.003 A 
HETATM   22  C   UNL     1      45.250 -12.172   9.439  1.00  0.00     0.001 A 
HETATM   23  C   UNL     1      44.176 -11.798   8.629  1.00  0.00     0.011 A 
BRANCH  19  24
HETATM   24  O   UNL     1      42.132  -9.836  10.926  1.00  0.00    -0.355 OA
HETATM   25  C   UNL     1      41.358 -10.367  11.995  1.00  0.00     0.210 C 
ENDBRANCH  19  24
ENDBRANCH  17  18
ENDBRANCH  14  17
ENDBRANCH   1  13
BRANCH   1  26
HETATM   26  O   UNL     1      39.918 -13.335   5.848  1.00  0.00    -0.359 OA
HETATM   27  H   UNL     1      39.160 -12.730   5.959  1.00  0.00     0.213 HD
ENDBRANCH   1  26
BRANCH   2  28
HETATM   28  C   UNL     1      42.460 -14.503   5.587  1.00  0.00     0.043 A 
HETATM   29  C   UNL     1      43.640 -14.353   6.335  1.00  0.00     0.031 A 
HETATM   30  C   UNL     1      44.073 -15.348   7.223  1.00  0.00     0.026 A 
HETATM   31  C   UNL     1      43.322 -16.506   7.389  1.00  0.00     0.034 A 
HETATM   32 CL   UNL     1      43.846 -17.718   8.490  1.00  0.00    -0.084 Cl
HETATM   33  C   UNL     1      42.147 -16.680   6.671  1.00  0.00     0.026 A 
HETATM   34  C   UNL     1      41.725 -15.687   5.779  1.00  0.00     0.031 A 
ENDBRANCH   2  28
TORSDOF 6
ENDMDL
MODEL 9
REMARK VINA RESULT:      -7.6      2.180      3.280
REMARK  6 active torsions:
REMARK  status: ('A' for Active; 'I' for Inactive)
REMARK    1  A    between atoms: O_2  and  C_3 
REMARK    2  A    between atoms: C_4  and  C_5 
REMARK    3  A    between atoms: C_5  and  N_6 
REMARK       I    between atoms: N_6  and  C_7 
REMARK    4  A    between atoms: C_7  and  C_8 
REMARK    5  A    between atoms: C_8  and  O_9 
REMARK    6  A    between atoms: N_10  and  C_11 
ROOT
HETATM    1  C   UNL     1      39.771 -13.392   2.139  1.00  0.00     0.256 C 
HETATM    2  N   UNL     1      40.467 -12.690   1.046  1.00  0.00    -0.254 N 
HETATM    3  C   UNL     1      41.838 -12.478   1.141  1.00  0.00     0.330 C 
HETATM    4  O   UNL     1      42.590 -12.242   0.195  1.00  0.00    -0.246 OA
HETATM    5  N   UNL     1      42.408 -12.562   2.375  1.00  0.00    -0.308 N 
HETATM    6  C   UNL     1      41.722 -12.765   3.562  1.00  0.00     0.048 A 
HETATM    7  C   UNL     1      40.386 -13.135   3.501  1.00  0.00     0.034 A 
HETATM    8  C   UNL     1      42.377 -12.591   4.783  1.00  0.00     0.030 A 
HETATM    9  C   UNL     1      41.674 -12.772   5.973  1.00  0.00     0.002 A 
HETATM   10  C   UNL     1      40.332 -13.140   5.936  1.00  0.00     0.001 A 
HETATM   11  C   UNL     1      39.692 -13.330   4.709  1.00  0.00     0.015 A 
HETATM   12  H   UNL     1      43.389 -12.315   2.397  1.00  0.00     0.170 HD
ENDROOT
BRANCH   1  13
HETATM   13  C   UNL     1      39.714 -14.954   1.889  1.00  0.00     0.279 C 
HETATM   14  N   UNL     1      40.911 -15.632   1.810  1.00  0.00    -0.352 N 
HETATM   15  H   UNL     1      41.770 -15.106   1.716  1.00  0.00     0.162 HD
HETATM   16  O   UNL     1      38.618 -15.520   1.817  1.00  0.00    -0.268 OA
BRANCH  14  17
HETATM   17  C   UNL     1      40.981 -17.060   1.565  1.00  0.00     0.164 C 
BRANCH  17  18
HETATM   18  C   UNL     1      42.087 -17.771   2.316  1.00  0.00    -0.007 A 
HETATM   19  C   UNL     1      42.109 -17.698   3.727  1.00  0.00     0.076 A 
HETATM   20  C   UNL     1      43.105 -18.367   4.447  1.00  0.00     0.037 A 
HETATM   21  C   UNL     1      44.085 -19.103   3.780  1.00  0.00     0.003 A 
HETATM   22  C   UNL     1      44.073 -19.181   2.392  1.00  0.00     0.001 A 
HETATM   23  C   UNL     1      43.081 -18.522   1.664  1.00  0.00     0.011 A 
BRANCH  19  24
HETATM   24  O   UNL     1      41.100 -16.968   4.304  1.00  0.00    -0.355 OA
HETATM   25  C   UNL     1      41.116 -16.849   5.722  1.00  0.00     0.210 C 
ENDBRANCH  19  24
ENDBRANCH  17  18
ENDBRANCH  14  17
ENDBRANCH   1  13
BRANCH   1  26
HETATM   26  O   UNL     1      38.431 -12.884   2.228  1.00  0.00    -0.359 OA
HETATM   27  H   UNL     1      38.536 -11.938   2.448  1.00  0.00     0.213 HD
ENDBRANCH   1  26
BRANCH   2  28
HETATM   28  C   UNL     1      39.777 -12.388  -0.187  1.00  0.00     0.043 A 
HETATM   29  C   UNL     1      39.365 -11.088  -0.527  1.00  0.00     0.031 A 
HETATM   30  C   UNL     1      38.724 -10.821  -1.745  1.00  0.00     0.026 A 
HETATM   31  C   UNL     1      38.497 -11.850  -2.651  1.00  0.00     0.034 A 
HETATM   32 CL   UNL     1      37.724 -11.518  -4.152  1.00  0.00    -0.084 Cl
HETATM   33  C   UNL     1      38.899 -13.142  -2.349  1.00  0.00     0.026 A 
HETATM   34  C   UNL     1      39.531 -13.406  -1.127  1.00  0.00     0.031 A 
ENDBRANCH   2  28
TORSDOF 6
ENDMDL
MODEL 10
REMARK VINA RESULT:      -7.4      2.604      3.959
REMARK  6 active torsions:
REMARK  status: ('A' for Active; 'I' for Inactive)
REMARK    1  A    between atoms: O_2  and  C_3 
REMARK    2  A    between atoms: C_4  and  C_5 
REMARK    3  A    between atoms: C_5  and  N_6 
REMARK       I    between atoms: N_6  and  C_7 
REMARK    4  A    between atoms: C_7  and  C_8 
REMARK    5  A    between atoms: C_8  and  O_9 
REMARK    6  A    between atoms: N_10  and  C_11 
ROOT
HETATM    1  C   UNL     1      39.875 -13.177   2.167  1.00  0.00     0.256 C 
HETATM    2  N   UNL     1      40.585 -12.873   0.912  1.00  0.00    -0.254 N 
HETATM    3  C   UNL     1      41.659 -11.990   0.939  1.00  0.00     0.330 C 
HETATM    4  O   UNL     1      42.541 -11.914   0.083  1.00  0.00    -0.246 OA
HETATM    5  N   UNL     1      41.766 -11.153   2.009  1.00  0.00    -0.308 N 
HETATM    6  C   UNL     1      40.846 -11.053   3.041  1.00  0.00     0.048 A 
HETATM    7  C   UNL     1      39.850 -12.012   3.138  1.00  0.00     0.034 A 
HETATM    8  C   UNL     1      40.934  -9.997   3.950  1.00  0.00     0.030 A 
HETATM    9  C   UNL     1      39.992  -9.887   4.972  1.00  0.00     0.002 A 
HETATM   10  C   UNL     1      38.981 -10.837   5.086  1.00  0.00     0.001 A 
HETATM   11  C   UNL     1      38.914 -11.900   4.182  1.00  0.00     0.015 A 
HETATM   12  H   UNL     1      42.515 -10.477   1.934  1.00  0.00     0.170 HD
ENDROOT
BRANCH   1  13
HETATM   13  C   UNL     1      40.491 -14.440   2.897  1.00  0.00     0.279 C 
HETATM   14  N   UNL     1      39.944 -15.672   2.613  1.00  0.00    -0.352 N 
HETATM   15  H   UNL     1      39.064 -15.717   2.116  1.00  0.00     0.162 HD
HETATM   16  O   UNL     1      41.456 -14.293   3.656  1.00  0.00    -0.268 OA
BRANCH  14  17
HETATM   17  C   UNL     1      40.415 -16.894   3.237  1.00  0.00     0.164 C 
BRANCH  17  18
HETATM   18  C   UNL     1      41.743 -17.395   2.708  1.00  0.00    -0.007 A 
HETATM   19  C   UNL     1      42.587 -18.131   3.570  1.00  0.00     0.076 A 
HETATM   20  C   UNL     1      43.807 -18.627   3.100  1.00  0.00     0.037 A 
HETATM   21  C   UNL     1      44.202 -18.396   1.781  1.00  0.00     0.003 A 
HETATM   22  C   UNL     1      43.380 -17.673   0.924  1.00  0.00     0.001 A 
HETATM   23  C   UNL     1      42.158 -17.177   1.383  1.00  0.00     0.011 A 
BRANCH  19  24
HETATM   24  O   UNL     1      42.115 -18.327   4.844  1.00  0.00    -0.355 OA
HETATM   25  C   UNL     1      43.050 -18.197   5.908  1.00  0.00     0.210 C 
ENDBRANCH  19  24
ENDBRANCH  17  18
ENDBRANCH  14  17
ENDBRANCH   1  13
BRANCH   1  26
HETATM   26  O   UNL     1      38.497 -13.442   1.859  1.00  0.00    -0.359 OA
HETATM   27  H   UNL     1      38.512 -14.259   1.325  1.00  0.00     0.213 HD
ENDBRANCH   1  26
BRANCH   2  28
HETATM   28  C   UNL     1      40.293 -13.613  -0.294  1.00  0.00     0.043 A 
HETATM   29  C   UNL     1      39.263 -13.249  -1.177  1.00  0.00     0.031 A 
HETATM   30  C   UNL     1      39.023 -13.970  -2.355  1.00  0.00     0.026 A 
HETATM   31  C   UNL     1      39.822 -15.061  -2.677  1.00  0.00     0.034 A 
HETATM   32 CL   UNL     1      39.537 -15.935  -4.131  1.00  0.00    -0.084 Cl
HETATM   33  C   UNL     1      40.853 -15.440  -1.830  1.00  0.00     0.026 A 
HETATM   34  C   UNL     1      41.082 -14.722  -0.650  1.00  0.00     0.031 A 
ENDBRANCH   2  28
TORSDOF 6
ENDMDL
