MODEL 1
REMARK VINA RESULT:      -9.6      0.000      0.000
REMARK  8 active torsions:
REMARK  status: ('A' for Active; 'I' for Inactive)
REMARK    1  A    between atoms: C_6  and  N_7 
REMARK       I    between atoms: N_7  and  C_8 
REMARK    2  A    between atoms: C_8  and  C_9 
REMARK    3  A    between atoms: C_9  and  S_10 
REMARK    4  A    between atoms: S_10  and  C_11 
REMARK    5  A    between atoms: N_12  and  C_13 
REMARK    6  A    between atoms: C_13  and  C_14 
REMARK    7  A    between atoms: C_14  and  C_15 
REMARK       I    between atoms: C_15  and  N_16 
REMARK    8  A    between atoms: N_16  and  C_17 
ROOT
HETATM    1  C   UNL     1      42.572 -16.058   4.339  1.00  0.00     0.172 A 
HETATM    2  N   UNL     1      43.048 -16.607   5.516  1.00  0.00    -0.292 N 
HETATM    3  C   UNL     1      43.711 -17.836   5.490  1.00  0.00     0.262 A 
HETATM    4  O   UNL     1      44.259 -18.340   6.468  1.00  0.00    -0.267 OA
HETATM    5  C   UNL     1      43.761 -18.541   4.202  1.00  0.00     0.061 A 
HETATM    6  C   UNL     1      43.220 -17.896   3.095  1.00  0.00     0.075 A 
HETATM    7  C   UNL     1      44.311 -19.824   4.100  1.00  0.00     0.019 A 
HETATM    8  C   UNL     1      44.304 -20.479   2.871  1.00  0.00     0.001 A 
HETATM    9  C   UNL     1      43.743 -19.856   1.758  1.00  0.00     0.002 A 
HETATM   10  C   UNL     1      43.201 -18.572   1.873  1.00  0.00     0.032 A 
HETATM   11  N   UNL     1      42.676 -16.608   3.173  1.00  0.00    -0.224 NA
ENDROOT
BRANCH   1  12
HETATM   12  S   UNL     1      41.766 -14.509   4.370  1.00  0.00    -0.082 SA
BRANCH  12  13
HETATM   13  C   UNL     1      42.840 -13.594   3.249  1.00  0.00     0.185 C 
BRANCH  13  14
HETATM   14  C   UNL     1      42.196 -13.295   1.908  1.00  0.00     0.231 C 
HETATM   15  N   UNL     1      41.174 -14.165   1.569  1.00  0.00    -0.326 N 
HETATM   16  H   UNL     1      40.715 -14.651   2.340  1.00  0.00     0.169 HD
HETATM   17  O   UNL     1      42.659 -12.417   1.183  1.00  0.00    -0.272 OA
BRANCH  15  18
HETATM   18  C   UNL     1      40.665 -14.416   0.277  1.00  0.00     0.036 A 
HETATM   19  C   UNL     1      39.596 -13.722  -0.289  1.00  0.00     0.053 A 
HETATM   20  C   UNL     1      39.209 -13.970  -1.613  1.00  0.00     0.042 A 
HETATM   21  C   UNL     1      39.878 -14.923  -2.394  1.00  0.00    -0.040 A 
HETATM   22 CL   UNL     1      37.899 -13.041  -2.258  1.00  0.00    -0.084 Cl
HETATM   23  C   UNL     1      39.516 -15.176  -3.830  1.00  0.00     0.050 C 
HETATM   24  C   UNL     1      40.944 -15.623  -1.816  1.00  0.00     0.011 A 
HETATM   25  C   UNL     1      41.330 -15.372  -0.496  1.00  0.00     0.030 A 
ENDBRANCH  15  18
ENDBRANCH  13  14
ENDBRANCH  12  13
ENDBRANCH   1  12
BRANCH   2  26
HETATM   26  C   UNL     1      42.963 -15.969   6.842  1.00  0.00     0.144 C 
BRANCH  26  27
HETATM   27  C   UNL     1      44.340 -15.562   7.373  1.00  0.00     0.123 C 
BRANCH  27  28
HETATM   28  C   UNL     1      44.545 -14.075   7.196  1.00  0.00     0.219 C 
HETATM   29  N   UNL     1      44.377 -13.351   8.356  1.00  0.00    -0.356 N 
HETATM   30  H   UNL     1      44.235 -13.842   9.229  1.00  0.00     0.162 HD
HETATM   31  O   UNL     1      44.858 -13.574   6.120  1.00  0.00    -0.274 OA
BRANCH  29  32
HETATM   32  C   UNL     1      44.505 -11.898   8.387  1.00  0.00     0.084 C 
HETATM   33  C   UNL     1      43.224 -11.247   8.926  1.00  0.00     0.025 C 
HETATM   34  C   UNL     1      43.059 -11.410  10.437  1.00  0.00     0.002 C 
HETATM   35  C   UNL     1      44.296 -10.937  11.192  1.00  0.00     0.000 C 
HETATM   36  C   UNL     1      45.558 -11.635  10.694  1.00  0.00     0.002 C 
HETATM   37  C   UNL     1      45.738 -11.459   9.188  1.00  0.00     0.025 C 
ENDBRANCH  29  32
ENDBRANCH  27  28
ENDBRANCH  26  27
ENDBRANCH   2  26
TORSDOF 8
ENDMDL
MODEL 2
REMARK VINA RESULT:      -9.4      3.107      3.784
REMARK  8 active torsions:
REMARK  status: ('A' for Active; 'I' for Inactive)
REMARK    1  A    between atoms: C_6  and  N_7 
REMARK       I    between atoms: N_7  and  C_8 
REMARK    2  A    between atoms: C_8  and  C_9 
REMARK    3  A    between atoms: C_9  and  S_10 
REMARK    4  A    between atoms: S_10  and  C_11 
REMARK    5  A    between atoms: N_12  and  C_13 
REMARK    6  A    between atoms: C_13  and  C_14 
REMARK    7  A    between atoms: C_14  and  C_15 
REMARK       I    between atoms: C_15  and  N_16 
REMARK    8  A    between atoms: N_16  and  C_17 
ROOT
HETATM    1  C   UNL     1      43.789 -17.784   3.842  1.00  0.00     0.172 A 
HETATM    2  N   UNL     1      43.926 -17.858   5.216  1.00  0.00    -0.292 N 
HETATM    3  C   UNL     1      44.313 -19.062   5.812  1.00  0.00     0.262 A 
HETATM    4  O   UNL     1      44.564 -19.186   7.008  1.00  0.00    -0.267 OA
HETATM    5  C   UNL     1      44.440 -20.231   4.931  1.00  0.00     0.061 A 
HETATM    6  C   UNL     1      44.248 -20.034   3.568  1.00  0.00     0.075 A 
HETATM    7  C   UNL     1      44.721 -21.500   5.450  1.00  0.00     0.019 A 
HETATM    8  C   UNL     1      44.793 -22.594   4.590  1.00  0.00     0.001 A 
HETATM    9  C   UNL     1      44.578 -22.416   3.225  1.00  0.00     0.002 A 
HETATM   10  C   UNL     1      44.303 -21.141   2.719  1.00  0.00     0.032 A 
HETATM   11  N   UNL     1      43.979 -18.770   3.027  1.00  0.00    -0.224 NA
ENDROOT
BRANCH   1  12
HETATM   12  S   UNL     1      43.330 -16.272   3.099  1.00  0.00    -0.082 SA
BRANCH  12  13
HETATM   13  C   UNL     1      43.472 -16.739   1.364  1.00  0.00     0.185 C 
BRANCH  13  14
HETATM   14  C   UNL     1      42.151 -16.697   0.618  1.00  0.00     0.231 C 
HETATM   15  N   UNL     1      42.096 -15.730  -0.370  1.00  0.00    -0.326 N 
HETATM   16  H   UNL     1      42.989 -15.414  -0.749  1.00  0.00     0.169 HD
HETATM   17  O   UNL     1      41.215 -17.404   0.982  1.00  0.00    -0.272 OA
BRANCH  15  18
HETATM   18  C   UNL     1      40.936 -15.169  -0.946  1.00  0.00     0.036 A 
HETATM   19  C   UNL     1      40.008 -14.401  -0.241  1.00  0.00     0.053 A 
HETATM   20  C   UNL     1      38.929 -13.802  -0.907  1.00  0.00     0.042 A 
HETATM   21  C   UNL     1      38.753 -13.967  -2.288  1.00  0.00    -0.040 A 
HETATM   22 CL   UNL     1      37.843 -12.833   0.027  1.00  0.00    -0.084 Cl
HETATM   23  C   UNL     1      37.633 -13.300  -3.035  1.00  0.00     0.050 C 
HETATM   24  C   UNL     1      39.682 -14.747  -2.987  1.00  0.00     0.011 A 
HETATM   25  C   UNL     1      40.759 -15.340  -2.321  1.00  0.00     0.030 A 
ENDBRANCH  15  18
ENDBRANCH  13  14
ENDBRANCH  12  13
ENDBRANCH   1  12
BRANCH   2  26
HETATM   26  C   UNL     1      43.744 -16.730   6.148  1.00  0.00     0.144 C 
BRANCH  26  27
HETATM   27  C   UNL     1      42.477 -16.881   6.993  1.00  0.00     0.123 C 
BRANCH  27  28
HETATM   28  C   UNL     1      41.271 -16.422   6.206  1.00  0.00     0.219 C 
HETATM   29  N   UNL     1      41.091 -15.056   6.214  1.00  0.00    -0.356 N 
HETATM   30  H   UNL     1      41.797 -14.468   6.638  1.00  0.00     0.162 HD
HETATM   31  O   UNL     1      40.542 -17.201   5.598  1.00  0.00    -0.274 OA
BRANCH  29  32
HETATM   32  C   UNL     1      39.968 -14.419   5.535  1.00  0.00     0.084 C 
HETATM   33  C   UNL     1      39.582 -13.106   6.230  1.00  0.00     0.025 C 
HETATM   34  C   UNL     1      40.575 -11.973   5.964  1.00  0.00     0.002 C 
HETATM   35  C   UNL     1      40.815 -11.775   4.472  1.00  0.00     0.000 C 
HETATM   36  C   UNL     1      41.260 -13.070   3.799  1.00  0.00     0.002 C 
HETATM   37  C   UNL     1      40.263 -14.200   4.045  1.00  0.00     0.025 C 
ENDBRANCH  29  32
ENDBRANCH  27  28
ENDBRANCH  26  27
ENDBRANCH   2  26
TORSDOF 8
ENDMDL
MODEL 3
REMARK VINA RESULT:      -9.3      1.562      1.883
REMARK  8 active torsions:
REMARK  status: ('A' for Active; 'I' for Inactive)
REMARK    1  A    between atoms: C_6  and  N_7 
REMARK       I    between atoms: N_7  and  C_8 
REMARK    2  A    between atoms: C_8  and  C_9 
REMARK    3  A    between atoms: C_9  and  S_10 
REMARK    4  A    between atoms: S_10  and  C_11 
REMARK    5  A    between atoms: N_12  and  C_13 
REMARK    6  A    between atoms: C_13  and  C_14 
REMARK    7  A    between atoms: C_14  and  C_15 
REMARK       I    between atoms: C_15  and  N_16 
REMARK    8  A    between atoms: N_16  and  C_17 
ROOT
HETATM    1  C   UNL     1      43.410 -17.329   4.284  1.00  0.00     0.172 A 
HETATM    2  N   UNL     1      43.287 -17.407   5.660  1.00  0.00    -0.292 N 
HETATM    3  C   UNL     1      43.661 -18.577   6.326  1.00  0.00     0.262 A 
HETATM    4  O   UNL     1      43.687 -18.692   7.549  1.00  0.00    -0.267 OA
HETATM    5  C   UNL     1      44.062 -19.719   5.493  1.00  0.00     0.061 A 
HETATM    6  C   UNL     1      44.118 -19.524   4.117  1.00  0.00     0.075 A 
HETATM    7  C   UNL     1      44.352 -20.964   6.064  1.00  0.00     0.019 A 
HETATM    8  C   UNL     1      44.689 -22.036   5.241  1.00  0.00     0.001 A 
HETATM    9  C   UNL     1      44.725 -21.862   3.859  1.00  0.00     0.002 A 
HETATM   10  C   UNL     1      44.437 -20.612   3.302  1.00  0.00     0.032 A 
HETATM   11  N   UNL     1      43.844 -18.284   3.527  1.00  0.00    -0.224 NA
ENDROOT
BRANCH   1  12
HETATM   12  S   UNL     1      42.967 -15.857   3.458  1.00  0.00    -0.082 SA
BRANCH  12  13
HETATM   13  C   UNL     1      43.347 -16.342   1.764  1.00  0.00     0.185 C 
BRANCH  13  14
HETATM   14  C   UNL     1      42.117 -16.474   0.885  1.00  0.00     0.231 C 
HETATM   15  N   UNL     1      42.116 -15.627  -0.209  1.00  0.00    -0.326 N 
HETATM   16  H   UNL     1      43.026 -15.293  -0.527  1.00  0.00     0.169 HD
HETATM   17  O   UNL     1      41.189 -17.202   1.229  1.00  0.00    -0.272 OA
BRANCH  15  18
HETATM   18  C   UNL     1      40.997 -15.216  -0.964  1.00  0.00     0.036 A 
HETATM   19  C   UNL     1      40.024 -14.330  -0.498  1.00  0.00     0.053 A 
HETATM   20  C   UNL     1      38.991 -13.900  -1.343  1.00  0.00     0.042 A 
HETATM   21  C   UNL     1      38.907 -14.353  -2.667  1.00  0.00    -0.040 A 
HETATM   22 CL   UNL     1      37.845 -12.772  -0.706  1.00  0.00    -0.084 Cl
HETATM   23  C   UNL     1      37.839 -13.873  -3.609  1.00  0.00     0.050 C 
HETATM   24  C   UNL     1      39.880 -15.249  -3.125  1.00  0.00     0.011 A 
HETATM   25  C   UNL     1      40.911 -15.674  -2.282  1.00  0.00     0.030 A 
ENDBRANCH  15  18
ENDBRANCH  13  14
ENDBRANCH  12  13
ENDBRANCH   1  12
BRANCH   2  26
HETATM   26  C   UNL     1      42.827 -16.311   6.532  1.00  0.00     0.144 C 
BRANCH  26  27
HETATM   27  C   UNL     1      43.939 -15.805   7.454  1.00  0.00     0.123 C 
BRANCH  27  28
HETATM   28  C   UNL     1      44.219 -14.346   7.177  1.00  0.00     0.219 C 
HETATM   29  N   UNL     1      44.304 -13.573   8.314  1.00  0.00    -0.356 N 
HETATM   30  H   UNL     1      44.276 -14.022   9.221  1.00  0.00     0.162 HD
HETATM   31  O   UNL     1      44.381 -13.908   6.042  1.00  0.00    -0.274 OA
BRANCH  29  32
HETATM   32  C   UNL     1      44.541 -12.134   8.257  1.00  0.00     0.084 C 
HETATM   33  C   UNL     1      43.317 -11.357   8.762  1.00  0.00     0.025 C 
HETATM   34  C   UNL     1      43.154 -11.417  10.281  1.00  0.00     0.002 C 
HETATM   35  C   UNL     1      44.430 -10.994  11.000  1.00  0.00     0.000 C 
HETATM   36  C   UNL     1      45.631 -11.814  10.539  1.00  0.00     0.002 C 
HETATM   37  C   UNL     1      45.810 -11.743   9.024  1.00  0.00     0.025 C 
ENDBRANCH  29  32
ENDBRANCH  27  28
ENDBRANCH  26  27
ENDBRANCH   2  26
TORSDOF 8
ENDMDL
MODEL 4
REMARK VINA RESULT:      -9.3      3.578      8.340
REMARK  8 active torsions:
REMARK  status: ('A' for Active; 'I' for Inactive)
REMARK    1  A    between atoms: C_6  and  N_7 
REMARK       I    between atoms: N_7  and  C_8 
REMARK    2  A    between atoms: C_8  and  C_9 
REMARK    3  A    between atoms: C_9  and  S_10 
REMARK    4  A    between atoms: S_10  and  C_11 
REMARK    5  A    between atoms: N_12  and  C_13 
REMARK    6  A    between atoms: C_13  and  C_14 
REMARK    7  A    between atoms: C_14  and  C_15 
REMARK       I    between atoms: C_15  and  N_16 
REMARK    8  A    between atoms: N_16  and  C_17 
ROOT
HETATM    1  C   UNL     1      41.665 -16.008   3.078  1.00  0.00     0.172 A 
HETATM    2  N   UNL     1      42.400 -14.837   3.079  1.00  0.00    -0.292 N 
HETATM    3  C   UNL     1      43.198 -14.519   4.181  1.00  0.00     0.262 A 
HETATM    4  O   UNL     1      43.964 -13.559   4.219  1.00  0.00    -0.267 OA
HETATM    5  C   UNL     1      43.114 -15.412   5.345  1.00  0.00     0.061 A 
HETATM    6  C   UNL     1      42.314 -16.544   5.232  1.00  0.00     0.075 A 
HETATM    7  C   UNL     1      43.794 -15.118   6.532  1.00  0.00     0.019 A 
HETATM    8  C   UNL     1      43.659 -15.964   7.630  1.00  0.00     0.001 A 
HETATM    9  C   UNL     1      42.841 -17.089   7.539  1.00  0.00     0.002 A 
HETATM   10  C   UNL     1      42.170 -17.373   6.345  1.00  0.00     0.032 A 
HETATM   11  N   UNL     1      41.635 -16.862   4.049  1.00  0.00    -0.224 NA
ENDROOT
BRANCH   1  12
HETATM   12  S   UNL     1      40.689 -16.416   1.689  1.00  0.00    -0.082 SA
BRANCH  12  13
HETATM   13  C   UNL     1      41.996 -16.704   0.482  1.00  0.00     0.185 C 
BRANCH  13  14
HETATM   14  C   UNL     1      43.141 -17.542   1.023  1.00  0.00     0.231 C 
HETATM   15  N   UNL     1      42.759 -18.798   1.458  1.00  0.00    -0.326 N 
HETATM   16  H   UNL     1      41.898 -19.176   1.062  1.00  0.00     0.169 HD
HETATM   17  O   UNL     1      44.260 -17.050   1.144  1.00  0.00    -0.272 OA
BRANCH  15  18
HETATM   18  C   UNL     1      43.458 -19.636   2.353  1.00  0.00     0.036 A 
HETATM   19  C   UNL     1      43.809 -19.269   3.653  1.00  0.00     0.053 A 
HETATM   20  C   UNL     1      44.423 -20.193   4.511  1.00  0.00     0.042 A 
HETATM   21  C   UNL     1      44.706 -21.497   4.083  1.00  0.00    -0.040 A 
HETATM   22 CL   UNL     1      44.793 -19.676   6.120  1.00  0.00    -0.084 Cl
HETATM   23  C   UNL     1      45.320 -22.522   4.995  1.00  0.00     0.050 C 
HETATM   24  C   UNL     1      44.360 -21.856   2.775  1.00  0.00     0.011 A 
HETATM   25  C   UNL     1      43.745 -20.934   1.922  1.00  0.00     0.030 A 
ENDBRANCH  15  18
ENDBRANCH  13  14
ENDBRANCH  12  13
ENDBRANCH   1  12
BRANCH   2  26
HETATM   26  C   UNL     1      42.465 -13.877   1.962  1.00  0.00     0.144 C 
BRANCH  26  27
HETATM   27  C   UNL     1      41.305 -12.879   1.994  1.00  0.00     0.123 C 
BRANCH  27  28
HETATM   28  C   UNL     1      41.102 -12.276   0.623  1.00  0.00     0.219 C 
HETATM   29  N   UNL     1      41.091 -13.205  -0.394  1.00  0.00    -0.356 N 
HETATM   30  H   UNL     1      41.116 -14.191  -0.164  1.00  0.00     0.162 HD
HETATM   31  O   UNL     1      40.937 -11.073   0.448  1.00  0.00    -0.274 OA
BRANCH  29  32
HETATM   32  C   UNL     1      40.935 -12.820  -1.793  1.00  0.00     0.084 C 
HETATM   33  C   UNL     1      41.793 -13.709  -2.704  1.00  0.00     0.025 C 
HETATM   34  C   UNL     1      41.223 -15.117  -2.877  1.00  0.00     0.002 C 
HETATM   35  C   UNL     1      39.768 -15.083  -3.327  1.00  0.00     0.000 C 
HETATM   36  C   UNL     1      38.908 -14.250  -2.381  1.00  0.00     0.002 C 
HETATM   37  C   UNL     1      39.461 -12.836  -2.219  1.00  0.00     0.025 C 
ENDBRANCH  29  32
ENDBRANCH  27  28
ENDBRANCH  26  27
ENDBRANCH   2  26
TORSDOF 8
ENDMDL
MODEL 5
REMARK VINA RESULT:      -9.3      3.188      4.174
REMARK  8 active torsions:
REMARK  status: ('A' for Active; 'I' for Inactive)
REMARK    1  A    between atoms: C_6  and  N_7 
REMARK       I    between atoms: N_7  and  C_8 
REMARK    2  A    between atoms: C_8  and  C_9 
REMARK    3  A    between atoms: C_9  and  S_10 
REMARK    4  A    between atoms: S_10  and  C_11 
REMARK    5  A    between atoms: N_12  and  C_13 
REMARK    6  A    between atoms: C_13  and  C_14 
REMARK    7  A    between atoms: C_14  and  C_15 
REMARK       I    between atoms: C_15  and  N_16 
REMARK    8  A    between atoms: N_16  and  C_17 
ROOT
HETATM    1  C   UNL     1      42.128 -17.262   2.971  1.00  0.00     0.172 A 
HETATM    2  N   UNL     1      42.623 -17.125   4.255  1.00  0.00    -0.292 N 
HETATM    3  C   UNL     1      43.524 -18.068   4.756  1.00  0.00     0.262 A 
HETATM    4  O   UNL     1      44.094 -17.963   5.840  1.00  0.00    -0.267 OA
HETATM    5  C   UNL     1      43.806 -19.236   3.910  1.00  0.00     0.061 A 
HETATM    6  C   UNL     1      43.223 -19.273   2.649  1.00  0.00     0.075 A 
HETATM    7  C   UNL     1      44.613 -20.283   4.370  1.00  0.00     0.019 A 
HETATM    8  C   UNL     1      44.826 -21.395   3.558  1.00  0.00     0.001 A 
HETATM    9  C   UNL     1      44.227 -21.457   2.301  1.00  0.00     0.002 A 
HETATM   10  C   UNL     1      43.427 -20.401   1.852  1.00  0.00     0.032 A 
HETATM   11  N   UNL     1      42.423 -18.230   2.165  1.00  0.00    -0.224 NA
ENDROOT
BRANCH   1  12
HETATM   12  S   UNL     1      41.022 -16.068   2.338  1.00  0.00    -0.082 SA
BRANCH  12  13
HETATM   13  C   UNL     1      41.351 -16.264   0.577  1.00  0.00     0.185 C 
BRANCH  13  14
HETATM   14  C   UNL     1      40.941 -15.059  -0.250  1.00  0.00     0.231 C 
HETATM   15  N   UNL     1      41.834 -14.740  -1.258  1.00  0.00    -0.326 N 
HETATM   16  H   UNL     1      42.438 -15.494  -1.587  1.00  0.00     0.169 HD
HETATM   17  O   UNL     1      39.955 -14.399   0.068  1.00  0.00    -0.272 OA
BRANCH  15  18
HETATM   18  C   UNL     1      41.967 -13.498  -1.915  1.00  0.00     0.036 A 
HETATM   19  C   UNL     1      42.612 -12.390  -1.366  1.00  0.00     0.053 A 
HETATM   20  C   UNL     1      42.781 -11.220  -2.119  1.00  0.00     0.042 A 
HETATM   21  C   UNL     1      42.301 -11.134  -3.434  1.00  0.00    -0.040 A 
HETATM   22 CL   UNL     1      43.626  -9.902  -1.384  1.00  0.00    -0.084 Cl
HETATM   23  C   UNL     1      42.509  -9.910  -4.281  1.00  0.00     0.050 C 
HETATM   24  C   UNL     1      41.646 -12.246  -3.975  1.00  0.00     0.011 A 
HETATM   25  C   UNL     1      41.481 -13.412  -3.223  1.00  0.00     0.030 A 
ENDBRANCH  15  18
ENDBRANCH  13  14
ENDBRANCH  12  13
ENDBRANCH   1  12
BRANCH   2  26
HETATM   26  C   UNL     1      42.318 -16.006   5.165  1.00  0.00     0.144 C 
BRANCH  26  27
HETATM   27  C   UNL     1      43.482 -15.017   5.270  1.00  0.00     0.123 C 
BRANCH  27  28
HETATM   28  C   UNL     1      43.237 -13.830   4.367  1.00  0.00     0.219 C 
HETATM   29  N   UNL     1      42.137 -13.081   4.722  1.00  0.00    -0.356 N 
HETATM   30  H   UNL     1      41.646 -13.300   5.580  1.00  0.00     0.162 HD
HETATM   31  O   UNL     1      43.972 -13.555   3.423  1.00  0.00    -0.274 OA
BRANCH  29  32
HETATM   32  C   UNL     1      41.717 -11.911   3.959  1.00  0.00     0.084 C 
HETATM   33  C   UNL     1      40.751 -12.308   2.835  1.00  0.00     0.025 C 
HETATM   34  C   UNL     1      39.352 -12.659   3.344  1.00  0.00     0.002 C 
HETATM   35  C   UNL     1      38.778 -11.551   4.219  1.00  0.00     0.000 C 
HETATM   36  C   UNL     1      39.716 -11.205   5.371  1.00  0.00     0.002 C 
HETATM   37  C   UNL     1      41.110 -10.835   4.869  1.00  0.00     0.025 C 
ENDBRANCH  29  32
ENDBRANCH  27  28
ENDBRANCH  26  27
ENDBRANCH   2  26
TORSDOF 8
ENDMDL
MODEL 6
REMARK VINA RESULT:      -9.2      2.569      3.613
REMARK  8 active torsions:
REMARK  status: ('A' for Active; 'I' for Inactive)
REMARK    1  A    between atoms: C_6  and  N_7 
REMARK       I    between atoms: N_7  and  C_8 
REMARK    2  A    between atoms: C_8  and  C_9 
REMARK    3  A    between atoms: C_9  and  S_10 
REMARK    4  A    between atoms: S_10  and  C_11 
REMARK    5  A    between atoms: N_12  and  C_13 
REMARK    6  A    between atoms: C_13  and  C_14 
REMARK    7  A    between atoms: C_14  and  C_15 
REMARK       I    between atoms: C_15  and  N_16 
REMARK    8  A    between atoms: N_16  and  C_17 
ROOT
HETATM    1  C   UNL     1      43.635 -17.877   3.984  1.00  0.00     0.172 A 
HETATM    2  N   UNL     1      43.534 -17.980   5.360  1.00  0.00    -0.292 N 
HETATM    3  C   UNL     1      43.889 -19.173   5.995  1.00  0.00     0.262 A 
HETATM    4  O   UNL     1      43.934 -19.313   7.215  1.00  0.00    -0.267 OA
HETATM    5  C   UNL     1      44.244 -20.308   5.132  1.00  0.00     0.061 A 
HETATM    6  C   UNL     1      44.281 -20.086   3.760  1.00  0.00     0.075 A 
HETATM    7  C   UNL     1      44.511 -21.571   5.673  1.00  0.00     0.019 A 
HETATM    8  C   UNL     1      44.804 -22.635   4.822  1.00  0.00     0.001 A 
HETATM    9  C   UNL     1      44.820 -22.433   3.443  1.00  0.00     0.002 A 
HETATM   10  C   UNL     1      44.555 -21.164   2.917  1.00  0.00     0.032 A 
HETATM   11  N   UNL     1      44.029 -18.827   3.200  1.00  0.00    -0.224 NA
ENDROOT
BRANCH   1  12
HETATM   12  S   UNL     1      43.217 -16.377   3.196  1.00  0.00    -0.082 SA
BRANCH  12  13
HETATM   13  C   UNL     1      43.386 -16.888   1.476  1.00  0.00     0.185 C 
BRANCH  13  14
HETATM   14  C   UNL     1      42.093 -16.789   0.688  1.00  0.00     0.231 C 
HETATM   15  N   UNL     1      42.060 -15.734  -0.206  1.00  0.00    -0.326 N 
HETATM   16  H   UNL     1      42.962 -15.373  -0.519  1.00  0.00     0.169 HD
HETATM   17  O   UNL     1      41.154 -17.538   0.947  1.00  0.00    -0.272 OA
BRANCH  15  18
HETATM   18  C   UNL     1      40.914 -15.133  -0.770  1.00  0.00     0.036 A 
HETATM   19  C   UNL     1      39.949 -14.447  -0.031  1.00  0.00     0.053 A 
HETATM   20  C   UNL     1      38.887 -13.800  -0.678  1.00  0.00     0.042 A 
HETATM   21  C   UNL     1      38.764 -13.833  -2.074  1.00  0.00    -0.040 A 
HETATM   22 CL   UNL     1      37.752 -12.937   0.302  1.00  0.00    -0.084 Cl
HETATM   23  C   UNL     1      37.663 -13.110  -2.797  1.00  0.00     0.050 C 
HETATM   24  C   UNL     1      39.730 -14.531  -2.808  1.00  0.00     0.011 A 
HETATM   25  C   UNL     1      40.791 -15.174  -2.161  1.00  0.00     0.030 A 
ENDBRANCH  15  18
ENDBRANCH  13  14
ENDBRANCH  12  13
ENDBRANCH   1  12
BRANCH   2  26
HETATM   26  C   UNL     1      43.120 -16.890   6.262  1.00  0.00     0.144 C 
BRANCH  26  27
HETATM   27  C   UNL     1      44.284 -15.960   6.613  1.00  0.00     0.123 C 
BRANCH  27  28
HETATM   28  C   UNL     1      43.831 -14.519   6.560  1.00  0.00     0.219 C 
HETATM   29  N   UNL     1      42.593 -14.349   5.980  1.00  0.00    -0.356 N 
HETATM   30  H   UNL     1      42.048 -15.165   5.731  1.00  0.00     0.162 HD
HETATM   31  O   UNL     1      44.500 -13.598   7.017  1.00  0.00    -0.274 OA
BRANCH  29  32
HETATM   32  C   UNL     1      41.992 -13.031   5.809  1.00  0.00     0.084 C 
HETATM   33  C   UNL     1      42.187 -12.521   4.375  1.00  0.00     0.025 C 
HETATM   34  C   UNL     1      41.284 -13.224   3.361  1.00  0.00     0.002 C 
HETATM   35  C   UNL     1      39.820 -13.177   3.784  1.00  0.00     0.000 C 
HETATM   36  C   UNL     1      39.625 -13.744   5.187  1.00  0.00     0.002 C 
HETATM   37  C   UNL     1      40.510 -13.033   6.208  1.00  0.00     0.025 C 
ENDBRANCH  29  32
ENDBRANCH  27  28
ENDBRANCH  26  27
ENDBRANCH   2  26
TORSDOF 8
ENDMDL
MODEL 7
REMARK VINA RESULT:      -9.2      3.354      6.550
REMARK  8 active torsions:
REMARK  status: ('A' for Active; 'I' for Inactive)
REMARK    1  A    between atoms: C_6  and  N_7 
REMARK       I    between atoms: N_7  and  C_8 
REMARK    2  A    between atoms: C_8  and  C_9 
REMARK    3  A    between atoms: C_9  and  S_10 
REMARK    4  A    between atoms: S_10  and  C_11 
REMARK    5  A    between atoms: N_12  and  C_13 
REMARK    6  A    between atoms: C_13  and  C_14 
REMARK    7  A    between atoms: C_14  and  C_15 
REMARK       I    between atoms: C_15  and  N_16 
REMARK    8  A    between atoms: N_16  and  C_17 
ROOT
HETATM    1  C   UNL     1      41.294 -13.675   3.897  1.00  0.00     0.172 A 
HETATM    2  N   UNL     1      40.987 -12.359   4.194  1.00  0.00    -0.292 N 
HETATM    3  C   UNL     1      39.857 -11.764   3.626  1.00  0.00     0.262 A 
HETATM    4  O   UNL     1      39.452 -10.642   3.919  1.00  0.00    -0.267 OA
HETATM    5  C   UNL     1      39.114 -12.555   2.636  1.00  0.00     0.061 A 
HETATM    6  C   UNL     1      39.540 -13.858   2.402  1.00  0.00     0.075 A 
HETATM    7  C   UNL     1      38.032 -12.007   1.937  1.00  0.00     0.019 A 
HETATM    8  C   UNL     1      37.376 -12.771   0.975  1.00  0.00     0.001 A 
HETATM    9  C   UNL     1      37.808 -14.070   0.712  1.00  0.00     0.002 A 
HETATM   10  C   UNL     1      38.887 -14.607   1.421  1.00  0.00     0.032 A 
HETATM   11  N   UNL     1      40.611 -14.430   3.099  1.00  0.00    -0.224 NA
ENDROOT
BRANCH   1  12
HETATM   12  S   UNL     1      42.691 -14.423   4.629  1.00  0.00    -0.082 SA
BRANCH  12  13
HETATM   13  C   UNL     1      41.864 -15.523   5.792  1.00  0.00     0.185 C 
BRANCH  13  14
HETATM   14  C   UNL     1      42.042 -16.993   5.462  1.00  0.00     0.231 C 
HETATM   15  N   UNL     1      43.325 -17.327   5.065  1.00  0.00    -0.326 N 
HETATM   16  H   UNL     1      44.073 -16.704   5.370  1.00  0.00     0.169 HD
HETATM   17  O   UNL     1      41.071 -17.746   5.456  1.00  0.00    -0.272 OA
BRANCH  15  18
HETATM   18  C   UNL     1      43.718 -18.464   4.327  1.00  0.00     0.036 A 
HETATM   19  C   UNL     1      44.263 -19.615   4.897  1.00  0.00     0.053 A 
HETATM   20  C   UNL     1      44.542 -20.737   4.104  1.00  0.00     0.042 A 
HETATM   21  C   UNL     1      44.290 -20.726   2.725  1.00  0.00    -0.040 A 
HETATM   22 CL   UNL     1      45.181 -22.140   4.889  1.00  0.00    -0.084 Cl
HETATM   23  C   UNL     1      44.535 -21.930   1.859  1.00  0.00     0.050 C 
HETATM   24  C   UNL     1      43.752 -19.565   2.158  1.00  0.00     0.011 A 
HETATM   25  C   UNL     1      43.471 -18.448   2.951  1.00  0.00     0.030 A 
ENDBRANCH  15  18
ENDBRANCH  13  14
ENDBRANCH  12  13
ENDBRANCH   1  12
BRANCH   2  26
HETATM   26  C   UNL     1      41.739 -11.504   5.130  1.00  0.00     0.144 C 
BRANCH  26  27
HETATM   27  C   UNL     1      41.246 -11.656   6.571  1.00  0.00     0.123 C 
BRANCH  27  28
HETATM   28  C   UNL     1      41.924 -10.640   7.461  1.00  0.00     0.219 C 
HETATM   29  N   UNL     1      42.551 -11.195   8.556  1.00  0.00    -0.356 N 
HETATM   30  H   UNL     1      42.604 -12.202   8.637  1.00  0.00     0.162 HD
HETATM   31  O   UNL     1      41.931  -9.440   7.209  1.00  0.00    -0.274 OA
BRANCH  29  32
HETATM   32  C   UNL     1      43.239 -10.378   9.550  1.00  0.00     0.084 C 
HETATM   33  C   UNL     1      42.286  -9.980  10.685  1.00  0.00     0.025 C 
HETATM   34  C   UNL     1      41.973 -11.135  11.638  1.00  0.00     0.002 C 
HETATM   35  C   UNL     1      43.245 -11.787  12.168  1.00  0.00     0.000 C 
HETATM   36  C   UNL     1      44.158 -12.238  11.032  1.00  0.00     0.002 C 
HETATM   37  C   UNL     1      44.490 -11.084  10.088  1.00  0.00     0.025 C 
ENDBRANCH  29  32
ENDBRANCH  27  28
ENDBRANCH  26  27
ENDBRANCH   2  26
TORSDOF 8
ENDMDL
MODEL 8
REMARK VINA RESULT:      -9.2      3.376      6.186
REMARK  8 active torsions:
REMARK  status: ('A' for Active; 'I' for Inactive)
REMARK    1  A    between atoms: C_6  and  N_7 
REMARK       I    between atoms: N_7  and  C_8 
REMARK    2  A    between atoms: C_8  and  C_9 
REMARK    3  A    between atoms: C_9  and  S_10 
REMARK    4  A    between atoms: S_10  and  C_11 
REMARK    5  A    between atoms: N_12  and  C_13 
REMARK    6  A    between atoms: C_13  and  C_14 
REMARK    7  A    between atoms: C_14  and  C_15 
REMARK       I    between atoms: C_15  and  N_16 
REMARK    8  A    between atoms: N_16  and  C_17 
ROOT
HETATM    1  C   UNL     1      40.997 -15.610   4.811  1.00  0.00     0.172 A 
HETATM    2  N   UNL     1      41.082 -14.240   4.641  1.00  0.00    -0.292 N 
HETATM    3  C   UNL     1      41.147 -13.702   3.353  1.00  0.00     0.262 A 
HETATM    4  O   UNL     1      41.114 -12.498   3.110  1.00  0.00    -0.267 OA
HETATM    5  C   UNL     1      41.239 -14.654   2.238  1.00  0.00     0.061 A 
HETATM    6  C   UNL     1      41.172 -16.009   2.540  1.00  0.00     0.075 A 
HETATM    7  C   UNL     1      41.414 -14.210   0.922  1.00  0.00     0.019 A 
HETATM    8  C   UNL     1      41.539 -15.141  -0.107  1.00  0.00     0.001 A 
HETATM    9  C   UNL     1      41.499 -16.503   0.184  1.00  0.00     0.002 A 
HETATM   10  C   UNL     1      41.320 -16.933   1.503  1.00  0.00     0.032 A 
HETATM   11  N   UNL     1      40.986 -16.474   3.848  1.00  0.00    -0.224 NA
ENDROOT
BRANCH   1  12
HETATM   12  S   UNL     1      40.890 -16.278   6.421  1.00  0.00    -0.082 SA
BRANCH  12  13
HETATM   13  C   UNL     1      42.641 -16.320   6.841  1.00  0.00     0.185 C 
BRANCH  13  14
HETATM   14  C   UNL     1      43.326 -17.614   6.442  1.00  0.00     0.231 C 
HETATM   15  N   UNL     1      43.763 -17.637   5.130  1.00  0.00    -0.326 N 
HETATM   16  H   UNL     1      43.927 -16.731   4.689  1.00  0.00     0.169 HD
HETATM   17  O   UNL     1      43.356 -18.562   7.224  1.00  0.00    -0.272 OA
BRANCH  15  18
HETATM   18  C   UNL     1      44.054 -18.776   4.350  1.00  0.00     0.036 A 
HETATM   19  C   UNL     1      44.452 -20.004   4.881  1.00  0.00     0.053 A 
HETATM   20  C   UNL     1      44.634 -21.114   4.044  1.00  0.00     0.042 A 
HETATM   21  C   UNL     1      44.429 -21.016   2.661  1.00  0.00    -0.040 A 
HETATM   22 CL   UNL     1      45.091 -22.612   4.780  1.00  0.00    -0.084 Cl
HETATM   23  C   UNL     1      44.571 -22.200   1.747  1.00  0.00     0.050 C 
HETATM   24  C   UNL     1      44.039 -19.779   2.134  1.00  0.00     0.011 A 
HETATM   25  C   UNL     1      43.855 -18.674   2.970  1.00  0.00     0.030 A 
ENDBRANCH  15  18
ENDBRANCH  13  14
ENDBRANCH  12  13
ENDBRANCH   1  12
BRANCH   2  26
HETATM   26  C   UNL     1      41.060 -13.249   5.732  1.00  0.00     0.144 C 
BRANCH  26  27
HETATM   27  C   UNL     1      39.633 -12.851   6.118  1.00  0.00     0.123 C 
BRANCH  27  28
HETATM   28  C   UNL     1      39.638 -11.507   6.809  1.00  0.00     0.219 C 
HETATM   29  N   UNL     1      40.543 -11.421   7.844  1.00  0.00    -0.356 N 
HETATM   30  H   UNL     1      41.185 -12.186   8.004  1.00  0.00     0.162 HD
HETATM   31  O   UNL     1      38.917 -10.579   6.456  1.00  0.00    -0.274 OA
BRANCH  29  32
HETATM   32  C   UNL     1      40.680 -10.214   8.654  1.00  0.00     0.084 C 
HETATM   33  C   UNL     1      39.781 -10.283   9.896  1.00  0.00     0.025 C 
HETATM   34  C   UNL     1      40.310 -11.237  10.967  1.00  0.00     0.002 C 
HETATM   35  C   UNL     1      41.756 -10.926  11.332  1.00  0.00     0.000 C 
HETATM   36  C   UNL     1      42.656 -10.923  10.100  1.00  0.00     0.002 C 
HETATM   37  C   UNL     1      42.144  -9.957   9.034  1.00  0.00     0.025 C 
ENDBRANCH  29  32
ENDBRANCH  27  28
ENDBRANCH  26  27
ENDBRANCH   2  26
TORSDOF 8
ENDMDL
MODEL 9
REMARK VINA RESULT:      -8.9      3.629      4.766
REMARK  8 active torsions:
REMARK  status: ('A' for Active; 'I' for Inactive)
REMARK    1  A    between atoms: C_6  and  N_7 
REMARK       I    between atoms: N_7  and  C_8 
REMARK    2  A    between atoms: C_8  and  C_9 
REMARK    3  A    between atoms: C_9  and  S_10 
REMARK    4  A    between atoms: S_10  and  C_11 
REMARK    5  A    between atoms: N_12  and  C_13 
REMARK    6  A    between atoms: C_13  and  C_14 
REMARK    7  A    between atoms: C_14  and  C_15 
REMARK       I    between atoms: C_15  and  N_16 
REMARK    8  A    between atoms: N_16  and  C_17 
ROOT
HETATM    1  C   UNL     1      43.852 -18.225   2.516  1.00  0.00     0.172 A 
HETATM    2  N   UNL     1      43.751 -17.751   3.811  1.00  0.00    -0.292 N 
HETATM    3  C   UNL     1      44.032 -18.600   4.885  1.00  0.00     0.262 A 
HETATM    4  O   UNL     1      44.073 -18.233   6.057  1.00  0.00    -0.267 OA
HETATM    5  C   UNL     1      44.311 -20.007   4.567  1.00  0.00     0.061 A 
HETATM    6  C   UNL     1      44.356 -20.368   3.225  1.00  0.00     0.075 A 
HETATM    7  C   UNL     1      44.500 -20.954   5.581  1.00  0.00     0.019 A 
HETATM    8  C   UNL     1      44.721 -22.287   5.245  1.00  0.00     0.001 A 
HETATM    9  C   UNL     1      44.744 -22.667   3.904  1.00  0.00     0.002 A 
HETATM   10  C   UNL     1      44.558 -21.710   2.901  1.00  0.00     0.032 A 
HETATM   11  N   UNL     1      44.182 -19.434   2.195  1.00  0.00    -0.224 NA
ENDROOT
BRANCH   1  12
HETATM   12  S   UNL     1      43.526 -17.155   1.175  1.00  0.00    -0.082 SA
BRANCH  12  13
HETATM   13  C   UNL     1      41.748 -17.408   1.020  1.00  0.00     0.185 C 
BRANCH  13  14
HETATM   14  C   UNL     1      41.017 -16.209   0.444  1.00  0.00     0.231 C 
HETATM   15  N   UNL     1      41.236 -16.015  -0.908  1.00  0.00    -0.326 N 
HETATM   16  H   UNL     1      41.526 -16.832  -1.445  1.00  0.00     0.169 HD
HETATM   17  O   UNL     1      40.395 -15.452   1.186  1.00  0.00    -0.272 OA
BRANCH  15  18
HETATM   18  C   UNL     1      41.054 -14.819  -1.635  1.00  0.00     0.036 A 
HETATM   19  C   UNL     1      41.872 -13.696  -1.508  1.00  0.00     0.053 A 
HETATM   20  C   UNL     1      41.679 -12.579  -2.333  1.00  0.00     0.042 A 
HETATM   21  C   UNL     1      40.659 -12.561  -3.296  1.00  0.00    -0.040 A 
HETATM   22 CL   UNL     1      42.757 -11.240  -2.143  1.00  0.00    -0.084 Cl
HETATM   23  C   UNL     1      40.459 -11.398  -4.225  1.00  0.00     0.050 C 
HETATM   24  C   UNL     1      39.837 -13.688  -3.411  1.00  0.00     0.011 A 
HETATM   25  C   UNL     1      40.032 -14.801  -2.589  1.00  0.00     0.030 A 
ENDBRANCH  15  18
ENDBRANCH  13  14
ENDBRANCH  12  13
ENDBRANCH   1  12
BRANCH   2  26
HETATM   26  C   UNL     1      43.410 -16.366   4.182  1.00  0.00     0.144 C 
BRANCH  26  27
HETATM   27  C   UNL     1      41.910 -16.191   4.433  1.00  0.00     0.123 C 
BRANCH  27  28
HETATM   28  C   UNL     1      41.601 -14.744   4.739  1.00  0.00     0.219 C 
HETATM   29  N   UNL     1      40.857 -14.118   3.762  1.00  0.00    -0.356 N 
HETATM   30  H   UNL     1      40.495 -14.664   2.990  1.00  0.00     0.162 HD
HETATM   31  O   UNL     1      41.962 -14.195   5.775  1.00  0.00    -0.274 OA
BRANCH  29  32
HETATM   32  C   UNL     1      40.478 -12.712   3.858  1.00  0.00     0.084 C 
HETATM   33  C   UNL     1      41.486 -11.823   3.118  1.00  0.00     0.025 C 
HETATM   34  C   UNL     1      41.354 -11.905   1.597  1.00  0.00     0.002 C 
HETATM   35  C   UNL     1      39.924 -11.640   1.142  1.00  0.00     0.000 C 
HETATM   36  C   UNL     1      38.934 -12.571   1.835  1.00  0.00     0.002 C 
HETATM   37  C   UNL     1      39.048 -12.480   3.355  1.00  0.00     0.025 C 
ENDBRANCH  29  32
ENDBRANCH  27  28
ENDBRANCH  26  27
ENDBRANCH   2  26
TORSDOF 8
ENDMDL
MODEL 10
REMARK VINA RESULT:      -8.6      2.911      9.018
REMARK  8 active torsions:
REMARK  status: ('A' for Active; 'I' for Inactive)
REMARK    1  A    between atoms: C_6  and  N_7 
REMARK       I    between atoms: N_7  and  C_8 
REMARK    2  A    between atoms: C_8  and  C_9 
REMARK    3  A    between atoms: C_9  and  S_10 
REMARK    4  A    between atoms: S_10  and  C_11 
REMARK    5  A    between atoms: N_12  and  C_13 
REMARK    6  A    between atoms: C_13  and  C_14 
REMARK    7  A    between atoms: C_14  and  C_15 
REMARK       I    between atoms: C_15  and  N_16 
REMARK    8  A    between atoms: N_16  and  C_17 
ROOT
HETATM    1  C   UNL     1      42.409 -16.658   4.385  1.00  0.00     0.172 A 
HETATM    2  N   UNL     1      42.201 -16.580   3.020  1.00  0.00    -0.292 N 
HETATM    3  C   UNL     1      42.605 -17.633   2.195  1.00  0.00     0.262 A 
HETATM    4  O   UNL     1      42.361 -17.694   0.992  1.00  0.00    -0.267 OA
HETATM    5  C   UNL     1      43.346 -18.731   2.830  1.00  0.00     0.061 A 
HETATM    6  C   UNL     1      43.517 -18.680   4.209  1.00  0.00     0.075 A 
HETATM    7  C   UNL     1      43.881 -19.777   2.069  1.00  0.00     0.019 A 
HETATM    8  C   UNL     1      44.615 -20.780   2.699  1.00  0.00     0.001 A 
HETATM    9  C   UNL     1      44.815 -20.729   4.077  1.00  0.00     0.002 A 
HETATM   10  C   UNL     1      44.271 -19.680   4.826  1.00  0.00     0.032 A 
HETATM   11  N   UNL     1      42.979 -17.649   4.990  1.00  0.00    -0.224 NA
ENDROOT
BRANCH   1  12
HETATM   12  S   UNL     1      41.881 -15.352   5.417  1.00  0.00    -0.082 SA
BRANCH  12  13
HETATM   13  C   UNL     1      43.484 -14.667   5.873  1.00  0.00     0.185 C 
BRANCH  13  14
HETATM   14  C   UNL     1      43.386 -13.336   6.596  1.00  0.00     0.231 C 
HETATM   15  N   UNL     1      44.279 -13.201   7.644  1.00  0.00    -0.326 N 
HETATM   16  H   UNL     1      45.115 -13.784   7.609  1.00  0.00     0.169 HD
HETATM   17  O   UNL     1      42.498 -12.539   6.304  1.00  0.00    -0.272 OA
BRANCH  15  18
HETATM   18  C   UNL     1      44.183 -12.307   8.732  1.00  0.00     0.036 A 
HETATM   19  C   UNL     1      43.145 -11.391   8.900  1.00  0.00     0.053 A 
HETATM   20  C   UNL     1      43.074 -10.600  10.056  1.00  0.00     0.042 A 
HETATM   21  C   UNL     1      44.045 -10.705  11.062  1.00  0.00    -0.040 A 
HETATM   22 CL   UNL     1      41.736  -9.516  10.211  1.00  0.00    -0.084 Cl
HETATM   23  C   UNL     1      43.970  -9.906  12.331  1.00  0.00     0.050 C 
HETATM   24  C   UNL     1      45.090 -11.620  10.882  1.00  0.00     0.011 A 
HETATM   25  C   UNL     1      45.157 -12.409   9.730  1.00  0.00     0.030 A 
ENDBRANCH  15  18
ENDBRANCH  13  14
ENDBRANCH  12  13
ENDBRANCH   1  12
BRANCH   2  26
HETATM   26  C   UNL     1      41.522 -15.470   2.329  1.00  0.00     0.144 C 
BRANCH  26  27
HETATM   27  C   UNL     1      39.999 -15.625   2.351  1.00  0.00     0.123 C 
BRANCH  27  28
HETATM   28  C   UNL     1      39.376 -14.783   1.262  1.00  0.00     0.219 C 
HETATM   29  N   UNL     1      40.269 -14.380   0.294  1.00  0.00    -0.356 N 
HETATM   30  H   UNL     1      41.216 -14.738   0.315  1.00  0.00     0.162 HD
HETATM   31  O   UNL     1      38.179 -14.512   1.238  1.00  0.00    -0.274 OA
BRANCH  29  32
HETATM   32  C   UNL     1      39.869 -13.537  -0.828  1.00  0.00     0.084 C 
HETATM   33  C   UNL     1      40.992 -12.562  -1.208  1.00  0.00     0.025 C 
HETATM   34  C   UNL     1      42.150 -13.239  -1.942  1.00  0.00     0.002 C 
HETATM   35  C   UNL     1      41.663 -14.038  -3.145  1.00  0.00     0.000 C 
HETATM   36  C   UNL     1      40.592 -15.050  -2.748  1.00  0.00     0.002 C 
HETATM   37  C   UNL     1      39.423 -14.377  -2.031  1.00  0.00     0.025 C 
ENDBRANCH  29  32
ENDBRANCH  27  28
ENDBRANCH  26  27
ENDBRANCH   2  26
TORSDOF 8
ENDMDL
