MODEL 1
REMARK VINA RESULT:      -9.7      0.000      0.000
REMARK  6 active torsions:
REMARK  status: ('A' for Active; 'I' for Inactive)
REMARK    1  A    between atoms: C_2  and  O_3 
REMARK    2  A    between atoms: O_3  and  C_4 
REMARK    3  A    between atoms: C_5  and  C_6 
REMARK       I    between atoms: C_6  and  N_7 
REMARK    4  A    between atoms: N_7  and  C_8 
REMARK    5  A    between atoms: N_9  and  C_10 
REMARK    6  A    between atoms: C_21  and  C_22 
ROOT
HETATM    1  C   UNL     1      43.626 -14.255   5.898  1.00  0.00     0.152 A 
HETATM    2  N   UNL     1      42.804 -13.139   5.949  1.00  0.00    -0.044 N 
HETATM    3  N   UNL     1      43.028 -12.375   7.060  1.00  0.00    -0.148 NA
HETATM    4  C   UNL     1      44.001 -13.031   7.708  1.00  0.00     0.115 A 
HETATM    5  C   UNL     1      44.382 -14.217   7.046  1.00  0.00     0.087 A 
ENDROOT
BRANCH   1   6
HETATM    6  N   UNL     1      43.607 -15.128   4.824  1.00  0.00    -0.307 N 
HETATM    7  C   UNL     1      42.711 -16.168   4.697  1.00  0.00     0.261 C 
HETATM    8  O   UNL     1      41.705 -16.373   5.363  1.00  0.00    -0.267 OA
HETATM    9  H   UNL     1      44.347 -15.027   4.125  1.00  0.00     0.170 HD
BRANCH   7  10
HETATM   10  C   UNL     1      43.066 -17.091   3.595  1.00  0.00     0.076 A 
HETATM   11  C   UNL     1      42.686 -16.722   2.291  1.00  0.00     0.085 A 
HETATM   12  C   UNL     1      42.960 -17.596   1.242  1.00  0.00     0.039 A 
HETATM   13  C   UNL     1      43.595 -18.816   1.493  1.00  0.00     0.015 A 
HETATM   14  C   UNL     1      43.969 -19.192   2.793  1.00  0.00    -0.025 A 
HETATM   15  C   UNL     1      43.714 -18.320   3.877  1.00  0.00    -0.007 A 
HETATM   16  C   UNL     1      44.588 -20.432   3.023  1.00  0.00     0.012 A 
HETATM   17  C   UNL     1      44.108 -18.735   5.171  1.00  0.00     0.013 A 
HETATM   18  C   UNL     1      44.721 -19.971   5.384  1.00  0.00     0.001 A 
HETATM   19  C   UNL     1      44.959 -20.819   4.310  1.00  0.00     0.001 A 
BRANCH  11  20
HETATM   20  O   UNL     1      42.037 -15.525   2.158  1.00  0.00    -0.350 OA
BRANCH  20  21
HETATM   21  C   UNL     1      40.922 -15.454   1.273  1.00  0.00     0.171 C 
HETATM   22  C   UNL     1      39.661 -15.530   2.114  1.00  0.00     0.034 C 
ENDBRANCH  20  21
ENDBRANCH  11  20
ENDBRANCH   7  10
ENDBRANCH   1   6
BRANCH   2  23
HETATM   23  C   UNL     1      41.827 -12.746   5.014  1.00  0.00     0.732 A 
HETATM   24  N   UNL     1      42.091 -12.526   3.758  1.00  0.00    -0.067 NA
HETATM   25  C   UNL     1      41.005 -12.166   3.014  1.00  0.00     0.065 A 
HETATM   26  C   UNL     1      39.757 -12.023   3.464  1.00  0.00     0.036 A 
HETATM   27  C   UNL     1      41.089 -11.881   1.552  1.00  0.00     0.061 C 
HETATM   28  C   UNL     1      38.791 -11.627   2.416  1.00  0.00     0.047 C 
HETATM   29  C   UNL     1      39.479 -12.266   4.880  1.00  0.00     0.268 A 
HETATM   30  C   UNL     1      39.611 -11.847   1.136  1.00  0.00     0.011 C 
HETATM   31  O   UNL     1      38.361 -12.151   5.361  1.00  0.00    -0.267 OA
HETATM   32  N   UNL     1      40.585 -12.630   5.595  1.00  0.00    -0.152 N 
HETATM   33  H   UNL     1      40.488 -12.822   6.587  1.00  0.00     0.188 HD
ENDBRANCH   2  23
BRANCH   4  34
HETATM   34  C   UNL     1      44.609 -12.525   8.972  1.00  0.00     0.105 A 
HETATM   35  O   UNL     1      44.346 -13.031  10.216  1.00  0.00    -0.320 OA
HETATM   36  C   UNL     1      45.098 -12.333  11.105  1.00  0.00     0.142 A 
HETATM   37  C   UNL     1      45.846 -11.380  10.458  1.00  0.00     0.027 A 
HETATM   38  C   UNL     1      45.531 -11.500   9.083  1.00  0.00     0.041 A 
ENDBRANCH   4  34
TORSDOF 6
ENDMDL
MODEL 2
REMARK VINA RESULT:      -9.6      1.718      2.188
REMARK  6 active torsions:
REMARK  status: ('A' for Active; 'I' for Inactive)
REMARK    1  A    between atoms: C_2  and  O_3 
REMARK    2  A    between atoms: O_3  and  C_4 
REMARK    3  A    between atoms: C_5  and  C_6 
REMARK       I    between atoms: C_6  and  N_7 
REMARK    4  A    between atoms: N_7  and  C_8 
REMARK    5  A    between atoms: N_9  and  C_10 
REMARK    6  A    between atoms: C_21  and  C_22 
ROOT
HETATM    1  C   UNL     1      43.700 -15.100   5.483  1.00  0.00     0.152 A 
HETATM    2  N   UNL     1      42.902 -14.018   5.140  1.00  0.00    -0.044 N 
HETATM    3  N   UNL     1      42.951 -13.017   6.068  1.00  0.00    -0.148 NA
HETATM    4  C   UNL     1      43.789 -13.488   7.002  1.00  0.00     0.115 A 
HETATM    5  C   UNL     1      44.254 -14.785   6.701  1.00  0.00     0.087 A 
ENDROOT
BRANCH   1   6
HETATM    6  N   UNL     1      43.845 -16.195   4.648  1.00  0.00    -0.307 N 
HETATM    7  C   UNL     1      43.025 -17.301   4.687  1.00  0.00     0.261 C 
HETATM    8  O   UNL     1      41.964 -17.425   5.285  1.00  0.00    -0.267 OA
HETATM    9  H   UNL     1      44.650 -16.200   4.018  1.00  0.00     0.170 HD
BRANCH   7  10
HETATM   10  C   UNL     1      43.546 -18.422   3.872  1.00  0.00     0.076 A 
HETATM   11  C   UNL     1      43.590 -18.246   2.477  1.00  0.00     0.085 A 
HETATM   12  C   UNL     1      44.027 -19.303   1.682  1.00  0.00     0.039 A 
HETATM   13  C   UNL     1      44.405 -20.513   2.270  1.00  0.00     0.015 A 
HETATM   14  C   UNL     1      44.356 -20.697   3.662  1.00  0.00    -0.025 A 
HETATM   15  C   UNL     1      43.927 -19.638   4.495  1.00  0.00    -0.007 A 
HETATM   16  C   UNL     1      44.722 -21.929   4.229  1.00  0.00     0.012 A 
HETATM   17  C   UNL     1      43.893 -19.862   5.892  1.00  0.00     0.013 A 
HETATM   18  C   UNL     1      44.259 -21.094   6.440  1.00  0.00     0.001 A 
HETATM   19  C   UNL     1      44.671 -22.126   5.608  1.00  0.00     0.001 A 
BRANCH  11  20
HETATM   20  O   UNL     1      43.164 -17.037   1.998  1.00  0.00    -0.350 OA
BRANCH  20  21
HETATM   21  C   UNL     1      42.324 -17.022   0.847  1.00  0.00     0.171 C 
HETATM   22  C   UNL     1      40.972 -17.579   1.255  1.00  0.00     0.034 C 
ENDBRANCH  20  21
ENDBRANCH  11  20
ENDBRANCH   7  10
ENDBRANCH   1   6
BRANCH   2  23
HETATM   23  C   UNL     1      42.102 -13.869   3.990  1.00  0.00     0.732 A 
HETATM   24  N   UNL     1      40.966 -14.482   3.829  1.00  0.00    -0.067 NA
HETATM   25  C   UNL     1      40.338 -14.194   2.651  1.00  0.00     0.065 A 
HETATM   26  C   UNL     1      40.791 -13.375   1.700  1.00  0.00     0.036 A 
HETATM   27  C   UNL     1      39.019 -14.783   2.276  1.00  0.00     0.061 C 
HETATM   28  C   UNL     1      39.884 -13.260   0.537  1.00  0.00     0.047 C 
HETATM   29  C   UNL     1      42.074 -12.699   1.893  1.00  0.00     0.268 A 
HETATM   30  C   UNL     1      38.607 -13.929   1.068  1.00  0.00     0.011 C 
HETATM   31  O   UNL     1      42.550 -11.939   1.063  1.00  0.00    -0.267 OA
HETATM   32  N   UNL     1      42.673 -13.004   3.083  1.00  0.00    -0.152 N 
HETATM   33  H   UNL     1      43.567 -12.579   3.307  1.00  0.00     0.188 HD
ENDBRANCH   2  23
BRANCH   4  34
HETATM   34  C   UNL     1      44.187 -12.695   8.202  1.00  0.00     0.105 A 
HETATM   35  O   UNL     1      45.242 -13.000   9.017  1.00  0.00    -0.320 OA
HETATM   36  C   UNL     1      45.301 -12.044   9.980  1.00  0.00     0.142 A 
HETATM   37  C   UNL     1      44.298 -11.122   9.803  1.00  0.00     0.027 A 
HETATM   38  C   UNL     1      43.576 -11.542   8.658  1.00  0.00     0.041 A 
ENDBRANCH   4  34
TORSDOF 6
ENDMDL
MODEL 3
REMARK VINA RESULT:      -9.5      2.816      6.683
REMARK  6 active torsions:
REMARK  status: ('A' for Active; 'I' for Inactive)
REMARK    1  A    between atoms: C_2  and  O_3 
REMARK    2  A    between atoms: O_3  and  C_4 
REMARK    3  A    between atoms: C_5  and  C_6 
REMARK       I    between atoms: C_6  and  N_7 
REMARK    4  A    between atoms: N_7  and  C_8 
REMARK    5  A    between atoms: N_9  and  C_10 
REMARK    6  A    between atoms: C_21  and  C_22 
ROOT
HETATM    1  C   UNL     1      41.603 -16.242   1.563  1.00  0.00     0.152 A 
HETATM    2  N   UNL     1      41.166 -14.941   1.770  1.00  0.00    -0.044 N 
HETATM    3  N   UNL     1      40.613 -14.391   0.648  1.00  0.00    -0.148 NA
HETATM    4  C   UNL     1      40.712 -15.364  -0.268  1.00  0.00     0.115 A 
HETATM    5  C   UNL     1      41.346 -16.517   0.240  1.00  0.00     0.087 A 
ENDROOT
BRANCH   1   6
HETATM    6  N   UNL     1      42.136 -17.005   2.587  1.00  0.00    -0.307 N 
HETATM    7  C   UNL     1      43.453 -17.409   2.635  1.00  0.00     0.261 C 
HETATM    8  O   UNL     1      44.380 -17.023   1.935  1.00  0.00    -0.267 OA
HETATM    9  H   UNL     1      41.492 -17.338   3.308  1.00  0.00     0.170 HD
BRANCH   7  10
HETATM   10  C   UNL     1      43.698 -18.416   3.693  1.00  0.00     0.076 A 
HETATM   11  C   UNL     1      43.667 -17.974   5.029  1.00  0.00     0.085 A 
HETATM   12  C   UNL     1      43.946 -18.888   6.042  1.00  0.00     0.039 A 
HETATM   13  C   UNL     1      44.258 -20.214   5.725  1.00  0.00     0.015 A 
HETATM   14  C   UNL     1      44.298 -20.657   4.394  1.00  0.00    -0.025 A 
HETATM   15  C   UNL     1      44.008 -19.755   3.344  1.00  0.00    -0.007 A 
HETATM   16  C   UNL     1      44.633 -21.989   4.098  1.00  0.00     0.012 A 
HETATM   17  C   UNL     1      44.058 -20.240   2.016  1.00  0.00     0.013 A 
HETATM   18  C   UNL     1      44.394 -21.567   1.739  1.00  0.00     0.001 A 
HETATM   19  C   UNL     1      44.682 -22.440   2.780  1.00  0.00     0.001 A 
BRANCH  11  20
HETATM   20  O   UNL     1      43.388 -16.650   5.231  1.00  0.00    -0.350 OA
BRANCH  20  21
HETATM   21  C   UNL     1      42.664 -16.281   6.401  1.00  0.00     0.171 C 
HETATM   22  C   UNL     1      41.184 -16.413   6.088  1.00  0.00     0.034 C 
ENDBRANCH  20  21
ENDBRANCH  11  20
ENDBRANCH   7  10
ENDBRANCH   1   6
BRANCH   2  23
HETATM   23  C   UNL     1      41.233 -14.190   2.959  1.00  0.00     0.732 A 
HETATM   24  N   UNL     1      40.186 -13.675   3.535  1.00  0.00    -0.067 NA
HETATM   25  C   UNL     1      40.461 -12.992   4.685  1.00  0.00     0.065 A 
HETATM   26  C   UNL     1      41.668 -12.819   5.226  1.00  0.00     0.036 A 
HETATM   27  C   UNL     1      39.401 -12.335   5.505  1.00  0.00     0.061 C 
HETATM   28  C   UNL     1      41.647 -12.036   6.481  1.00  0.00     0.047 C 
HETATM   29  C   UNL     1      42.836 -13.398   4.562  1.00  0.00     0.268 A 
HETATM   30  C   UNL     1      40.147 -12.003   6.805  1.00  0.00     0.011 C 
HETATM   31  O   UNL     1      43.971 -13.276   4.999  1.00  0.00    -0.267 OA
HETATM   32  N   UNL     1      42.526 -14.079   3.418  1.00  0.00    -0.152 N 
HETATM   33  H   UNL     1      43.273 -14.518   2.889  1.00  0.00     0.188 HD
ENDBRANCH   2  23
BRANCH   4  34
HETATM   34  C   UNL     1      40.179 -15.223  -1.654  1.00  0.00     0.105 A 
HETATM   35  O   UNL     1      39.169 -14.374  -2.014  1.00  0.00    -0.320 OA
HETATM   36  C   UNL     1      38.980 -14.512  -3.351  1.00  0.00     0.142 A 
HETATM   37  C   UNL     1      39.852 -15.439  -3.867  1.00  0.00     0.027 A 
HETATM   38  C   UNL     1      40.625 -15.901  -2.774  1.00  0.00     0.041 A 
ENDBRANCH   4  34
TORSDOF 6
ENDMDL
MODEL 4
REMARK VINA RESULT:      -8.9      2.111      6.185
REMARK  6 active torsions:
REMARK  status: ('A' for Active; 'I' for Inactive)
REMARK    1  A    between atoms: C_2  and  O_3 
REMARK    2  A    between atoms: O_3  and  C_4 
REMARK    3  A    between atoms: C_5  and  C_6 
REMARK       I    between atoms: C_6  and  N_7 
REMARK    4  A    between atoms: N_7  and  C_8 
REMARK    5  A    between atoms: N_9  and  C_10 
REMARK    6  A    between atoms: C_21  and  C_22 
ROOT
HETATM    1  C   UNL     1      42.522 -15.277   1.899  1.00  0.00     0.152 A 
HETATM    2  N   UNL     1      42.382 -14.066   2.562  1.00  0.00    -0.044 N 
HETATM    3  N   UNL     1      41.813 -13.103   1.777  1.00  0.00    -0.148 NA
HETATM    4  C   UNL     1      41.602 -13.726   0.609  1.00  0.00     0.115 A 
HETATM    5  C   UNL     1      42.052 -15.062   0.625  1.00  0.00     0.087 A 
ENDROOT
BRANCH   1   6
HETATM    6  N   UNL     1      43.016 -16.404   2.533  1.00  0.00    -0.307 N 
HETATM    7  C   UNL     1      42.220 -17.365   3.118  1.00  0.00     0.261 C 
HETATM    8  O   UNL     1      41.007 -17.496   3.014  1.00  0.00    -0.267 OA
HETATM    9  H   UNL     1      44.031 -16.482   2.625  1.00  0.00     0.170 HD
BRANCH   7  10
HETATM   10  C   UNL     1      42.997 -18.322   3.937  1.00  0.00     0.076 A 
HETATM   11  C   UNL     1      43.266 -17.967   5.272  1.00  0.00     0.085 A 
HETATM   12  C   UNL     1      44.039 -18.825   6.050  1.00  0.00     0.039 A 
HETATM   13  C   UNL     1      44.540 -20.009   5.503  1.00  0.00     0.015 A 
HETATM   14  C   UNL     1      44.281 -20.365   4.169  1.00  0.00    -0.025 A 
HETATM   15  C   UNL     1      43.489 -19.520   3.358  1.00  0.00    -0.007 A 
HETATM   16  C   UNL     1      44.811 -21.551   3.635  1.00  0.00     0.012 A 
HETATM   17  C   UNL     1      43.250 -19.914   2.020  1.00  0.00     0.013 A 
HETATM   18  C   UNL     1      43.785 -21.096   1.504  1.00  0.00     0.001 A 
HETATM   19  C   UNL     1      44.567 -21.912   2.311  1.00  0.00     0.001 A 
BRANCH  11  20
HETATM   20  O   UNL     1      42.762 -16.769   5.701  1.00  0.00    -0.350 OA
BRANCH  20  21
HETATM   21  C   UNL     1      41.717 -16.782   6.670  1.00  0.00     0.171 C 
HETATM   22  C   UNL     1      40.605 -15.883   6.160  1.00  0.00     0.034 C 
ENDBRANCH  20  21
ENDBRANCH  11  20
ENDBRANCH   7  10
ENDBRANCH   1   6
BRANCH   2  23
HETATM   23  C   UNL     1      42.745 -13.764   3.889  1.00  0.00     0.732 A 
HETATM   24  N   UNL     1      43.830 -14.215   4.450  1.00  0.00    -0.067 NA
HETATM   25  C   UNL     1      44.007 -13.798   5.738  1.00  0.00     0.065 A 
HETATM   26  C   UNL     1      43.184 -13.005   6.426  1.00  0.00     0.036 A 
HETATM   27  C   UNL     1      45.190 -14.192   6.557  1.00  0.00     0.061 C 
HETATM   28  C   UNL     1      43.648 -12.723   7.803  1.00  0.00     0.047 C 
HETATM   29  C   UNL     1      41.965 -12.513   5.784  1.00  0.00     0.268 A 
HETATM   30  C   UNL     1      45.093 -13.240   7.758  1.00  0.00     0.011 C 
HETATM   31  O   UNL     1      41.165 -11.787   6.355  1.00  0.00    -0.267 OA
HETATM   32  N   UNL     1      41.820 -12.944   4.495  1.00  0.00    -0.152 N 
HETATM   33  H   UNL     1      41.005 -12.651   3.967  1.00  0.00     0.188 HD
ENDBRANCH   2  23
BRANCH   4  34
HETATM   34  C   UNL     1      40.938 -13.062  -0.550  1.00  0.00     0.105 A 
HETATM   35  O   UNL     1      41.547 -12.802  -1.747  1.00  0.00    -0.320 OA
HETATM   36  C   UNL     1      40.625 -12.213  -2.552  1.00  0.00     0.142 A 
HETATM   37  C   UNL     1      39.425 -12.086  -1.895  1.00  0.00     0.027 A 
HETATM   38  C   UNL     1      39.625 -12.630  -0.603  1.00  0.00     0.041 A 
ENDBRANCH   4  34
TORSDOF 6
ENDMDL
MODEL 5
REMARK VINA RESULT:      -8.8      2.402      4.603
REMARK  6 active torsions:
REMARK  status: ('A' for Active; 'I' for Inactive)
REMARK    1  A    between atoms: C_2  and  O_3 
REMARK    2  A    between atoms: O_3  and  C_4 
REMARK    3  A    between atoms: C_5  and  C_6 
REMARK       I    between atoms: C_6  and  N_7 
REMARK    4  A    between atoms: N_7  and  C_8 
REMARK    5  A    between atoms: N_9  and  C_10 
REMARK    6  A    between atoms: C_21  and  C_22 
ROOT
HETATM    1  C   UNL     1      42.098 -12.921   4.713  1.00  0.00     0.152 A 
HETATM    2  N   UNL     1      41.665 -12.253   3.577  1.00  0.00    -0.044 N 
HETATM    3  N   UNL     1      41.189 -11.003   3.855  1.00  0.00    -0.148 NA
HETATM    4  C   UNL     1      41.327 -10.897   5.184  1.00  0.00     0.115 A 
HETATM    5  C   UNL     1      41.854 -12.069   5.764  1.00  0.00     0.087 A 
ENDROOT
BRANCH   1   6
HETATM    6  N   UNL     1      42.675 -14.178   4.646  1.00  0.00    -0.307 N 
HETATM    7  C   UNL     1      42.068 -15.325   5.109  1.00  0.00     0.261 C 
HETATM    8  O   UNL     1      40.902 -15.468   5.454  1.00  0.00    -0.267 OA
HETATM    9  H   UNL     1      43.633 -14.235   4.293  1.00  0.00     0.170 HD
BRANCH   7  10
HETATM   10  C   UNL     1      42.994 -16.480   5.148  1.00  0.00     0.076 A 
HETATM   11  C   UNL     1      43.916 -16.538   6.210  1.00  0.00     0.085 A 
HETATM   12  C   UNL     1      44.833 -17.585   6.243  1.00  0.00     0.039 A 
HETATM   13  C   UNL     1      44.835 -18.549   5.231  1.00  0.00     0.015 A 
HETATM   14  C   UNL     1      43.923 -18.492   4.165  1.00  0.00    -0.025 A 
HETATM   15  C   UNL     1      42.971 -17.447   4.111  1.00  0.00    -0.007 A 
HETATM   16  C   UNL     1      43.955 -19.461   3.149  1.00  0.00     0.012 A 
HETATM   17  C   UNL     1      42.068 -17.424   3.021  1.00  0.00     0.013 A 
HETATM   18  C   UNL     1      42.115 -18.395   2.018  1.00  0.00     0.001 A 
HETATM   19  C   UNL     1      43.059 -19.411   2.082  1.00  0.00     0.001 A 
BRANCH  11  20
HETATM   20  O   UNL     1      43.857 -15.526   7.129  1.00  0.00    -0.350 OA
BRANCH  20  21
HETATM   21  C   UNL     1      44.905 -14.560   7.141  1.00  0.00     0.171 C 
HETATM   22  C   UNL     1      44.453 -13.401   8.011  1.00  0.00     0.034 C 
ENDBRANCH  20  21
ENDBRANCH  11  20
ENDBRANCH   7  10
ENDBRANCH   1   6
BRANCH   2  23
HETATM   23  C   UNL     1      41.677 -12.718   2.247  1.00  0.00     0.732 A 
HETATM   24  N   UNL     1      41.351 -13.934   1.915  1.00  0.00    -0.067 NA
HETATM   25  C   UNL     1      41.417 -14.183   0.575  1.00  0.00     0.065 A 
HETATM   26  C   UNL     1      41.780 -13.312  -0.368  1.00  0.00     0.036 A 
HETATM   27  C   UNL     1      41.073 -15.510  -0.016  1.00  0.00     0.061 C 
HETATM   28  C   UNL     1      41.748 -13.875  -1.737  1.00  0.00     0.047 C 
HETATM   29  C   UNL     1      42.151 -11.952   0.022  1.00  0.00     0.268 A 
HETATM   30  C   UNL     1      40.990 -15.192  -1.516  1.00  0.00     0.011 C 
HETATM   31  O   UNL     1      42.497 -11.105  -0.788  1.00  0.00    -0.267 OA
HETATM   32  N   UNL     1      42.070 -11.734   1.369  1.00  0.00    -0.152 N 
HETATM   33  H   UNL     1      42.306 -10.817   1.733  1.00  0.00     0.188 HD
ENDBRANCH   2  23
BRANCH   4  34
HETATM   34  C   UNL     1      40.977  -9.656   5.934  1.00  0.00     0.105 A 
HETATM   35  O   UNL     1      41.878  -8.872   6.600  1.00  0.00    -0.320 OA
HETATM   36  C   UNL     1      41.193  -7.830   7.137  1.00  0.00     0.142 A 
HETATM   37  C   UNL     1      39.857  -7.925   6.830  1.00  0.00     0.027 A 
HETATM   38  C   UNL     1      39.715  -9.104   6.057  1.00  0.00     0.041 A 
ENDBRANCH   4  34
TORSDOF 6
ENDMDL
MODEL 6
REMARK VINA RESULT:      -8.8      2.497      7.474
REMARK  6 active torsions:
REMARK  status: ('A' for Active; 'I' for Inactive)
REMARK    1  A    between atoms: C_2  and  O_3 
REMARK    2  A    between atoms: O_3  and  C_4 
REMARK    3  A    between atoms: C_5  and  C_6 
REMARK       I    between atoms: C_6  and  N_7 
REMARK    4  A    between atoms: N_7  and  C_8 
REMARK    5  A    between atoms: N_9  and  C_10 
REMARK    6  A    between atoms: C_21  and  C_22 
ROOT
HETATM    1  C   UNL     1      42.331 -16.476   3.460  1.00  0.00     0.152 A 
HETATM    2  N   UNL     1      41.873 -16.777   2.186  1.00  0.00    -0.044 N 
HETATM    3  N   UNL     1      42.288 -18.006   1.756  1.00  0.00    -0.148 NA
HETATM    4  C   UNL     1      43.018 -18.471   2.779  1.00  0.00     0.115 A 
HETATM    5  C   UNL     1      43.102 -17.549   3.844  1.00  0.00     0.087 A 
ENDROOT
BRANCH   1   6
HETATM    6  N   UNL     1      41.973 -15.307   4.109  1.00  0.00    -0.307 N 
HETATM    7  C   UNL     1      42.551 -14.082   3.856  1.00  0.00     0.261 C 
HETATM    8  O   UNL     1      43.293 -13.783   2.929  1.00  0.00    -0.267 OA
HETATM    9  H   UNL     1      41.287 -15.382   4.864  1.00  0.00     0.170 HD
BRANCH   7  10
HETATM   10  C   UNL     1      42.168 -13.058   4.853  1.00  0.00     0.076 A 
HETATM   11  C   UNL     1      42.967 -12.943   6.006  1.00  0.00     0.085 A 
HETATM   12  C   UNL     1      42.600 -12.023   6.986  1.00  0.00     0.039 A 
HETATM   13  C   UNL     1      41.453 -11.241   6.819  1.00  0.00     0.015 A 
HETATM   14  C   UNL     1      40.648 -11.357   5.674  1.00  0.00    -0.025 A 
HETATM   15  C   UNL     1      41.002 -12.274   4.657  1.00  0.00    -0.007 A 
HETATM   16  C   UNL     1      39.490 -10.573   5.538  1.00  0.00     0.012 A 
HETATM   17  C   UNL     1      40.167 -12.360   3.518  1.00  0.00     0.013 A 
HETATM   18  C   UNL     1      39.018 -11.575   3.399  1.00  0.00     0.001 A 
HETATM   19  C   UNL     1      38.680 -10.684   4.409  1.00  0.00     0.001 A 
BRANCH  11  20
HETATM   20  O   UNL     1      44.046 -13.780   6.090  1.00  0.00    -0.350 OA
BRANCH  20  21
HETATM   21  C   UNL     1      44.311 -14.420   7.336  1.00  0.00     0.171 C 
HETATM   22  C   UNL     1      43.970 -15.891   7.180  1.00  0.00     0.034 C 
ENDBRANCH  20  21
ENDBRANCH  11  20
ENDBRANCH   7  10
ENDBRANCH   1   6
BRANCH   2  23
HETATM   23  C   UNL     1      41.063 -15.980   1.352  1.00  0.00     0.732 A 
HETATM   24  N   UNL     1      39.901 -15.521   1.716  1.00  0.00    -0.067 NA
HETATM   25  C   UNL     1      39.280 -14.760   0.769  1.00  0.00     0.065 A 
HETATM   26  C   UNL     1      39.755 -14.475  -0.445  1.00  0.00     0.036 A 
HETATM   27  C   UNL     1      37.945 -14.131   0.989  1.00  0.00     0.061 C 
HETATM   28  C   UNL     1      38.853 -13.620  -1.248  1.00  0.00     0.047 C 
HETATM   29  C   UNL     1      41.060 -15.005  -0.842  1.00  0.00     0.268 A 
HETATM   30  C   UNL     1      37.841 -13.154  -0.192  1.00  0.00     0.011 C 
HETATM   31  O   UNL     1      41.555 -14.787  -1.938  1.00  0.00    -0.267 OA
HETATM   32  N   UNL     1      41.657 -15.758   0.131  1.00  0.00    -0.152 N 
HETATM   33  H   UNL     1      42.569 -16.165  -0.053  1.00  0.00     0.188 HD
ENDBRANCH   2  23
BRANCH   4  34
HETATM   34  C   UNL     1      43.639 -19.827   2.775  1.00  0.00     0.105 A 
HETATM   35  O   UNL     1      44.333 -20.366   3.823  1.00  0.00    -0.320 OA
HETATM   36  C   UNL     1      44.724 -21.613   3.454  1.00  0.00     0.142 A 
HETATM   37  C   UNL     1      44.294 -21.894   2.180  1.00  0.00     0.027 A 
HETATM   38  C   UNL     1      43.597 -20.743   1.739  1.00  0.00     0.041 A 
ENDBRANCH   4  34
TORSDOF 6
ENDMDL
MODEL 7
REMARK VINA RESULT:      -8.7      2.048      2.697
REMARK  6 active torsions:
REMARK  status: ('A' for Active; 'I' for Inactive)
REMARK    1  A    between atoms: C_2  and  O_3 
REMARK    2  A    between atoms: O_3  and  C_4 
REMARK    3  A    between atoms: C_5  and  C_6 
REMARK       I    between atoms: C_6  and  N_7 
REMARK    4  A    between atoms: N_7  and  C_8 
REMARK    5  A    between atoms: N_9  and  C_10 
REMARK    6  A    between atoms: C_21  and  C_22 
ROOT
HETATM    1  C   UNL     1      42.259 -13.401   4.561  1.00  0.00     0.152 A 
HETATM    2  N   UNL     1      41.670 -12.286   3.983  1.00  0.00    -0.044 N 
HETATM    3  N   UNL     1      41.385 -11.312   4.898  1.00  0.00    -0.148 NA
HETATM    4  C   UNL     1      41.801 -11.833   6.060  1.00  0.00     0.115 A 
HETATM    5  C   UNL     1      42.320 -13.136   5.909  1.00  0.00     0.087 A 
ENDROOT
BRANCH   1   6
HETATM    6  N   UNL     1      42.686 -14.478   3.803  1.00  0.00    -0.307 N 
HETATM    7  C   UNL     1      42.007 -15.674   3.722  1.00  0.00     0.261 C 
HETATM    8  O   UNL     1      40.873 -15.919   4.114  1.00  0.00    -0.267 OA
HETATM    9  H   UNL     1      43.591 -14.392   3.335  1.00  0.00     0.170 HD
BRANCH   7  10
HETATM   10  C   UNL     1      42.800 -16.732   3.055  1.00  0.00     0.076 A 
HETATM   11  C   UNL     1      42.968 -16.635   1.661  1.00  0.00     0.085 A 
HETATM   12  C   UNL     1      43.665 -17.644   1.000  1.00  0.00     0.039 A 
HETATM   13  C   UNL     1      44.177 -18.730   1.717  1.00  0.00     0.015 A 
HETATM   14  C   UNL     1      44.004 -18.834   3.107  1.00  0.00    -0.025 A 
HETATM   15  C   UNL     1      43.311 -17.820   3.807  1.00  0.00    -0.007 A 
HETATM   16  C   UNL     1      44.510 -19.944   3.804  1.00  0.00     0.012 A 
HETATM   17  C   UNL     1      43.160 -17.961   5.207  1.00  0.00     0.013 A 
HETATM   18  C   UNL     1      43.668 -19.071   5.884  1.00  0.00     0.001 A 
HETATM   19  C   UNL     1      44.341 -20.063   5.182  1.00  0.00     0.001 A 
BRANCH  11  20
HETATM   20  O   UNL     1      42.398 -15.553   1.047  1.00  0.00    -0.350 OA
BRANCH  20  21
HETATM   21  C   UNL     1      41.345 -15.781   0.114  1.00  0.00     0.171 C 
HETATM   22  C   UNL     1      40.070 -15.214   0.711  1.00  0.00     0.034 C 
ENDBRANCH  20  21
ENDBRANCH  11  20
ENDBRANCH   7  10
ENDBRANCH   1   6
BRANCH   2  23
HETATM   23  C   UNL     1      41.364 -12.081   2.623  1.00  0.00     0.732 A 
HETATM   24  N   UNL     1      42.235 -12.233   1.668  1.00  0.00    -0.067 NA
HETATM   25  C   UNL     1      41.738 -11.999   0.418  1.00  0.00     0.065 A 
HETATM   26  C   UNL     1      40.488 -11.636   0.125  1.00  0.00     0.036 A 
HETATM   27  C   UNL     1      42.567 -12.129  -0.816  1.00  0.00     0.061 C 
HETATM   28  C   UNL     1      40.247 -11.460  -1.324  1.00  0.00     0.047 C 
HETATM   29  C   UNL     1      39.524 -11.461   1.212  1.00  0.00     0.268 A 
HETATM   30  C   UNL     1      41.511 -12.086  -1.930  1.00  0.00     0.011 C 
HETATM   31  O   UNL     1      38.365 -11.127   1.017  1.00  0.00    -0.267 OA
HETATM   32  N   UNL     1      40.051 -11.709   2.448  1.00  0.00    -0.152 N 
HETATM   33  H   UNL     1      39.454 -11.616   3.264  1.00  0.00     0.188 HD
ENDBRANCH   2  23
BRANCH   4  34
HETATM   34  C   UNL     1      41.734 -11.085   7.349  1.00  0.00     0.105 A 
HETATM   35  O   UNL     1      42.816 -10.797   8.135  1.00  0.00    -0.320 OA
HETATM   36  C   UNL     1      42.365 -10.092   9.204  1.00  0.00     0.142 A 
HETATM   37  C   UNL     1      41.005  -9.917   9.125  1.00  0.00     0.027 A 
HETATM   38  C   UNL     1      40.595 -10.559   7.930  1.00  0.00     0.041 A 
ENDBRANCH   4  34
TORSDOF 6
ENDMDL
MODEL 8
REMARK VINA RESULT:      -8.6      3.092      7.930
REMARK  6 active torsions:
REMARK  status: ('A' for Active; 'I' for Inactive)
REMARK    1  A    between atoms: C_2  and  O_3 
REMARK    2  A    between atoms: O_3  and  C_4 
REMARK    3  A    between atoms: C_5  and  C_6 
REMARK       I    between atoms: C_6  and  N_7 
REMARK    4  A    between atoms: N_7  and  C_8 
REMARK    5  A    between atoms: N_9  and  C_10 
REMARK    6  A    between atoms: C_21  and  C_22 
ROOT
HETATM    1  C   UNL     1      41.763 -15.754   2.339  1.00  0.00     0.152 A 
HETATM    2  N   UNL     1      42.075 -16.068   1.025  1.00  0.00    -0.044 N 
HETATM    3  N   UNL     1      42.756 -17.248   0.916  1.00  0.00    -0.148 NA
HETATM    4  C   UNL     1      42.870 -17.669   2.184  1.00  0.00     0.115 A 
HETATM    5  C   UNL     1      42.300 -16.764   3.103  1.00  0.00     0.087 A 
ENDROOT
BRANCH   1   6
HETATM    6  N   UNL     1      41.018 -14.634   2.666  1.00  0.00    -0.307 N 
HETATM    7  C   UNL     1      39.661 -14.527   2.452  1.00  0.00     0.261 C 
HETATM    8  O   UNL     1      38.880 -15.418   2.145  1.00  0.00    -0.267 OA
HETATM    9  H   UNL     1      41.526 -13.821   3.023  1.00  0.00     0.170 HD
BRANCH   7  10
HETATM   10  C   UNL     1      39.163 -13.147   2.654  1.00  0.00     0.076 A 
HETATM   11  C   UNL     1      39.171 -12.639   3.967  1.00  0.00     0.085 A 
HETATM   12  C   UNL     1      38.660 -11.364   4.194  1.00  0.00     0.039 A 
HETATM   13  C   UNL     1      38.143 -10.616   3.132  1.00  0.00     0.015 A 
HETATM   14  C   UNL     1      38.124 -11.121   1.822  1.00  0.00    -0.025 A 
HETATM   15  C   UNL     1      38.648 -12.408   1.559  1.00  0.00    -0.007 A 
HETATM   16  C   UNL     1      37.583 -10.359   0.774  1.00  0.00     0.012 A 
HETATM   17  C   UNL     1      38.613 -12.881   0.226  1.00  0.00     0.013 A 
HETATM   18  C   UNL     1      38.069 -12.111  -0.805  1.00  0.00     0.001 A 
HETATM   19  C   UNL     1      37.553 -10.852  -0.529  1.00  0.00     0.001 A 
BRANCH  11  20
HETATM   20  O   UNL     1      39.664 -13.465   4.941  1.00  0.00    -0.350 OA
BRANCH  20  21
HETATM   21  C   UNL     1      40.364 -12.879   6.035  1.00  0.00     0.171 C 
HETATM   22  C   UNL     1      41.820 -12.740   5.629  1.00  0.00     0.034 C 
ENDBRANCH  20  21
ENDBRANCH  11  20
ENDBRANCH   7  10
ENDBRANCH   1   6
BRANCH   2  23
HETATM   23  C   UNL     1      41.767 -15.328  -0.133  1.00  0.00     0.732 A 
HETATM   24  N   UNL     1      42.017 -14.056  -0.253  1.00  0.00    -0.067 NA
HETATM   25  C   UNL     1      41.653 -13.527  -1.457  1.00  0.00     0.065 A 
HETATM   26  C   UNL     1      41.082 -14.188  -2.465  1.00  0.00     0.036 A 
HETATM   27  C   UNL     1      41.863 -12.090  -1.802  1.00  0.00     0.061 C 
HETATM   28  C   UNL     1      40.809 -13.343  -3.649  1.00  0.00     0.047 C 
HETATM   29  C   UNL     1      40.801 -15.616  -2.312  1.00  0.00     0.268 A 
HETATM   30  C   UNL     1      41.604 -12.072  -3.316  1.00  0.00     0.011 C 
HETATM   31  O   UNL     1      40.276 -16.283  -3.192  1.00  0.00    -0.267 OA
HETATM   32  N   UNL     1      41.181 -16.115  -1.098  1.00  0.00    -0.152 N 
HETATM   33  H   UNL     1      41.028 -17.099  -0.902  1.00  0.00     0.188 HD
ENDBRANCH   2  23
BRANCH   4  34
HETATM   34  C   UNL     1      43.510 -18.966   2.548  1.00  0.00     0.105 A 
HETATM   35  O   UNL     1      44.254 -19.174   3.677  1.00  0.00    -0.320 OA
HETATM   36  C   UNL     1      44.647 -20.473   3.670  1.00  0.00     0.142 A 
HETATM   37  C   UNL     1      44.170 -21.114   2.553  1.00  0.00     0.027 A 
HETATM   38  C   UNL     1      43.439 -20.143   1.826  1.00  0.00     0.041 A 
ENDBRANCH   4  34
TORSDOF 6
ENDMDL
MODEL 9
REMARK VINA RESULT:      -8.3      2.560      6.802
REMARK  6 active torsions:
REMARK  status: ('A' for Active; 'I' for Inactive)
REMARK    1  A    between atoms: C_2  and  O_3 
REMARK    2  A    between atoms: O_3  and  C_4 
REMARK    3  A    between atoms: C_5  and  C_6 
REMARK       I    between atoms: C_6  and  N_7 
REMARK    4  A    between atoms: N_7  and  C_8 
REMARK    5  A    between atoms: N_9  and  C_10 
REMARK    6  A    between atoms: C_21  and  C_22 
ROOT
HETATM    1  C   UNL     1      42.448 -16.109   1.224  1.00  0.00     0.152 A 
HETATM    2  N   UNL     1      41.988 -14.869   1.641  1.00  0.00    -0.044 N 
HETATM    3  N   UNL     1      41.318 -14.201   0.654  1.00  0.00    -0.148 NA
HETATM    4  C   UNL     1      41.368 -15.039  -0.390  1.00  0.00     0.115 A 
HETATM    5  C   UNL     1      42.084 -16.219  -0.098  1.00  0.00     0.087 A 
ENDROOT
BRANCH   1   6
HETATM    6  N   UNL     1      43.096 -16.976   2.087  1.00  0.00    -0.307 N 
HETATM    7  C   UNL     1      42.497 -18.078   2.658  1.00  0.00     0.261 C 
HETATM    8  O   UNL     1      41.417 -18.578   2.368  1.00  0.00    -0.267 OA
HETATM    9  H   UNL     1      44.051 -16.737   2.361  1.00  0.00     0.170 HD
BRANCH   7  10
HETATM   10  C   UNL     1      43.325 -18.683   3.726  1.00  0.00     0.076 A 
HETATM   11  C   UNL     1      44.238 -19.687   3.350  1.00  0.00     0.085 A 
HETATM   12  C   UNL     1      44.992 -20.310   4.342  1.00  0.00     0.039 A 
HETATM   13  C   UNL     1      44.831 -19.942   5.681  1.00  0.00     0.015 A 
HETATM   14  C   UNL     1      43.916 -18.948   6.062  1.00  0.00    -0.025 A 
HETATM   15  C   UNL     1      43.145 -18.289   5.076  1.00  0.00    -0.007 A 
HETATM   16  C   UNL     1      43.758 -18.609   7.416  1.00  0.00     0.012 A 
HETATM   17  C   UNL     1      42.235 -17.291   5.500  1.00  0.00     0.013 A 
HETATM   18  C   UNL     1      42.088 -16.967   6.850  1.00  0.00     0.001 A 
HETATM   19  C   UNL     1      42.848 -17.628   7.807  1.00  0.00     0.001 A 
BRANCH  11  20
HETATM   20  O   UNL     1      44.293 -19.998   2.019  1.00  0.00    -0.350 OA
BRANCH  20  21
HETATM   21  C   UNL     1      44.253 -21.372   1.643  1.00  0.00     0.171 C 
HETATM   22  C   UNL     1      42.800 -21.812   1.661  1.00  0.00     0.034 C 
ENDBRANCH  20  21
ENDBRANCH  11  20
ENDBRANCH   7  10
ENDBRANCH   1   6
BRANCH   2  23
HETATM   23  C   UNL     1      42.135 -14.278   2.911  1.00  0.00     0.732 A 
HETATM   24  N   UNL     1      43.103 -14.579   3.728  1.00  0.00    -0.067 NA
HETATM   25  C   UNL     1      43.076 -13.888   4.904  1.00  0.00     0.065 A 
HETATM   26  C   UNL     1      42.167 -12.977   5.259  1.00  0.00     0.036 A 
HETATM   27  C   UNL     1      44.101 -14.074   5.972  1.00  0.00     0.061 C 
HETATM   28  C   UNL     1      42.405 -12.394   6.597  1.00  0.00     0.047 C 
HETATM   29  C   UNL     1      41.081 -12.657   4.333  1.00  0.00     0.268 A 
HETATM   30  C   UNL     1      43.827 -12.885   6.904  1.00  0.00     0.011 C 
HETATM   31  O   UNL     1      40.213 -11.837   4.593  1.00  0.00    -0.267 OA
HETATM   32  N   UNL     1      41.140 -13.362   3.163  1.00  0.00    -0.152 N 
HETATM   33  H   UNL     1      40.428 -13.203   2.457  1.00  0.00     0.188 HD
ENDBRANCH   2  23
BRANCH   4  34
HETATM   34  C   UNL     1      40.709 -14.741  -1.695  1.00  0.00     0.105 A 
HETATM   35  O   UNL     1      40.154 -13.536  -2.026  1.00  0.00    -0.320 OA
HETATM   36  C   UNL     1      39.676 -13.643  -3.292  1.00  0.00     0.142 A 
HETATM   37  C   UNL     1      39.911 -14.901  -3.790  1.00  0.00     0.027 A 
HETATM   38  C   UNL     1      40.575 -15.613  -2.760  1.00  0.00     0.041 A 
ENDBRANCH   4  34
TORSDOF 6
ENDMDL
MODEL 10
REMARK VINA RESULT:      -8.2      2.394      6.823
REMARK  6 active torsions:
REMARK  status: ('A' for Active; 'I' for Inactive)
REMARK    1  A    between atoms: C_2  and  O_3 
REMARK    2  A    between atoms: O_3  and  C_4 
REMARK    3  A    between atoms: C_5  and  C_6 
REMARK       I    between atoms: C_6  and  N_7 
REMARK    4  A    between atoms: N_7  and  C_8 
REMARK    5  A    between atoms: N_9  and  C_10 
REMARK    6  A    between atoms: C_21  and  C_22 
ROOT
HETATM    1  C   UNL     1      42.501 -16.498   3.529  1.00  0.00     0.152 A 
HETATM    2  N   UNL     1      42.133 -16.727   2.212  1.00  0.00    -0.044 N 
HETATM    3  N   UNL     1      42.526 -17.957   1.765  1.00  0.00    -0.148 NA
HETATM    4  C   UNL     1      43.151 -18.496   2.821  1.00  0.00     0.115 A 
HETATM    5  C   UNL     1      43.190 -17.620   3.926  1.00  0.00     0.087 A 
ENDROOT
BRANCH   1   6
HETATM    6  N   UNL     1      42.144 -15.339   4.197  1.00  0.00    -0.307 N 
HETATM    7  C   UNL     1      42.868 -14.168   4.139  1.00  0.00     0.261 C 
HETATM    8  O   UNL     1      43.785 -13.892   3.375  1.00  0.00    -0.267 OA
HETATM    9  H   UNL     1      41.334 -15.387   4.818  1.00  0.00     0.170 HD
BRANCH   7  10
HETATM   10  C   UNL     1      42.413 -13.170   5.134  1.00  0.00     0.076 A 
HETATM   11  C   UNL     1      41.265 -12.419   4.822  1.00  0.00     0.085 A 
HETATM   12  C   UNL     1      40.844 -11.438   5.716  1.00  0.00     0.039 A 
HETATM   13  C   UNL     1      41.562 -11.207   6.893  1.00  0.00     0.015 A 
HETATM   14  C   UNL     1      42.714 -11.948   7.205  1.00  0.00    -0.025 A 
HETATM   15  C   UNL     1      43.158 -12.959   6.322  1.00  0.00    -0.007 A 
HETATM   16  C   UNL     1      43.430 -11.685   8.384  1.00  0.00     0.012 A 
HETATM   17  C   UNL     1      44.321 -13.685   6.672  1.00  0.00     0.013 A 
HETATM   18  C   UNL     1      45.023 -13.410   7.848  1.00  0.00     0.001 A 
HETATM   19  C   UNL     1      44.578 -12.409   8.702  1.00  0.00     0.001 A 
BRANCH  11  20
HETATM   20  O   UNL     1      40.656 -12.697   3.628  1.00  0.00    -0.350 OA
BRANCH  20  21
HETATM   21  C   UNL     1      40.319 -11.610   2.771  1.00  0.00     0.171 C 
HETATM   22  C   UNL     1      41.382 -11.529   1.691  1.00  0.00     0.034 C 
ENDBRANCH  20  21
ENDBRANCH  11  20
ENDBRANCH   7  10
ENDBRANCH   1   6
BRANCH   2  23
HETATM   23  C   UNL     1      41.429 -15.862   1.351  1.00  0.00     0.732 A 
HETATM   24  N   UNL     1      41.938 -15.379   0.255  1.00  0.00    -0.067 NA
HETATM   25  C   UNL     1      41.091 -14.569  -0.444  1.00  0.00     0.065 A 
HETATM   26  C   UNL     1      39.843 -14.250  -0.096  1.00  0.00     0.036 A 
HETATM   27  C   UNL     1      41.475 -13.923  -1.734  1.00  0.00     0.061 C 
HETATM   28  C   UNL     1      39.169 -13.354  -1.061  1.00  0.00     0.047 C 
HETATM   29  C   UNL     1      39.288 -14.795   1.144  1.00  0.00     0.268 A 
HETATM   30  C   UNL     1      40.127 -13.410  -2.261  1.00  0.00     0.011 C 
HETATM   31  O   UNL     1      38.155 -14.542   1.526  1.00  0.00    -0.267 OA
HETATM   32  N   UNL     1      40.159 -15.605   1.817  1.00  0.00    -0.152 N 
HETATM   33  H   UNL     1      39.861 -16.032   2.688  1.00  0.00     0.188 HD
ENDBRANCH   2  23
BRANCH   4  34
HETATM   34  C   UNL     1      43.710 -19.879   2.807  1.00  0.00     0.105 A 
HETATM   35  O   UNL     1      44.401 -20.446   3.843  1.00  0.00    -0.320 OA
HETATM   36  C   UNL     1      44.726 -21.710   3.470  1.00  0.00     0.142 A 
HETATM   37  C   UNL     1      44.257 -21.974   2.206  1.00  0.00     0.027 A 
HETATM   38  C   UNL     1      43.604 -20.793   1.776  1.00  0.00     0.041 A 
ENDBRANCH   4  34
TORSDOF 6
ENDMDL
