MODEL 1
REMARK VINA RESULT:      -9.4      0.000      0.000
REMARK  6 active torsions:
REMARK  status: ('A' for Active; 'I' for Inactive)
REMARK    1  A    between atoms: C_4  and  C_5 
REMARK    2  A    between atoms: C_5  and  N_6 
REMARK    3  A    between atoms: N_10  and  N_11 
REMARK       I    between atoms: N_11  and  C_12 
REMARK    4  A    between atoms: C_12  and  C_13 
REMARK       I    between atoms: C_13  and  N_14 
REMARK    5  A    between atoms: N_14  and  C_15 
REMARK    6  A    between atoms: C_18  and  O_19 
ROOT
HETATM    1  N   UNL     1      42.426 -16.571   4.316  1.00  0.00    -0.307 N 
HETATM    2  C   UNL     1      42.197 -15.754   3.223  1.00  0.00     0.280 A 
HETATM    3  O   UNL     1      41.606 -15.971   2.184  1.00  0.00    -0.265 OA
HETATM    4  C   UNL     1      42.852 -14.417   3.563  1.00  0.00     0.157 A 
HETATM    5  N   UNL     1      42.911 -13.337   2.851  1.00  0.00    -0.165 NA
HETATM    6  C   UNL     1      43.430 -14.577   4.889  1.00  0.00     0.027 A 
HETATM    7  C   UNL     1      43.159 -15.883   5.300  1.00  0.00     0.050 A 
HETATM    8  C   UNL     1      44.125 -13.670   5.665  1.00  0.00     0.016 A 
HETATM    9  C   UNL     1      44.564 -14.110   6.914  1.00  0.00     0.001 A 
HETATM   10  C   UNL     1      44.301 -15.425   7.344  1.00  0.00     0.002 A 
HETATM   11  C   UNL     1      43.593 -16.324   6.536  1.00  0.00     0.031 A 
ENDROOT
BRANCH   5  12
HETATM   12  N   UNL     1      42.324 -13.374   1.619  1.00  0.00    -0.238 N 
HETATM   13  C   UNL     1      41.442 -12.383   1.237  1.00  0.00     0.329 C 
HETATM   14  O   UNL     1      41.048 -11.425   1.895  1.00  0.00    -0.261 OA
HETATM   15  H   UNL     1      42.563 -14.111   0.946  1.00  0.00     0.192 HD
BRANCH  13  16
HETATM   16  C   UNL     1      40.945 -12.542  -0.211  1.00  0.00     0.315 C 
HETATM   17  N   UNL     1      40.462 -13.812  -0.445  1.00  0.00    -0.319 N 
HETATM   18  H   UNL     1      40.527 -14.435   0.359  1.00  0.00     0.169 HD
HETATM   19  O   UNL     1      41.005 -11.586  -0.971  1.00  0.00    -0.262 OA
BRANCH  17  20
HETATM   20  C   UNL     1      39.887 -14.320  -1.620  1.00  0.00     0.035 A 
HETATM   21  C   UNL     1      38.619 -13.958  -2.082  1.00  0.00     0.032 A 
HETATM   22  C   UNL     1      38.107 -14.519  -3.259  1.00  0.00     0.039 A 
HETATM   23  C   UNL     1      38.868 -15.440  -3.969  1.00  0.00     0.065 A 
HETATM   24  C   UNL     1      40.131 -15.807  -3.526  1.00  0.00     0.039 A 
HETATM   25  C   UNL     1      40.640 -15.247  -2.352  1.00  0.00     0.032 A 
BRANCH  23  26
HETATM   26  O   UNL     1      38.405 -16.012  -5.116  1.00  0.00    -0.361 OA
HETATM   27  H   UNL     1      38.796 -15.544  -5.874  1.00  0.00     0.217 HD
ENDBRANCH  23  26
ENDBRANCH  17  20
ENDBRANCH  13  16
ENDBRANCH   5  12
BRANCH   1  28
HETATM   28  C   UNL     1      41.986 -17.943   4.396  1.00  0.00     0.171 C 
BRANCH  28  29
HETATM   29  C   UNL     1      42.980 -18.913   3.805  1.00  0.00    -0.040 A 
HETATM   30  C   UNL     1      44.006 -19.463   4.588  1.00  0.00     0.009 A 
HETATM   31  C   UNL     1      44.916 -20.364   4.031  1.00  0.00     0.001 A 
HETATM   32  C   UNL     1      44.815 -20.723   2.689  1.00  0.00     0.000 A 
HETATM   33  C   UNL     1      43.804 -20.181   1.900  1.00  0.00     0.001 A 
HETATM   34  C   UNL     1      42.893 -19.280   2.453  1.00  0.00     0.009 A 
ENDBRANCH  28  29
ENDBRANCH   1  28
TORSDOF 6
ENDMDL
MODEL 2
REMARK VINA RESULT:      -8.9      2.299      2.709
REMARK  6 active torsions:
REMARK  status: ('A' for Active; 'I' for Inactive)
REMARK    1  A    between atoms: C_4  and  C_5 
REMARK    2  A    between atoms: C_5  and  N_6 
REMARK    3  A    between atoms: N_10  and  N_11 
REMARK       I    between atoms: N_11  and  C_12 
REMARK    4  A    between atoms: C_12  and  C_13 
REMARK       I    between atoms: C_13  and  N_14 
REMARK    5  A    between atoms: N_14  and  C_15 
REMARK    6  A    between atoms: C_18  and  O_19 
ROOT
HETATM    1  N   UNL     1      43.056 -17.487   2.954  1.00  0.00    -0.307 N 
HETATM    2  C   UNL     1      42.107 -16.921   2.121  1.00  0.00     0.280 A 
HETATM    3  O   UNL     1      42.067 -16.837   0.910  1.00  0.00    -0.265 OA
HETATM    4  C   UNL     1      41.018 -16.382   3.045  1.00  0.00     0.157 A 
HETATM    5  N   UNL     1      39.924 -15.761   2.736  1.00  0.00    -0.165 NA
HETATM    6  C   UNL     1      41.444 -16.699   4.400  1.00  0.00     0.027 A 
HETATM    7  C   UNL     1      42.673 -17.354   4.301  1.00  0.00     0.050 A 
HETATM    8  C   UNL     1      40.821 -16.443   5.606  1.00  0.00     0.016 A 
HETATM    9  C   UNL     1      41.475 -16.871   6.761  1.00  0.00     0.001 A 
HETATM   10  C   UNL     1      42.716 -17.532   6.679  1.00  0.00     0.002 A 
HETATM   11  C   UNL     1      43.326 -17.779   5.442  1.00  0.00     0.031 A 
ENDROOT
BRANCH   5  12
HETATM   12  N   UNL     1      39.693 -15.535   1.410  1.00  0.00    -0.238 N 
HETATM   13  C   UNL     1      39.936 -14.291   0.863  1.00  0.00     0.329 C 
HETATM   14  O   UNL     1      40.320 -13.275   1.433  1.00  0.00    -0.261 OA
HETATM   15  H   UNL     1      39.380 -16.295   0.795  1.00  0.00     0.192 HD
BRANCH  13  16
HETATM   16  C   UNL     1      39.701 -14.243  -0.657  1.00  0.00     0.315 C 
HETATM   17  N   UNL     1      38.369 -14.052  -0.959  1.00  0.00    -0.319 N 
HETATM   18  H   UNL     1      37.764 -13.991  -0.142  1.00  0.00     0.169 HD
HETATM   19  O   UNL     1      40.655 -14.357  -1.413  1.00  0.00    -0.262 OA
BRANCH  17  20
HETATM   20  C   UNL     1      37.777 -13.910  -2.224  1.00  0.00     0.035 A 
HETATM   21  C   UNL     1      37.578 -14.970  -3.111  1.00  0.00     0.032 A 
HETATM   22  C   UNL     1      36.991 -14.747  -4.362  1.00  0.00     0.039 A 
HETATM   23  C   UNL     1      36.605 -13.461  -4.721  1.00  0.00     0.065 A 
HETATM   24  C   UNL     1      36.793 -12.397  -3.850  1.00  0.00     0.039 A 
HETATM   25  C   UNL     1      37.378 -12.621  -2.602  1.00  0.00     0.032 A 
BRANCH  23  26
HETATM   26  O   UNL     1      36.035 -13.200  -5.931  1.00  0.00    -0.361 OA
HETATM   27  H   UNL     1      35.075 -13.113  -5.807  1.00  0.00     0.217 HD
ENDBRANCH  23  26
ENDBRANCH  17  20
ENDBRANCH  13  16
ENDBRANCH   5  12
BRANCH   1  28
HETATM   28  C   UNL     1      44.274 -18.100   2.479  1.00  0.00     0.171 C 
BRANCH  28  29
HETATM   29  C   UNL     1      44.285 -19.598   2.664  1.00  0.00    -0.040 A 
HETATM   30  C   UNL     1      44.888 -20.184   3.787  1.00  0.00     0.009 A 
HETATM   31  C   UNL     1      44.887 -21.570   3.950  1.00  0.00     0.001 A 
HETATM   32  C   UNL     1      44.287 -22.388   2.995  1.00  0.00     0.000 A 
HETATM   33  C   UNL     1      43.687 -21.820   1.874  1.00  0.00     0.001 A 
HETATM   34  C   UNL     1      43.688 -20.434   1.708  1.00  0.00     0.009 A 
ENDBRANCH  28  29
ENDBRANCH   1  28
TORSDOF 6
ENDMDL
MODEL 3
REMARK VINA RESULT:      -8.8      2.368      8.057
REMARK  6 active torsions:
REMARK  status: ('A' for Active; 'I' for Inactive)
REMARK    1  A    between atoms: C_4  and  C_5 
REMARK    2  A    between atoms: C_5  and  N_6 
REMARK    3  A    between atoms: N_10  and  N_11 
REMARK       I    between atoms: N_11  and  C_12 
REMARK    4  A    between atoms: C_12  and  C_13 
REMARK       I    between atoms: C_13  and  N_14 
REMARK    5  A    between atoms: N_14  and  C_15 
REMARK    6  A    between atoms: C_18  and  O_19 
ROOT
HETATM    1  N   UNL     1      41.504 -13.515  -0.932  1.00  0.00    -0.307 N 
HETATM    2  C   UNL     1      41.553 -14.430   0.105  1.00  0.00     0.280 A 
HETATM    3  O   UNL     1      41.735 -15.631   0.092  1.00  0.00    -0.265 OA
HETATM    4  C   UNL     1      41.334 -13.618   1.380  1.00  0.00     0.157 A 
HETATM    5  N   UNL     1      41.290 -14.030   2.608  1.00  0.00    -0.165 NA
HETATM    6  C   UNL     1      41.173 -12.235   0.956  1.00  0.00     0.027 A 
HETATM    7  C   UNL     1      41.273 -12.219  -0.436  1.00  0.00     0.050 A 
HETATM    8  C   UNL     1      40.960 -11.098   1.711  1.00  0.00     0.016 A 
HETATM    9  C   UNL     1      40.844  -9.892   1.021  1.00  0.00     0.001 A 
HETATM   10  C   UNL     1      40.941  -9.857  -0.384  1.00  0.00     0.002 A 
HETATM   11  C   UNL     1      41.158 -11.027  -1.125  1.00  0.00     0.031 A 
ENDROOT
BRANCH   5  12
HETATM   12  N   UNL     1      41.447 -15.369   2.818  1.00  0.00    -0.238 N 
HETATM   13  C   UNL     1      42.505 -15.837   3.572  1.00  0.00     0.329 C 
HETATM   14  O   UNL     1      43.410 -15.191   4.089  1.00  0.00    -0.261 OA
HETATM   15  H   UNL     1      40.760 -16.041   2.457  1.00  0.00     0.192 HD
BRANCH  13  16
HETATM   16  C   UNL     1      42.475 -17.362   3.774  1.00  0.00     0.315 C 
HETATM   17  N   UNL     1      43.527 -17.980   3.130  1.00  0.00    -0.319 N 
HETATM   18  H   UNL     1      44.133 -17.340   2.619  1.00  0.00     0.169 HD
HETATM   19  O   UNL     1      41.589 -17.858   4.454  1.00  0.00    -0.262 OA
BRANCH  17  20
HETATM   20  C   UNL     1      43.859 -19.343   3.120  1.00  0.00     0.035 A 
HETATM   21  C   UNL     1      43.637 -20.189   2.031  1.00  0.00     0.032 A 
HETATM   22  C   UNL     1      43.984 -21.543   2.102  1.00  0.00     0.039 A 
HETATM   23  C   UNL     1      44.554 -22.047   3.266  1.00  0.00     0.065 A 
HETATM   24  C   UNL     1      44.785 -21.219   4.356  1.00  0.00     0.039 A 
HETATM   25  C   UNL     1      44.438 -19.868   4.283  1.00  0.00     0.032 A 
BRANCH  23  26
HETATM   26  O   UNL     1      44.902 -23.359   3.378  1.00  0.00    -0.361 OA
HETATM   27  H   UNL     1      44.428 -23.864   2.695  1.00  0.00     0.217 HD
ENDBRANCH  23  26
ENDBRANCH  17  20
ENDBRANCH  13  16
ENDBRANCH   5  12
BRANCH   1  28
HETATM   28  C   UNL     1      41.646 -13.874  -2.323  1.00  0.00     0.171 C 
BRANCH  28  29
HETATM   29  C   UNL     1      40.375 -14.433  -2.916  1.00  0.00    -0.040 A 
HETATM   30  C   UNL     1      40.325 -15.744  -3.412  1.00  0.00     0.009 A 
HETATM   31  C   UNL     1      39.143 -16.253  -3.953  1.00  0.00     0.001 A 
HETATM   32  C   UNL     1      37.999 -15.459  -4.007  1.00  0.00     0.000 A 
HETATM   33  C   UNL     1      38.036 -14.154  -3.520  1.00  0.00     0.001 A 
HETATM   34  C   UNL     1      39.217 -13.644  -2.980  1.00  0.00     0.009 A 
ENDBRANCH  28  29
ENDBRANCH   1  28
TORSDOF 6
ENDMDL
MODEL 4
REMARK VINA RESULT:      -8.7      2.024      4.338
REMARK  6 active torsions:
REMARK  status: ('A' for Active; 'I' for Inactive)
REMARK    1  A    between atoms: C_4  and  C_5 
REMARK    2  A    between atoms: C_5  and  N_6 
REMARK    3  A    between atoms: N_10  and  N_11 
REMARK       I    between atoms: N_11  and  C_12 
REMARK    4  A    between atoms: C_12  and  C_13 
REMARK       I    between atoms: C_13  and  N_14 
REMARK    5  A    between atoms: N_14  and  C_15 
REMARK    6  A    between atoms: C_18  and  O_19 
ROOT
HETATM    1  N   UNL     1      41.799 -17.181   4.198  1.00  0.00    -0.307 N 
HETATM    2  C   UNL     1      41.196 -16.696   3.051  1.00  0.00     0.280 A 
HETATM    3  O   UNL     1      40.347 -15.839   2.906  1.00  0.00    -0.265 OA
HETATM    4  C   UNL     1      41.827 -17.470   1.896  1.00  0.00     0.157 A 
HETATM    5  N   UNL     1      41.586 -17.375   0.627  1.00  0.00    -0.165 NA
HETATM    6  C   UNL     1      42.793 -18.377   2.498  1.00  0.00     0.027 A 
HETATM    7  C   UNL     1      42.738 -18.178   3.878  1.00  0.00     0.050 A 
HETATM    8  C   UNL     1      43.639 -19.291   1.900  1.00  0.00     0.016 A 
HETATM    9  C   UNL     1      44.467 -20.033   2.742  1.00  0.00     0.001 A 
HETATM   10  C   UNL     1      44.424 -19.846   4.137  1.00  0.00     0.002 A 
HETATM   11  C   UNL     1      43.555 -18.912   4.717  1.00  0.00     0.031 A 
ENDROOT
BRANCH   5  12
HETATM   12  N   UNL     1      40.633 -16.477   0.243  1.00  0.00    -0.238 N 
HETATM   13  C   UNL     1      40.999 -15.244  -0.261  1.00  0.00     0.329 C 
HETATM   14  O   UNL     1      42.130 -14.786  -0.393  1.00  0.00    -0.261 OA
HETATM   15  H   UNL     1      39.636 -16.720   0.282  1.00  0.00     0.192 HD
BRANCH  13  16
HETATM   16  C   UNL     1      39.799 -14.398  -0.720  1.00  0.00     0.315 C 
HETATM   17  N   UNL     1      39.496 -14.623  -2.046  1.00  0.00    -0.319 N 
HETATM   18  H   UNL     1      40.117 -15.289  -2.505  1.00  0.00     0.169 HD
HETATM   19  O   UNL     1      39.246 -13.661   0.084  1.00  0.00    -0.262 OA
BRANCH  17  20
HETATM   20  C   UNL     1      38.449 -14.076  -2.803  1.00  0.00     0.035 A 
HETATM   21  C   UNL     1      38.222 -12.704  -2.936  1.00  0.00     0.032 A 
HETATM   22  C   UNL     1      37.146 -12.234  -3.699  1.00  0.00     0.039 A 
HETATM   23  C   UNL     1      36.301 -13.141  -4.328  1.00  0.00     0.065 A 
HETATM   24  C   UNL     1      36.515 -14.507  -4.209  1.00  0.00     0.039 A 
HETATM   25  C   UNL     1      37.589 -14.975  -3.448  1.00  0.00     0.032 A 
BRANCH  23  26
HETATM   26  O   UNL     1      35.241 -12.726  -5.076  1.00  0.00    -0.361 OA
HETATM   27  H   UNL     1      35.569 -12.140  -5.779  1.00  0.00     0.217 HD
ENDBRANCH  23  26
ENDBRANCH  17  20
ENDBRANCH  13  16
ENDBRANCH   5  12
BRANCH   1  28
HETATM   28  C   UNL     1      41.471 -16.726   5.528  1.00  0.00     0.171 C 
BRANCH  28  29
HETATM   29  C   UNL     1      42.421 -15.668   6.035  1.00  0.00    -0.040 A 
HETATM   30  C   UNL     1      43.496 -16.003   6.872  1.00  0.00     0.009 A 
HETATM   31  C   UNL     1      44.372 -15.017   7.330  1.00  0.00     0.001 A 
HETATM   32  C   UNL     1      44.184 -13.687   6.961  1.00  0.00     0.000 A 
HETATM   33  C   UNL     1      43.119 -13.340   6.134  1.00  0.00     0.001 A 
HETATM   34  C   UNL     1      42.241 -14.324   5.675  1.00  0.00     0.009 A 
ENDBRANCH  28  29
ENDBRANCH   1  28
TORSDOF 6
ENDMDL
MODEL 5
REMARK VINA RESULT:      -8.6      4.435      9.439
REMARK  6 active torsions:
REMARK  status: ('A' for Active; 'I' for Inactive)
REMARK    1  A    between atoms: C_4  and  C_5 
REMARK    2  A    between atoms: C_5  and  N_6 
REMARK    3  A    between atoms: N_10  and  N_11 
REMARK       I    between atoms: N_11  and  C_12 
REMARK    4  A    between atoms: C_12  and  C_13 
REMARK       I    between atoms: C_13  and  N_14 
REMARK    5  A    between atoms: N_14  and  C_15 
REMARK    6  A    between atoms: C_18  and  O_19 
ROOT
HETATM    1  N   UNL     1      41.609 -14.925   4.649  1.00  0.00    -0.307 N 
HETATM    2  C   UNL     1      42.314 -14.395   5.715  1.00  0.00     0.280 A 
HETATM    3  O   UNL     1      42.155 -13.360   6.332  1.00  0.00    -0.265 OA
HETATM    4  C   UNL     1      43.412 -15.409   6.028  1.00  0.00     0.157 A 
HETATM    5  N   UNL     1      44.329 -15.358   6.941  1.00  0.00    -0.165 NA
HETATM    6  C   UNL     1      43.240 -16.496   5.075  1.00  0.00     0.027 A 
HETATM    7  C   UNL     1      42.156 -16.162   4.263  1.00  0.00     0.050 A 
HETATM    8  C   UNL     1      43.961 -17.665   4.929  1.00  0.00     0.016 A 
HETATM    9  C   UNL     1      43.562 -18.534   3.914  1.00  0.00     0.001 A 
HETATM   10  C   UNL     1      42.470 -18.212   3.084  1.00  0.00     0.002 A 
HETATM   11  C   UNL     1      41.756 -17.018   3.255  1.00  0.00     0.031 A 
ENDROOT
BRANCH   5  12
HETATM   12  N   UNL     1      44.348 -14.251   7.739  1.00  0.00    -0.238 N 
HETATM   13  C   UNL     1      45.313 -13.280   7.561  1.00  0.00     0.329 C 
HETATM   14  O   UNL     1      46.246 -13.276   6.764  1.00  0.00    -0.261 OA
HETATM   15  H   UNL     1      43.622 -14.103   8.449  1.00  0.00     0.192 HD
BRANCH  13  16
HETATM   16  C   UNL     1      45.129 -12.067   8.491  1.00  0.00     0.315 C 
HETATM   17  N   UNL     1      43.953 -12.151   9.206  1.00  0.00    -0.319 N 
HETATM   18  H   UNL     1      43.397 -12.978   8.994  1.00  0.00     0.169 HD
HETATM   19  O   UNL     1      45.992 -11.202   8.523  1.00  0.00    -0.262 OA
BRANCH  17  20
HETATM   20  C   UNL     1      43.464 -11.266  10.180  1.00  0.00     0.035 A 
HETATM   21  C   UNL     1      43.940 -11.216  11.492  1.00  0.00     0.032 A 
HETATM   22  C   UNL     1      43.391 -10.312  12.411  1.00  0.00     0.039 A 
HETATM   23  C   UNL     1      42.367  -9.463  12.011  1.00  0.00     0.065 A 
HETATM   24  C   UNL     1      41.884  -9.498  10.710  1.00  0.00     0.039 A 
HETATM   25  C   UNL     1      42.433 -10.399   9.795  1.00  0.00     0.032 A 
BRANCH  23  26
HETATM   26  O   UNL     1      41.802  -8.573  12.875  1.00  0.00    -0.361 OA
HETATM   27  H   UNL     1      41.606  -9.033  13.708  1.00  0.00     0.217 HD
ENDBRANCH  23  26
ENDBRANCH  17  20
ENDBRANCH  13  16
ENDBRANCH   5  12
BRANCH   1  28
HETATM   28  C   UNL     1      40.489 -14.265   4.023  1.00  0.00     0.171 C 
BRANCH  28  29
HETATM   29  C   UNL     1      40.780 -13.836   2.605  1.00  0.00    -0.040 A 
HETATM   30  C   UNL     1      41.834 -12.955   2.318  1.00  0.00     0.009 A 
HETATM   31  C   UNL     1      42.098 -12.571   1.002  1.00  0.00     0.001 A 
HETATM   32  C   UNL     1      41.313 -13.058  -0.041  1.00  0.00     0.000 A 
HETATM   33  C   UNL     1      40.262 -13.931   0.230  1.00  0.00     0.001 A 
HETATM   34  C   UNL     1      39.995 -14.316   1.544  1.00  0.00     0.009 A 
ENDBRANCH  28  29
ENDBRANCH   1  28
TORSDOF 6
ENDMDL
MODEL 6
REMARK VINA RESULT:      -8.6      2.262      2.753
REMARK  6 active torsions:
REMARK  status: ('A' for Active; 'I' for Inactive)
REMARK    1  A    between atoms: C_4  and  C_5 
REMARK    2  A    between atoms: C_5  and  N_6 
REMARK    3  A    between atoms: N_10  and  N_11 
REMARK       I    between atoms: N_11  and  C_12 
REMARK    4  A    between atoms: C_12  and  C_13 
REMARK       I    between atoms: C_13  and  N_14 
REMARK    5  A    between atoms: N_14  and  C_15 
REMARK    6  A    between atoms: C_18  and  O_19 
ROOT
HETATM    1  N   UNL     1      43.275 -17.286   3.649  1.00  0.00    -0.307 N 
HETATM    2  C   UNL     1      42.200 -16.467   3.354  1.00  0.00     0.280 A 
HETATM    3  O   UNL     1      41.793 -16.050   2.289  1.00  0.00    -0.265 OA
HETATM    4  C   UNL     1      41.543 -16.151   4.697  1.00  0.00     0.157 A 
HETATM    5  N   UNL     1      40.504 -15.417   4.940  1.00  0.00    -0.165 NA
HETATM    6  C   UNL     1      42.327 -16.850   5.704  1.00  0.00     0.027 A 
HETATM    7  C   UNL     1      43.359 -17.511   5.035  1.00  0.00     0.050 A 
HETATM    8  C   UNL     1      42.158 -16.907   7.074  1.00  0.00     0.016 A 
HETATM    9  C   UNL     1      43.077 -17.668   7.796  1.00  0.00     0.001 A 
HETATM   10  C   UNL     1      44.125 -18.340   7.137  1.00  0.00     0.002 A 
HETATM   11  C   UNL     1      44.273 -18.266   5.745  1.00  0.00     0.031 A 
ENDROOT
BRANCH   5  12
HETATM   12  N   UNL     1      39.901 -14.823   3.869  1.00  0.00    -0.238 N 
HETATM   13  C   UNL     1      39.857 -13.446   3.769  1.00  0.00     0.329 C 
HETATM   14  O   UNL     1      40.275 -12.615   4.570  1.00  0.00    -0.261 OA
HETATM   15  H   UNL     1      39.513 -15.388   3.105  1.00  0.00     0.192 HD
BRANCH  13  16
HETATM   16  C   UNL     1      39.216 -12.956   2.460  1.00  0.00     0.315 C 
HETATM   17  N   UNL     1      39.753 -13.595   1.361  1.00  0.00    -0.319 N 
HETATM   18  H   UNL     1      40.488 -14.263   1.590  1.00  0.00     0.169 HD
HETATM   19  O   UNL     1      38.334 -12.111   2.506  1.00  0.00    -0.262 OA
BRANCH  17  20
HETATM   20  C   UNL     1      39.396 -13.450   0.012  1.00  0.00     0.035 A 
HETATM   21  C   UNL     1      38.223 -13.969  -0.540  1.00  0.00     0.032 A 
HETATM   22  C   UNL     1      37.942 -13.794  -1.901  1.00  0.00     0.039 A 
HETATM   23  C   UNL     1      38.839 -13.099  -2.704  1.00  0.00     0.065 A 
HETATM   24  C   UNL     1      40.008 -12.575  -2.171  1.00  0.00     0.039 A 
HETATM   25  C   UNL     1      40.286 -12.749  -0.813  1.00  0.00     0.032 A 
BRANCH  23  26
HETATM   26  O   UNL     1      38.606 -12.911  -4.033  1.00  0.00    -0.361 OA
HETATM   27  H   UNL     1      38.350 -13.763  -4.426  1.00  0.00     0.217 HD
ENDBRANCH  23  26
ENDBRANCH  17  20
ENDBRANCH  13  16
ENDBRANCH   5  12
BRANCH   1  28
HETATM   28  C   UNL     1      44.184 -17.803   2.654  1.00  0.00     0.171 C 
BRANCH  28  29
HETATM   29  C   UNL     1      44.049 -19.294   2.457  1.00  0.00    -0.040 A 
HETATM   30  C   UNL     1      42.930 -19.839   1.810  1.00  0.00     0.009 A 
HETATM   31  C   UNL     1      42.819 -21.218   1.628  1.00  0.00     0.001 A 
HETATM   32  C   UNL     1      43.821 -22.069   2.091  1.00  0.00     0.000 A 
HETATM   33  C   UNL     1      44.935 -21.541   2.737  1.00  0.00     0.001 A 
HETATM   34  C   UNL     1      45.049 -20.163   2.921  1.00  0.00     0.009 A 
ENDBRANCH  28  29
ENDBRANCH   1  28
TORSDOF 6
ENDMDL
MODEL 7
REMARK VINA RESULT:      -8.4      2.747      8.402
REMARK  6 active torsions:
REMARK  status: ('A' for Active; 'I' for Inactive)
REMARK    1  A    between atoms: C_4  and  C_5 
REMARK    2  A    between atoms: C_5  and  N_6 
REMARK    3  A    between atoms: N_10  and  N_11 
REMARK       I    between atoms: N_11  and  C_12 
REMARK    4  A    between atoms: C_12  and  C_13 
REMARK       I    between atoms: C_13  and  N_14 
REMARK    5  A    between atoms: N_14  and  C_15 
REMARK    6  A    between atoms: C_18  and  O_19 
ROOT
HETATM    1  N   UNL     1      40.627 -14.003  -1.081  1.00  0.00    -0.307 N 
HETATM    2  C   UNL     1      40.989 -14.834  -0.036  1.00  0.00     0.280 A 
HETATM    3  O   UNL     1      41.969 -15.537   0.113  1.00  0.00    -0.265 OA
HETATM    4  C   UNL     1      39.869 -14.710   0.995  1.00  0.00     0.157 A 
HETATM    5  N   UNL     1      39.752 -15.301   2.142  1.00  0.00    -0.165 NA
HETATM    6  C   UNL     1      38.909 -13.769   0.437  1.00  0.00     0.027 A 
HETATM    7  C   UNL     1      39.397 -13.376  -0.810  1.00  0.00     0.050 A 
HETATM    8  C   UNL     1      37.723 -13.299   0.966  1.00  0.00     0.016 A 
HETATM    9  C   UNL     1      37.001 -12.390   0.193  1.00  0.00     0.001 A 
HETATM   10  C   UNL     1      37.478 -11.983  -1.068  1.00  0.00     0.002 A 
HETATM   11  C   UNL     1      38.686 -12.476  -1.580  1.00  0.00     0.031 A 
ENDROOT
BRANCH   5  12
HETATM   12  N   UNL     1      40.745 -16.166   2.497  1.00  0.00    -0.238 N 
HETATM   13  C   UNL     1      41.649 -15.823   3.484  1.00  0.00     0.329 C 
HETATM   14  O   UNL     1      41.724 -14.770   4.109  1.00  0.00    -0.261 OA
HETATM   15  H   UNL     1      40.808 -17.098   2.070  1.00  0.00     0.192 HD
BRANCH  13  16
HETATM   16  C   UNL     1      42.643 -16.951   3.810  1.00  0.00     0.315 C 
HETATM   17  N   UNL     1      42.417 -18.068   3.033  1.00  0.00    -0.319 N 
HETATM   18  H   UNL     1      41.630 -17.974   2.392  1.00  0.00     0.169 HD
HETATM   19  O   UNL     1      43.500 -16.764   4.662  1.00  0.00    -0.262 OA
BRANCH  17  20
HETATM   20  C   UNL     1      43.140 -19.271   3.010  1.00  0.00     0.035 A 
HETATM   21  C   UNL     1      43.996 -19.682   4.034  1.00  0.00     0.032 A 
HETATM   22  C   UNL     1      44.694 -20.891   3.932  1.00  0.00     0.039 A 
HETATM   23  C   UNL     1      44.533 -21.685   2.803  1.00  0.00     0.065 A 
HETATM   24  C   UNL     1      43.683 -21.293   1.777  1.00  0.00     0.039 A 
HETATM   25  C   UNL     1      42.987 -20.086   1.881  1.00  0.00     0.032 A 
BRANCH  23  26
HETATM   26  O   UNL     1      45.197 -22.866   2.662  1.00  0.00    -0.361 OA
HETATM   27  H   UNL     1      45.614 -22.883   1.784  1.00  0.00     0.217 HD
ENDBRANCH  23  26
ENDBRANCH  17  20
ENDBRANCH  13  16
ENDBRANCH   5  12
BRANCH   1  28
HETATM   28  C   UNL     1      41.410 -13.841  -2.283  1.00  0.00     0.171 C 
BRANCH  28  29
HETATM   29  C   UNL     1      41.996 -12.456  -2.417  1.00  0.00    -0.040 A 
HETATM   30  C   UNL     1      42.702 -11.864  -1.359  1.00  0.00     0.009 A 
HETATM   31  C   UNL     1      43.244 -10.584  -1.496  1.00  0.00     0.001 A 
HETATM   32  C   UNL     1      43.085  -9.881  -2.689  1.00  0.00     0.000 A 
HETATM   33  C   UNL     1      42.384 -10.456  -3.745  1.00  0.00     0.001 A 
HETATM   34  C   UNL     1      41.840 -11.734  -3.610  1.00  0.00     0.009 A 
ENDBRANCH  28  29
ENDBRANCH   1  28
TORSDOF 6
ENDMDL
MODEL 8
REMARK VINA RESULT:      -8.4      2.323      4.773
REMARK  6 active torsions:
REMARK  status: ('A' for Active; 'I' for Inactive)
REMARK    1  A    between atoms: C_4  and  C_5 
REMARK    2  A    between atoms: C_5  and  N_6 
REMARK    3  A    between atoms: N_10  and  N_11 
REMARK       I    between atoms: N_11  and  C_12 
REMARK    4  A    between atoms: C_12  and  C_13 
REMARK       I    between atoms: C_13  and  N_14 
REMARK    5  A    between atoms: N_14  and  C_15 
REMARK    6  A    between atoms: C_18  and  O_19 
ROOT
HETATM    1  N   UNL     1      43.949 -18.007   4.641  1.00  0.00    -0.307 N 
HETATM    2  C   UNL     1      43.649 -17.449   3.411  1.00  0.00     0.280 A 
HETATM    3  O   UNL     1      43.359 -16.309   3.110  1.00  0.00    -0.265 OA
HETATM    4  C   UNL     1      43.760 -18.591   2.403  1.00  0.00     0.157 A 
HETATM    5  N   UNL     1      43.566 -18.566   1.123  1.00  0.00    -0.165 NA
HETATM    6  C   UNL     1      44.137 -19.770   3.169  1.00  0.00     0.027 A 
HETATM    7  C   UNL     1      44.232 -19.379   4.505  1.00  0.00     0.050 A 
HETATM    8  C   UNL     1      44.376 -21.062   2.742  1.00  0.00     0.016 A 
HETATM    9  C   UNL     1      44.727 -21.997   3.716  1.00  0.00     0.001 A 
HETATM   10  C   UNL     1      44.826 -21.619   5.069  1.00  0.00     0.002 A 
HETATM   11  C   UNL     1      44.578 -20.300   5.474  1.00  0.00     0.031 A 
ENDROOT
BRANCH   5  12
HETATM   12  N   UNL     1      43.201 -17.371   0.575  1.00  0.00    -0.238 N 
HETATM   13  C   UNL     1      41.868 -17.017   0.499  1.00  0.00     0.329 C 
HETATM   14  O   UNL     1      40.890 -17.675   0.840  1.00  0.00    -0.261 OA
HETATM   15  H   UNL     1      43.910 -16.702   0.253  1.00  0.00     0.192 HD
BRANCH  13  16
HETATM   16  C   UNL     1      41.649 -15.604  -0.069  1.00  0.00     0.315 C 
HETATM   17  N   UNL     1      41.121 -15.645  -1.343  1.00  0.00    -0.319 N 
HETATM   18  H   UNL     1      40.980 -16.588  -1.702  1.00  0.00     0.169 HD
HETATM   19  O   UNL     1      41.930 -14.634   0.619  1.00  0.00    -0.262 OA
BRANCH  17  20
HETATM   20  C   UNL     1      40.745 -14.570  -2.162  1.00  0.00     0.035 A 
HETATM   21  C   UNL     1      39.422 -14.163  -2.351  1.00  0.00     0.032 A 
HETATM   22  C   UNL     1      39.125 -13.087  -3.196  1.00  0.00     0.039 A 
HETATM   23  C   UNL     1      40.155 -12.421  -3.849  1.00  0.00     0.065 A 
HETATM   24  C   UNL     1      41.475 -12.810  -3.670  1.00  0.00     0.039 A 
HETATM   25  C   UNL     1      41.770 -13.884  -2.827  1.00  0.00     0.032 A 
BRANCH  23  26
HETATM   26  O   UNL     1      39.908 -11.373  -4.683  1.00  0.00    -0.361 OA
HETATM   27  H   UNL     1      40.484 -10.633  -4.428  1.00  0.00     0.217 HD
ENDBRANCH  23  26
ENDBRANCH  17  20
ENDBRANCH  13  16
ENDBRANCH   5  12
BRANCH   1  28
HETATM   28  C   UNL     1      43.940 -17.266   5.880  1.00  0.00     0.171 C 
BRANCH  28  29
HETATM   29  C   UNL     1      42.833 -16.241   5.939  1.00  0.00    -0.040 A 
HETATM   30  C   UNL     1      41.489 -16.632   6.036  1.00  0.00     0.009 A 
HETATM   31  C   UNL     1      40.475 -15.674   6.097  1.00  0.00     0.001 A 
HETATM   32  C   UNL     1      40.790 -14.317   6.059  1.00  0.00     0.000 A 
HETATM   33  C   UNL     1      42.119 -13.916   5.959  1.00  0.00     0.001 A 
HETATM   34  C   UNL     1      43.135 -14.871   5.898  1.00  0.00     0.009 A 
ENDBRANCH  28  29
ENDBRANCH   1  28
TORSDOF 6
ENDMDL
MODEL 9
REMARK VINA RESULT:      -8.4      2.770      7.875
REMARK  6 active torsions:
REMARK  status: ('A' for Active; 'I' for Inactive)
REMARK    1  A    between atoms: C_4  and  C_5 
REMARK    2  A    between atoms: C_5  and  N_6 
REMARK    3  A    between atoms: N_10  and  N_11 
REMARK       I    between atoms: N_11  and  C_12 
REMARK    4  A    between atoms: C_12  and  C_13 
REMARK       I    between atoms: C_13  and  N_14 
REMARK    5  A    between atoms: N_14  and  C_15 
REMARK    6  A    between atoms: C_18  and  O_19 
ROOT
HETATM    1  N   UNL     1      38.669 -13.684   0.917  1.00  0.00    -0.307 N 
HETATM    2  C   UNL     1      39.253 -14.621   1.751  1.00  0.00     0.280 A 
HETATM    3  O   UNL     1      39.534 -15.786   1.558  1.00  0.00    -0.265 OA
HETATM    4  C   UNL     1      39.520 -13.891   3.066  1.00  0.00     0.157 A 
HETATM    5  N   UNL     1      40.051 -14.348   4.156  1.00  0.00    -0.165 NA
HETATM    6  C   UNL     1      39.051 -12.526   2.873  1.00  0.00     0.027 A 
HETATM    7  C   UNL     1      38.542 -12.448   1.575  1.00  0.00     0.050 A 
HETATM    8  C   UNL     1      39.067 -11.454   3.744  1.00  0.00     0.016 A 
HETATM    9  C   UNL     1      38.543 -10.250   3.276  1.00  0.00     0.001 A 
HETATM   10  C   UNL     1      38.023 -10.153   1.971  1.00  0.00     0.002 A 
HETATM   11  C   UNL     1      38.020 -11.257   1.107  1.00  0.00     0.031 A 
ENDROOT
BRANCH   5  12
HETATM   12  N   UNL     1      40.419 -15.661   4.162  1.00  0.00    -0.238 N 
HETATM   13  C   UNL     1      41.755 -16.011   4.146  1.00  0.00     0.329 C 
HETATM   14  O   UNL     1      42.731 -15.269   4.086  1.00  0.00    -0.261 OA
HETATM   15  H   UNL     1      39.714 -16.404   4.222  1.00  0.00     0.192 HD
BRANCH  13  16
HETATM   16  C   UNL     1      41.984 -17.529   4.241  1.00  0.00     0.315 C 
HETATM   17  N   UNL     1      42.927 -17.958   3.330  1.00  0.00    -0.319 N 
HETATM   18  H   UNL     1      43.300 -17.216   2.740  1.00  0.00     0.169 HD
HETATM   19  O   UNL     1      41.362 -18.176   5.071  1.00  0.00    -0.262 OA
BRANCH  17  20
HETATM   20  C   UNL     1      43.431 -19.255   3.148  1.00  0.00     0.035 A 
HETATM   21  C   UNL     1      43.178 -20.035   2.017  1.00  0.00     0.032 A 
HETATM   22  C   UNL     1      43.707 -21.327   1.915  1.00  0.00     0.039 A 
HETATM   23  C   UNL     1      44.489 -21.834   2.946  1.00  0.00     0.065 A 
HETATM   24  C   UNL     1      44.753 -21.071   4.075  1.00  0.00     0.039 A 
HETATM   25  C   UNL     1      44.225 -19.782   4.176  1.00  0.00     0.032 A 
BRANCH  23  26
HETATM   26  O   UNL     1      45.018 -23.088   2.887  1.00  0.00    -0.361 OA
HETATM   27  H   UNL     1      45.144 -23.327   1.953  1.00  0.00     0.217 HD
ENDBRANCH  23  26
ENDBRANCH  17  20
ENDBRANCH  13  16
ENDBRANCH   5  12
BRANCH   1  28
HETATM   28  C   UNL     1      38.236 -13.972  -0.430  1.00  0.00     0.171 C 
BRANCH  28  29
HETATM   29  C   UNL     1      39.324 -13.749  -1.453  1.00  0.00    -0.040 A 
HETATM   30  C   UNL     1      40.174 -14.795  -1.844  1.00  0.00     0.009 A 
HETATM   31  C   UNL     1      41.172 -14.579  -2.796  1.00  0.00     0.001 A 
HETATM   32  C   UNL     1      41.335 -13.318  -3.366  1.00  0.00     0.000 A 
HETATM   33  C   UNL     1      40.500 -12.271  -2.985  1.00  0.00     0.001 A 
HETATM   34  C   UNL     1      39.502 -12.484  -2.033  1.00  0.00     0.009 A 
ENDBRANCH  28  29
ENDBRANCH   1  28
TORSDOF 6
ENDMDL
MODEL 10
REMARK VINA RESULT:      -8.1      4.541      8.896
REMARK  6 active torsions:
REMARK  status: ('A' for Active; 'I' for Inactive)
REMARK    1  A    between atoms: C_4  and  C_5 
REMARK    2  A    between atoms: C_5  and  N_6 
REMARK    3  A    between atoms: N_10  and  N_11 
REMARK       I    between atoms: N_11  and  C_12 
REMARK    4  A    between atoms: C_12  and  C_13 
REMARK       I    between atoms: C_13  and  N_14 
REMARK    5  A    between atoms: N_14  and  C_15 
REMARK    6  A    between atoms: C_18  and  O_19 
ROOT
HETATM    1  N   UNL     1      42.155 -14.354   3.173  1.00  0.00    -0.307 N 
HETATM    2  C   UNL     1      41.664 -13.823   4.353  1.00  0.00     0.280 A 
HETATM    3  O   UNL     1      42.192 -13.686   5.438  1.00  0.00    -0.265 OA
HETATM    4  C   UNL     1      40.233 -13.388   4.044  1.00  0.00     0.157 A 
HETATM    5  N   UNL     1      39.363 -12.839   4.832  1.00  0.00    -0.165 NA
HETATM    6  C   UNL     1      40.005 -13.714   2.644  1.00  0.00     0.027 A 
HETATM    7  C   UNL     1      41.178 -14.298   2.163  1.00  0.00     0.050 A 
HETATM    8  C   UNL     1      38.882 -13.521   1.863  1.00  0.00     0.016 A 
HETATM    9  C   UNL     1      38.954 -13.938   0.534  1.00  0.00     0.001 A 
HETATM   10  C   UNL     1      40.129 -14.531   0.032  1.00  0.00     0.002 A 
HETATM   11  C   UNL     1      41.255 -14.715   0.848  1.00  0.00     0.031 A 
ENDROOT
BRANCH   5  12
HETATM   12  N   UNL     1      39.747 -12.620   6.122  1.00  0.00    -0.238 N 
HETATM   13  C   UNL     1      39.599 -11.370   6.691  1.00  0.00     0.329 C 
HETATM   14  O   UNL     1      39.178 -10.345   6.165  1.00  0.00    -0.261 OA
HETATM   15  H   UNL     1      40.110 -13.387   6.700  1.00  0.00     0.192 HD
BRANCH  13  16
HETATM   16  C   UNL     1      40.006 -11.329   8.174  1.00  0.00     0.315 C 
HETATM   17  N   UNL     1      41.251 -10.759   8.343  1.00  0.00    -0.319 N 
HETATM   18  H   UNL     1      41.699 -10.478   7.472  1.00  0.00     0.169 HD
HETATM   19  O   UNL     1      39.235 -11.762   9.018  1.00  0.00    -0.262 OA
BRANCH  17  20
HETATM   20  C   UNL     1      41.935 -10.507   9.542  1.00  0.00     0.035 A 
HETATM   21  C   UNL     1      43.074 -11.207   9.947  1.00  0.00     0.032 A 
HETATM   22  C   UNL     1      43.695 -10.907  11.166  1.00  0.00     0.039 A 
HETATM   23  C   UNL     1      43.171  -9.906  11.975  1.00  0.00     0.065 A 
HETATM   24  C   UNL     1      42.042  -9.199  11.587  1.00  0.00     0.039 A 
HETATM   25  C   UNL     1      41.424  -9.499  10.370  1.00  0.00     0.032 A 
BRANCH  23  26
HETATM   26  O   UNL     1      43.742  -9.586  13.171  1.00  0.00    -0.361 OA
HETATM   27  H   UNL     1      44.379 -10.282  13.405  1.00  0.00     0.217 HD
ENDBRANCH  23  26
ENDBRANCH  17  20
ENDBRANCH  13  16
ENDBRANCH   5  12
BRANCH   1  28
HETATM   28  C   UNL     1      43.481 -14.905   3.035  1.00  0.00     0.171 C 
BRANCH  28  29
HETATM   29  C   UNL     1      43.482 -16.413   2.951  1.00  0.00    -0.040 A 
HETATM   30  C   UNL     1      43.087 -17.198   4.045  1.00  0.00     0.009 A 
HETATM   31  C   UNL     1      43.086 -18.591   3.954  1.00  0.00     0.001 A 
HETATM   32  C   UNL     1      43.482 -19.216   2.774  1.00  0.00     0.000 A 
HETATM   33  C   UNL     1      43.880 -18.449   1.682  1.00  0.00     0.001 A 
HETATM   34  C   UNL     1      43.882 -17.057   1.770  1.00  0.00     0.009 A 
ENDBRANCH  28  29
ENDBRANCH   1  28
TORSDOF 6
ENDMDL
