MODEL 1
REMARK VINA RESULT:      -7.4      0.000      0.000
REMARK  6 active torsions:
REMARK  status: ('A' for Active; 'I' for Inactive)
REMARK    1  A    between atoms: C_4  and  C_5 
REMARK    2  A    between atoms: C_7  and  N_8 
REMARK    3  A    between atoms: N_8  and  C_9 
REMARK    4  A    between atoms: C_9  and  C_10 
REMARK    5  A    between atoms: C_10  and  C_11 
REMARK    6  A    between atoms: C_11  and  N_12 
ROOT
HETATM    1  C   UNL     1      42.028 -17.525   2.143  1.00  0.00     0.162 C 
HETATM    2  N   UNL     1      41.182 -16.959   3.036  1.00  0.00    -0.216 NA
HETATM    3  C   UNL     1      40.506 -15.867   2.611  1.00  0.00     0.118 C 
HETATM    4  C   UNL     1      40.488 -15.466   1.258  1.00  0.00     0.033 A 
HETATM    5  C   UNL     1      41.339 -16.183   0.413  1.00  0.00     0.072 A 
HETATM    6  N   UNL     1      42.110 -17.178   0.853  1.00  0.00    -0.228 NA
HETATM    7  C   UNL     1      39.690 -14.424   0.711  1.00  0.00     0.017 A 
HETATM    8  C   UNL     1      39.756 -14.107  -0.644  1.00  0.00     0.001 A 
HETATM    9  C   UNL     1      40.614 -14.819  -1.470  1.00  0.00     0.002 A 
HETATM   10  C   UNL     1      41.393 -15.847  -0.934  1.00  0.00     0.032 A 
ENDROOT
BRANCH   3  11
HETATM   11  N   UNL     1      39.699 -15.174   3.545  1.00  0.00    -0.277 NA
HETATM   12  H   UNL     1      38.864 -14.857   3.044  1.00  0.00     0.129 HD
BRANCH  11  13
HETATM   13  C   UNL     1      40.293 -14.047   4.259  1.00  0.00     0.095 C 
BRANCH  13  14
HETATM   14  C   UNL     1      40.271 -14.307   5.765  1.00  0.00     0.042 C 
BRANCH  14  15
HETATM   15  C   UNL     1      40.990 -15.570   6.221  1.00  0.00     0.230 C 
BRANCH  15  16
HETATM   16  N   UNL     1      40.093 -16.742   6.207  1.00  0.00    -0.079 N 
HETATM   17  H   UNL     1      39.104 -16.423   6.146  1.00  0.00     0.274 HD
HETATM   18  H   UNL     1      40.269 -17.372   5.418  1.00  0.00     0.274 HD
HETATM   19  H   UNL     1      40.162 -17.280   7.079  1.00  0.00     0.274 HD
ENDBRANCH  15  16
ENDBRANCH  14  15
ENDBRANCH  13  14
ENDBRANCH  11  13
ENDBRANCH   3  11
BRANCH   1  20
HETATM   20  C   UNL     1      42.926 -18.606   2.603  1.00  0.00     0.012 A 
HETATM   21  C   UNL     1      43.181 -19.756   1.833  1.00  0.00     0.015 A 
HETATM   22  C   UNL     1      44.046 -20.762   2.282  1.00  0.00     0.001 A 
HETATM   23  C   UNL     1      44.661 -20.651   3.524  1.00  0.00     0.000 A 
HETATM   24  C   UNL     1      44.413 -19.537   4.318  1.00  0.00     0.001 A 
HETATM   25  C   UNL     1      43.561 -18.528   3.859  1.00  0.00     0.015 A 
ENDBRANCH   1  20
TORSDOF 6
ENDMDL
MODEL 2
REMARK VINA RESULT:      -7.4      2.152      4.701
REMARK  6 active torsions:
REMARK  status: ('A' for Active; 'I' for Inactive)
REMARK    1  A    between atoms: C_4  and  C_5 
REMARK    2  A    between atoms: C_7  and  N_8 
REMARK    3  A    between atoms: N_8  and  C_9 
REMARK    4  A    between atoms: C_9  and  C_10 
REMARK    5  A    between atoms: C_10  and  C_11 
REMARK    6  A    between atoms: C_11  and  N_12 
ROOT
HETATM    1  C   UNL     1      43.998 -18.506   4.052  1.00  0.00     0.162 C 
HETATM    2  N   UNL     1      43.574 -17.778   2.992  1.00  0.00    -0.216 NA
HETATM    3  C   UNL     1      43.201 -16.503   3.251  1.00  0.00     0.118 C 
HETATM    4  C   UNL     1      43.449 -15.878   4.492  1.00  0.00     0.033 A 
HETATM    5  C   UNL     1      43.969 -16.713   5.485  1.00  0.00     0.072 A 
HETATM    6  N   UNL     1      44.217 -18.005   5.274  1.00  0.00    -0.228 NA
HETATM    7  C   UNL     1      43.220 -14.509   4.792  1.00  0.00     0.017 A 
HETATM    8  C   UNL     1      43.497 -13.996   6.057  1.00  0.00     0.001 A 
HETATM    9  C   UNL     1      44.002 -14.837   7.038  1.00  0.00     0.002 A 
HETATM   10  C   UNL     1      44.233 -16.182   6.742  1.00  0.00     0.032 A 
ENDROOT
BRANCH   3  11
HETATM   11  N   UNL     1      42.642 -15.742   2.197  1.00  0.00    -0.277 NA
HETATM   12  H   UNL     1      42.097 -14.988   2.625  1.00  0.00     0.129 HD
BRANCH  11  13
HETATM   13  C   UNL     1      41.816 -16.438   1.213  1.00  0.00     0.095 C 
BRANCH  13  14
HETATM   14  C   UNL     1      40.426 -16.707   1.789  1.00  0.00     0.042 C 
BRANCH  14  15
HETATM   15  C   UNL     1      39.595 -15.469   2.097  1.00  0.00     0.230 C 
BRANCH  15  16
HETATM   16  N   UNL     1      39.771 -15.029   3.495  1.00  0.00    -0.079 N 
HETATM   17  H   UNL     1      39.828 -15.861   4.117  1.00  0.00     0.274 HD
HETATM   18  H   UNL     1      40.620 -14.473   3.636  1.00  0.00     0.274 HD
HETATM   19  H   UNL     1      38.965 -14.486   3.823  1.00  0.00     0.274 HD
ENDBRANCH  15  16
ENDBRANCH  14  15
ENDBRANCH  13  14
ENDBRANCH  11  13
ENDBRANCH   3  11
BRANCH   1  20
HETATM   20  C   UNL     1      44.248 -19.951   3.866  1.00  0.00     0.012 A 
HETATM   21  C   UNL     1      44.661 -20.789   4.918  1.00  0.00     0.015 A 
HETATM   22  C   UNL     1      44.878 -22.159   4.724  1.00  0.00     0.001 A 
HETATM   23  C   UNL     1      44.708 -22.720   3.462  1.00  0.00     0.000 A 
HETATM   24  C   UNL     1      44.321 -21.915   2.397  1.00  0.00     0.001 A 
HETATM   25  C   UNL     1      44.090 -20.551   2.600  1.00  0.00     0.015 A 
ENDBRANCH   1  20
TORSDOF 6
ENDMDL
MODEL 3
REMARK VINA RESULT:      -7.3      1.830      4.042
REMARK  6 active torsions:
REMARK  status: ('A' for Active; 'I' for Inactive)
REMARK    1  A    between atoms: C_4  and  C_5 
REMARK    2  A    between atoms: C_7  and  N_8 
REMARK    3  A    between atoms: N_8  and  C_9 
REMARK    4  A    between atoms: C_9  and  C_10 
REMARK    5  A    between atoms: C_10  and  C_11 
REMARK    6  A    between atoms: C_11  and  N_12 
ROOT
HETATM    1  C   UNL     1      43.614 -18.033   2.896  1.00  0.00     0.162 C 
HETATM    2  N   UNL     1      43.337 -17.457   1.703  1.00  0.00    -0.216 NA
HETATM    3  C   UNL     1      42.915 -16.172   1.742  1.00  0.00     0.118 C 
HETATM    4  C   UNL     1      42.976 -15.389   2.915  1.00  0.00     0.033 A 
HETATM    5  C   UNL     1      43.359 -16.077   4.069  1.00  0.00     0.072 A 
HETATM    6  N   UNL     1      43.650 -17.378   4.063  1.00  0.00    -0.228 NA
HETATM    7  C   UNL     1      42.691 -14.000   3.001  1.00  0.00     0.017 A 
HETATM    8  C   UNL     1      42.778 -13.325   4.217  1.00  0.00     0.001 A 
HETATM    9  C   UNL     1      43.148 -14.021   5.358  1.00  0.00     0.002 A 
HETATM   10  C   UNL     1      43.435 -15.385   5.272  1.00  0.00     0.032 A 
ENDROOT
BRANCH   3  11
HETATM   11  N   UNL     1      42.504 -15.566   0.530  1.00  0.00    -0.277 NA
HETATM   12  H   UNL     1      42.619 -14.555   0.646  1.00  0.00     0.129 HD
BRANCH  11  13
HETATM   13  C   UNL     1      41.155 -15.849   0.047  1.00  0.00     0.095 C 
BRANCH  13  14
HETATM   14  C   UNL     1      40.206 -14.718   0.442  1.00  0.00     0.042 C 
BRANCH  14  15
HETATM   15  C   UNL     1      39.296 -15.013   1.627  1.00  0.00     0.230 C 
BRANCH  15  16
HETATM   16  N   UNL     1      39.461 -16.398   2.109  1.00  0.00    -0.079 N 
HETATM   17  H   UNL     1      40.366 -16.485   2.614  1.00  0.00     0.274 HD
HETATM   18  H   UNL     1      38.715 -16.692   2.747  1.00  0.00     0.274 HD
HETATM   19  H   UNL     1      39.508 -17.065   1.330  1.00  0.00     0.274 HD
ENDBRANCH  15  16
ENDBRANCH  14  15
ENDBRANCH  13  14
ENDBRANCH  11  13
ENDBRANCH   3  11
BRANCH   1  20
HETATM   20  C   UNL     1      43.905 -19.483   2.934  1.00  0.00     0.012 A 
HETATM   21  C   UNL     1      44.543 -20.098   4.027  1.00  0.00     0.015 A 
HETATM   22  C   UNL     1      44.796 -21.475   4.049  1.00  0.00     0.001 A 
HETATM   23  C   UNL     1      44.435 -22.268   2.964  1.00  0.00     0.000 A 
HETATM   24  C   UNL     1      43.822 -21.687   1.860  1.00  0.00     0.001 A 
HETATM   25  C   UNL     1      43.557 -20.314   1.850  1.00  0.00     0.015 A 
ENDBRANCH   1  20
TORSDOF 6
ENDMDL
MODEL 4
REMARK VINA RESULT:      -7.3      2.543      5.958
REMARK  6 active torsions:
REMARK  status: ('A' for Active; 'I' for Inactive)
REMARK    1  A    between atoms: C_4  and  C_5 
REMARK    2  A    between atoms: C_7  and  N_8 
REMARK    3  A    between atoms: N_8  and  C_9 
REMARK    4  A    between atoms: C_9  and  C_10 
REMARK    5  A    between atoms: C_10  and  C_11 
REMARK    6  A    between atoms: C_11  and  N_12 
ROOT
HETATM    1  C   UNL     1      43.551 -17.504   3.027  1.00  0.00     0.162 C 
HETATM    2  N   UNL     1      44.082 -17.598   4.269  1.00  0.00    -0.216 NA
HETATM    3  C   UNL     1      44.356 -18.848   4.709  1.00  0.00     0.118 C 
HETATM    4  C   UNL     1      44.321 -19.976   3.861  1.00  0.00     0.033 A 
HETATM    5  C   UNL     1      43.835 -19.736   2.573  1.00  0.00     0.072 A 
HETATM    6  N   UNL     1      43.438 -18.528   2.172  1.00  0.00    -0.228 NA
HETATM    7  C   UNL     1      44.733 -21.290   4.209  1.00  0.00     0.017 A 
HETATM    8  C   UNL     1      44.650 -22.335   3.291  1.00  0.00     0.001 A 
HETATM    9  C   UNL     1      44.155 -22.086   2.019  1.00  0.00     0.002 A 
HETATM   10  C   UNL     1      43.756 -20.793   1.674  1.00  0.00     0.032 A 
ENDROOT
BRANCH   3  11
HETATM   11  N   UNL     1      44.802 -19.005   6.043  1.00  0.00    -0.277 NA
HETATM   12  H   UNL     1      45.461 -19.789   6.050  1.00  0.00     0.129 HD
BRANCH  11  13
HETATM   13  C   UNL     1      43.795 -19.207   7.082  1.00  0.00     0.095 C 
BRANCH  13  14
HETATM   14  C   UNL     1      43.921 -18.126   8.155  1.00  0.00     0.042 C 
BRANCH  14  15
HETATM   15  C   UNL     1      43.318 -16.775   7.796  1.00  0.00     0.230 C 
BRANCH  15  16
HETATM   16  N   UNL     1      44.206 -16.002   6.906  1.00  0.00    -0.079 N 
HETATM   17  H   UNL     1      43.704 -15.781   6.021  1.00  0.00     0.274 HD
HETATM   18  H   UNL     1      44.517 -15.118   7.320  1.00  0.00     0.274 HD
HETATM   19  H   UNL     1      45.032 -16.546   6.633  1.00  0.00     0.274 HD
ENDBRANCH  15  16
ENDBRANCH  14  15
ENDBRANCH  13  14
ENDBRANCH  11  13
ENDBRANCH   3  11
BRANCH   1  20
HETATM   20  C   UNL     1      43.065 -16.187   2.561  1.00  0.00     0.012 A 
HETATM   21  C   UNL     1      42.331 -16.029   1.370  1.00  0.00     0.015 A 
HETATM   22  C   UNL     1      41.868 -14.775   0.955  1.00  0.00     0.001 A 
HETATM   23  C   UNL     1      42.148 -13.642   1.712  1.00  0.00     0.000 A 
HETATM   24  C   UNL     1      42.888 -13.761   2.883  1.00  0.00     0.001 A 
HETATM   25  C   UNL     1      43.335 -15.018   3.302  1.00  0.00     0.015 A 
ENDBRANCH   1  20
TORSDOF 6
ENDMDL
MODEL 5
REMARK VINA RESULT:      -7.2      1.479      4.219
REMARK  6 active torsions:
REMARK  status: ('A' for Active; 'I' for Inactive)
REMARK    1  A    between atoms: C_4  and  C_5 
REMARK    2  A    between atoms: C_7  and  N_8 
REMARK    3  A    between atoms: N_8  and  C_9 
REMARK    4  A    between atoms: C_9  and  C_10 
REMARK    5  A    between atoms: C_10  and  C_11 
REMARK    6  A    between atoms: C_11  and  N_12 
ROOT
HETATM    1  C   UNL     1      42.381 -18.012   2.993  1.00  0.00     0.162 C 
HETATM    2  N   UNL     1      41.892 -17.509   1.835  1.00  0.00    -0.216 NA
HETATM    3  C   UNL     1      41.014 -16.486   1.950  1.00  0.00     0.118 C 
HETATM    4  C   UNL     1      40.788 -15.815   3.171  1.00  0.00     0.033 A 
HETATM    5  C   UNL     1      41.417 -16.378   4.284  1.00  0.00     0.072 A 
HETATM    6  N   UNL     1      42.181 -17.467   4.199  1.00  0.00    -0.228 NA
HETATM    7  C   UNL     1      39.997 -14.647   3.342  1.00  0.00     0.017 A 
HETATM    8  C   UNL     1      39.836 -14.068   4.599  1.00  0.00     0.001 A 
HETATM    9  C   UNL     1      40.458 -14.642   5.698  1.00  0.00     0.002 A 
HETATM   10  C   UNL     1      41.240 -15.787   5.530  1.00  0.00     0.032 A 
ENDROOT
BRANCH   3  11
HETATM   11  N   UNL     1      40.389 -16.006   0.775  1.00  0.00    -0.277 NA
HETATM   12  H   UNL     1      39.800 -16.763   0.416  1.00  0.00     0.129 HD
BRANCH  11  13
HETATM   13  C   UNL     1      41.243 -15.507  -0.300  1.00  0.00     0.095 C 
BRANCH  13  14
HETATM   14  C   UNL     1      40.887 -14.057  -0.626  1.00  0.00     0.042 C 
BRANCH  14  15
HETATM   15  C   UNL     1      39.467 -13.637  -0.270  1.00  0.00     0.230 C 
BRANCH  15  16
HETATM   16  N   UNL     1      38.468 -14.330  -1.107  1.00  0.00    -0.079 N 
HETATM   17  H   UNL     1      38.755 -15.322  -1.242  1.00  0.00     0.274 HD
HETATM   18  H   UNL     1      37.529 -14.329  -0.696  1.00  0.00     0.274 HD
HETATM   19  H   UNL     1      38.415 -13.922  -2.048  1.00  0.00     0.274 HD
ENDBRANCH  15  16
ENDBRANCH  14  15
ENDBRANCH  13  14
ENDBRANCH  11  13
ENDBRANCH   3  11
BRANCH   1  20
HETATM   20  C   UNL     1      43.201 -19.242   2.942  1.00  0.00     0.012 A 
HETATM   21  C   UNL     1      44.146 -19.562   3.935  1.00  0.00     0.015 A 
HETATM   22  C   UNL     1      44.902 -20.739   3.875  1.00  0.00     0.001 A 
HETATM   23  C   UNL     1      44.746 -21.615   2.806  1.00  0.00     0.000 A 
HETATM   24  C   UNL     1      43.836 -21.318   1.799  1.00  0.00     0.001 A 
HETATM   25  C   UNL     1      43.072 -20.149   1.871  1.00  0.00     0.015 A 
ENDBRANCH   1  20
TORSDOF 6
ENDMDL
MODEL 6
REMARK VINA RESULT:      -7.2      1.562      1.964
REMARK  6 active torsions:
REMARK  status: ('A' for Active; 'I' for Inactive)
REMARK    1  A    between atoms: C_4  and  C_5 
REMARK    2  A    between atoms: C_7  and  N_8 
REMARK    3  A    between atoms: N_8  and  C_9 
REMARK    4  A    between atoms: C_9  and  C_10 
REMARK    5  A    between atoms: C_10  and  C_11 
REMARK    6  A    between atoms: C_11  and  N_12 
ROOT
HETATM    1  C   UNL     1      43.257 -18.193   2.633  1.00  0.00     0.162 C 
HETATM    2  N   UNL     1      43.425 -17.316   3.650  1.00  0.00    -0.216 NA
HETATM    3  C   UNL     1      43.141 -16.021   3.378  1.00  0.00     0.118 C 
HETATM    4  C   UNL     1      42.487 -15.622   2.194  1.00  0.00     0.033 A 
HETATM    5  C   UNL     1      42.290 -16.635   1.252  1.00  0.00     0.072 A 
HETATM    6  N   UNL     1      42.687 -17.890   1.460  1.00  0.00    -0.228 NA
HETATM    7  C   UNL     1      42.026 -14.310   1.902  1.00  0.00     0.017 A 
HETATM    8  C   UNL     1      41.395 -14.023   0.694  1.00  0.00     0.001 A 
HETATM    9  C   UNL     1      41.215 -15.036  -0.238  1.00  0.00     0.002 A 
HETATM   10  C   UNL     1      41.662 -16.327   0.051  1.00  0.00     0.032 A 
ENDROOT
BRANCH   3  11
HETATM   11  N   UNL     1      43.413 -15.054   4.375  1.00  0.00    -0.277 NA
HETATM   12  H   UNL     1      44.427 -14.912   4.388  1.00  0.00     0.129 HD
BRANCH  11  13
HETATM   13  C   UNL     1      42.943 -15.318   5.732  1.00  0.00     0.095 C 
BRANCH  13  14
HETATM   14  C   UNL     1      41.415 -15.318   5.770  1.00  0.00     0.042 C 
BRANCH  14  15
HETATM   15  C   UNL     1      40.773 -16.611   6.256  1.00  0.00     0.230 C 
BRANCH  15  16
HETATM   16  N   UNL     1      40.577 -17.570   5.152  1.00  0.00    -0.079 N 
HETATM   17  H   UNL     1      40.324 -18.502   5.541  1.00  0.00     0.274 HD
HETATM   18  H   UNL     1      39.834 -17.289   4.503  1.00  0.00     0.274 HD
HETATM   19  H   UNL     1      41.442 -17.713   4.618  1.00  0.00     0.274 HD
ENDBRANCH  15  16
ENDBRANCH  14  15
ENDBRANCH  13  14
ENDBRANCH  11  13
ENDBRANCH   3  11
BRANCH   1  20
HETATM   20  C   UNL     1      43.720 -19.586   2.812  1.00  0.00     0.012 A 
HETATM   21  C   UNL     1      43.525 -20.580   1.835  1.00  0.00     0.015 A 
HETATM   22  C   UNL     1      43.984 -21.890   2.019  1.00  0.00     0.001 A 
HETATM   23  C   UNL     1      44.632 -22.243   3.198  1.00  0.00     0.000 A 
HETATM   24  C   UNL     1      44.822 -21.289   4.191  1.00  0.00     0.001 A 
HETATM   25  C   UNL     1      44.376 -19.979   3.996  1.00  0.00     0.015 A 
ENDBRANCH   1  20
TORSDOF 6
ENDMDL
MODEL 7
REMARK VINA RESULT:      -7.1      2.237      2.811
REMARK  6 active torsions:
REMARK  status: ('A' for Active; 'I' for Inactive)
REMARK    1  A    between atoms: C_4  and  C_5 
REMARK    2  A    between atoms: C_7  and  N_8 
REMARK    3  A    between atoms: N_8  and  C_9 
REMARK    4  A    between atoms: C_9  and  C_10 
REMARK    5  A    between atoms: C_10  and  C_11 
REMARK    6  A    between atoms: C_11  and  N_12 
ROOT
HETATM    1  C   UNL     1      43.295 -18.195   2.728  1.00  0.00     0.162 C 
HETATM    2  N   UNL     1      43.407 -17.358   3.786  1.00  0.00    -0.216 NA
HETATM    3  C   UNL     1      43.136 -16.054   3.550  1.00  0.00     0.118 C 
HETATM    4  C   UNL     1      42.546 -15.608   2.348  1.00  0.00     0.033 A 
HETATM    5  C   UNL     1      42.401 -16.584   1.359  1.00  0.00     0.072 A 
HETATM    6  N   UNL     1      42.788 -17.847   1.538  1.00  0.00    -0.228 NA
HETATM    7  C   UNL     1      42.100 -14.285   2.083  1.00  0.00     0.017 A 
HETATM    8  C   UNL     1      41.534 -13.952   0.854  1.00  0.00     0.001 A 
HETATM    9  C   UNL     1      41.406 -14.928  -0.124  1.00  0.00     0.002 A 
HETATM   10  C   UNL     1      41.839 -16.229   0.138  1.00  0.00     0.032 A 
ENDROOT
BRANCH   3  11
HETATM   11  N   UNL     1      43.352 -15.126   4.596  1.00  0.00    -0.277 NA
HETATM   12  H   UNL     1      44.310 -14.779   4.497  1.00  0.00     0.129 HD
BRANCH  11  13
HETATM   13  C   UNL     1      43.140 -15.580   5.969  1.00  0.00     0.095 C 
BRANCH  13  14
HETATM   14  C   UNL     1      44.418 -15.398   6.787  1.00  0.00     0.042 C 
BRANCH  14  15
HETATM   15  C   UNL     1      44.602 -14.024   7.416  1.00  0.00     0.230 C 
BRANCH  15  16
HETATM   16  N   UNL     1      43.451 -13.141   7.141  1.00  0.00    -0.079 N 
HETATM   17  H   UNL     1      43.147 -12.682   8.024  1.00  0.00     0.274 HD
HETATM   18  H   UNL     1      43.664 -12.405   6.461  1.00  0.00     0.274 HD
HETATM   19  H   UNL     1      42.640 -13.673   6.806  1.00  0.00     0.274 HD
ENDBRANCH  15  16
ENDBRANCH  14  15
ENDBRANCH  13  14
ENDBRANCH  11  13
ENDBRANCH   3  11
BRANCH   1  20
HETATM   20  C   UNL     1      43.749 -19.594   2.878  1.00  0.00     0.012 A 
HETATM   21  C   UNL     1      44.413 -20.055   4.031  1.00  0.00     0.015 A 
HETATM   22  C   UNL     1      44.822 -21.388   4.158  1.00  0.00     0.001 A 
HETATM   23  C   UNL     1      44.596 -22.289   3.123  1.00  0.00     0.000 A 
HETATM   24  C   UNL     1      43.961 -21.861   1.963  1.00  0.00     0.001 A 
HETATM   25  C   UNL     1      43.540 -20.533   1.847  1.00  0.00     0.015 A 
ENDBRANCH   1  20
TORSDOF 6
ENDMDL
MODEL 8
REMARK VINA RESULT:      -6.8      2.205      5.970
REMARK  6 active torsions:
REMARK  status: ('A' for Active; 'I' for Inactive)
REMARK    1  A    between atoms: C_4  and  C_5 
REMARK    2  A    between atoms: C_7  and  N_8 
REMARK    3  A    between atoms: N_8  and  C_9 
REMARK    4  A    between atoms: C_9  and  C_10 
REMARK    5  A    between atoms: C_10  and  C_11 
REMARK    6  A    between atoms: C_11  and  N_12 
ROOT
HETATM    1  C   UNL     1      43.432 -17.199   4.273  1.00  0.00     0.162 C 
HETATM    2  N   UNL     1      42.526 -17.118   3.270  1.00  0.00    -0.216 NA
HETATM    3  C   UNL     1      42.520 -18.141   2.384  1.00  0.00     0.118 C 
HETATM    4  C   UNL     1      43.237 -19.337   2.603  1.00  0.00     0.033 A 
HETATM    5  C   UNL     1      44.075 -19.332   3.720  1.00  0.00     0.072 A 
HETATM    6  N   UNL     1      44.186 -18.276   4.526  1.00  0.00    -0.228 NA
HETATM    7  C   UNL     1      43.167 -20.505   1.797  1.00  0.00     0.017 A 
HETATM    8  C   UNL     1      43.926 -21.633   2.103  1.00  0.00     0.001 A 
HETATM    9  C   UNL     1      44.763 -21.611   3.209  1.00  0.00     0.002 A 
HETATM   10  C   UNL     1      44.827 -20.465   4.004  1.00  0.00     0.032 A 
ENDROOT
BRANCH   3  11
HETATM   11  N   UNL     1      41.671 -18.044   1.256  1.00  0.00    -0.277 NA
HETATM   12  H   UNL     1      42.245 -18.239   0.430  1.00  0.00     0.129 HD
BRANCH  11  13
HETATM   13  C   UNL     1      40.942 -16.794   1.054  1.00  0.00     0.095 C 
BRANCH  13  14
HETATM   14  C   UNL     1      41.418 -16.107  -0.225  1.00  0.00     0.042 C 
BRANCH  14  15
HETATM   15  C   UNL     1      40.953 -14.668  -0.407  1.00  0.00     0.230 C 
BRANCH  15  16
HETATM   16  N   UNL     1      39.528 -14.601  -0.784  1.00  0.00    -0.079 N 
HETATM   17  H   UNL     1      38.939 -14.881   0.027  1.00  0.00     0.274 HD
HETATM   18  H   UNL     1      39.234 -13.663  -1.076  1.00  0.00     0.274 HD
HETATM   19  H   UNL     1      39.305 -15.263  -1.536  1.00  0.00     0.274 HD
ENDBRANCH  15  16
ENDBRANCH  14  15
ENDBRANCH  13  14
ENDBRANCH  11  13
ENDBRANCH   3  11
BRANCH   1  20
HETATM   20  C   UNL     1      43.610 -16.032   5.164  1.00  0.00     0.012 A 
HETATM   21  C   UNL     1      43.250 -14.726   4.782  1.00  0.00     0.015 A 
HETATM   22  C   UNL     1      43.414 -13.638   5.648  1.00  0.00     0.001 A 
HETATM   23  C   UNL     1      43.962 -13.828   6.911  1.00  0.00     0.000 A 
HETATM   24  C   UNL     1      44.347 -15.102   7.311  1.00  0.00     0.001 A 
HETATM   25  C   UNL     1      44.167 -16.188   6.450  1.00  0.00     0.015 A 
ENDBRANCH   1  20
TORSDOF 6
ENDMDL
MODEL 9
REMARK VINA RESULT:      -6.4      3.294      4.659
REMARK  6 active torsions:
REMARK  status: ('A' for Active; 'I' for Inactive)
REMARK    1  A    between atoms: C_4  and  C_5 
REMARK    2  A    between atoms: C_7  and  N_8 
REMARK    3  A    between atoms: N_8  and  C_9 
REMARK    4  A    between atoms: C_9  and  C_10 
REMARK    5  A    between atoms: C_10  and  C_11 
REMARK    6  A    between atoms: C_11  and  N_12 
ROOT
HETATM    1  C   UNL     1      43.470 -16.713   4.930  1.00  0.00     0.162 C 
HETATM    2  N   UNL     1      43.883 -16.290   6.148  1.00  0.00    -0.216 NA
HETATM    3  C   UNL     1      43.594 -15.007   6.465  1.00  0.00     0.118 C 
HETATM    4  C   UNL     1      42.718 -14.214   5.694  1.00  0.00     0.033 A 
HETATM    5  C   UNL     1      42.288 -14.793   4.498  1.00  0.00     0.072 A 
HETATM    6  N   UNL     1      42.674 -16.010   4.114  1.00  0.00    -0.228 NA
HETATM    7  C   UNL     1      42.254 -12.916   6.038  1.00  0.00     0.017 A 
HETATM    8  C   UNL     1      41.390 -12.217   5.197  1.00  0.00     0.001 A 
HETATM    9  C   UNL     1      40.980 -12.799   4.006  1.00  0.00     0.002 A 
HETATM   10  C   UNL     1      41.431 -14.077   3.671  1.00  0.00     0.032 A 
ENDROOT
BRANCH   3  11
HETATM   11  N   UNL     1      44.107 -14.486   7.678  1.00  0.00    -0.277 NA
HETATM   12  H   UNL     1      43.322 -14.059   8.178  1.00  0.00     0.129 HD
BRANCH  11  13
HETATM   13  C   UNL     1      45.210 -13.531   7.600  1.00  0.00     0.095 C 
BRANCH  13  14
HETATM   14  C   UNL     1      44.906 -12.305   8.460  1.00  0.00     0.042 C 
BRANCH  14  15
HETATM   15  C   UNL     1      44.861 -12.554   9.962  1.00  0.00     0.230 C 
BRANCH  15  16
HETATM   16  N   UNL     1      43.545 -12.208  10.532  1.00  0.00    -0.079 N 
HETATM   17  H   UNL     1      43.005 -11.643   9.845  1.00  0.00     0.274 HD
HETATM   18  H   UNL     1      42.983 -13.031  10.772  1.00  0.00     0.274 HD
HETATM   19  H   UNL     1      43.639 -11.621  11.369  1.00  0.00     0.274 HD
ENDBRANCH  15  16
ENDBRANCH  14  15
ENDBRANCH  13  14
ENDBRANCH  11  13
ENDBRANCH   3  11
BRANCH   1  20
HETATM   20  C   UNL     1      43.909 -18.043   4.454  1.00  0.00     0.012 A 
HETATM   21  C   UNL     1      43.761 -18.454   3.116  1.00  0.00     0.015 A 
HETATM   22  C   UNL     1      44.197 -19.713   2.683  1.00  0.00     0.001 A 
HETATM   23  C   UNL     1      44.774 -20.599   3.586  1.00  0.00     0.000 A 
HETATM   24  C   UNL     1      44.916 -20.231   4.919  1.00  0.00     0.001 A 
HETATM   25  C   UNL     1      44.493 -18.968   5.343  1.00  0.00     0.015 A 
ENDBRANCH   1  20
TORSDOF 6
ENDMDL
MODEL 10
REMARK VINA RESULT:      -6.4      1.750      6.640
REMARK  6 active torsions:
REMARK  status: ('A' for Active; 'I' for Inactive)
REMARK    1  A    between atoms: C_4  and  C_5 
REMARK    2  A    between atoms: C_7  and  N_8 
REMARK    3  A    between atoms: N_8  and  C_9 
REMARK    4  A    between atoms: C_9  and  C_10 
REMARK    5  A    between atoms: C_10  and  C_11 
REMARK    6  A    between atoms: C_11  and  N_12 
ROOT
HETATM    1  C   UNL     1      41.156 -15.309   3.255  1.00  0.00     0.162 C 
HETATM    2  N   UNL     1      41.071 -15.353   1.904  1.00  0.00    -0.216 NA
HETATM    3  C   UNL     1      41.869 -16.253   1.284  1.00  0.00     0.118 C 
HETATM    4  C   UNL     1      42.576 -17.251   1.987  1.00  0.00     0.033 A 
HETATM    5  C   UNL     1      42.518 -17.152   3.379  1.00  0.00     0.072 A 
HETATM    6  N   UNL     1      41.839 -16.187   3.999  1.00  0.00    -0.228 NA
HETATM    7  C   UNL     1      43.313 -18.315   1.401  1.00  0.00     0.017 A 
HETATM    8  C   UNL     1      43.982 -19.246   2.194  1.00  0.00     0.001 A 
HETATM    9  C   UNL     1      43.925 -19.130   3.575  1.00  0.00     0.002 A 
HETATM   10  C   UNL     1      43.196 -18.088   4.151  1.00  0.00     0.032 A 
ENDROOT
BRANCH   3  11
HETATM   11  N   UNL     1      41.899 -16.255  -0.132  1.00  0.00    -0.277 NA
HETATM   12  H   UNL     1      42.881 -16.170  -0.411  1.00  0.00     0.129 HD
BRANCH  11  13
HETATM   13  C   UNL     1      41.105 -15.251  -0.835  1.00  0.00     0.095 C 
BRANCH  13  14
HETATM   14  C   UNL     1      41.029 -15.588  -2.324  1.00  0.00     0.042 C 
BRANCH  14  15
HETATM   15  C   UNL     1      41.237 -14.414  -3.271  1.00  0.00     0.230 C 
BRANCH  15  16
HETATM   16  N   UNL     1      42.608 -13.875  -3.177  1.00  0.00    -0.079 N 
HETATM   17  H   UNL     1      43.068 -14.244  -2.320  1.00  0.00     0.274 HD
HETATM   18  H   UNL     1      43.193 -14.125  -3.981  1.00  0.00     0.274 HD
HETATM   19  H   UNL     1      42.605 -12.853  -3.079  1.00  0.00     0.274 HD
ENDBRANCH  15  16
ENDBRANCH  14  15
ENDBRANCH  13  14
ENDBRANCH  11  13
ENDBRANCH   3  11
BRANCH   1  20
HETATM   20  C   UNL     1      40.447 -14.229   3.975  1.00  0.00     0.012 A 
HETATM   21  C   UNL     1      40.294 -14.227   5.374  1.00  0.00     0.015 A 
HETATM   22  C   UNL     1      39.631 -13.187   6.038  1.00  0.00     0.001 A 
HETATM   23  C   UNL     1      39.085 -12.133   5.313  1.00  0.00     0.000 A 
HETATM   24  C   UNL     1      39.200 -12.117   3.928  1.00  0.00     0.001 A 
HETATM   25  C   UNL     1      39.877 -13.149   3.271  1.00  0.00     0.015 A 
ENDBRANCH   1  20
TORSDOF 6
ENDMDL
