MODEL 1
REMARK VINA RESULT:      -8.1      0.000      0.000
REMARK  6 active torsions:
REMARK  status: ('A' for Active; 'I' for Inactive)
REMARK    1  A    between atoms: C_2  and  N_3 
REMARK    2  A    between atoms: C_5  and  C_6 
REMARK    3  A    between atoms: C_6  and  N_7 
REMARK       I    between atoms: N_7  and  C_8 
REMARK    4  A    between atoms: C_8  and  C_9 
REMARK    5  A    between atoms: C_9  and  C_10 
REMARK    6  A    between atoms: C_11  and  C_12 
ROOT
HETATM    1  C   UNL     1      43.235 -18.037   5.710  1.00  0.00     0.006 A 
HETATM    2  C   UNL     1      44.268 -18.816   5.084  1.00  0.00     0.096 A 
HETATM    3  N   UNL     1      45.445 -18.638   5.697  1.00  0.00    -0.173 NA
HETATM    4  N   UNL     1      45.194 -17.771   6.678  1.00  0.00    -0.282 N 
HETATM    5  H   UNL     1      45.967 -17.498   7.276  1.00  0.00     0.189 HD
HETATM    6  C   UNL     1      43.882 -17.395   6.760  1.00  0.00     0.033 A 
HETATM    7  C   UNL     1      43.421 -16.486   7.834  1.00  0.00     0.070 C 
ENDROOT
BRANCH   1   8
HETATM    8  C   UNL     1      41.782 -18.039   5.349  1.00  0.00     0.146 C 
BRANCH   8   9
HETATM    9  C   UNL     1      41.314 -16.767   4.655  1.00  0.00     0.222 C 
HETATM   10  N   UNL     1      40.538 -15.934   5.438  1.00  0.00    -0.359 N 
HETATM   11  H   UNL     1      40.258 -16.288   6.349  1.00  0.00     0.162 HD
HETATM   12  O   UNL     1      41.616 -16.475   3.497  1.00  0.00    -0.273 OA
BRANCH  10  13
HETATM   13  C   UNL     1      39.905 -14.690   5.004  1.00  0.00     0.155 C 
BRANCH  13  14
HETATM   14  C   UNL     1      40.167 -13.453   5.883  1.00  0.00     0.206 C 
HETATM   15  N   UNL     1      41.620 -13.011   6.006  1.00  0.00    -0.066 N 
HETATM   16  H   UNL     1      42.067 -13.737   6.609  1.00  0.00     0.280 HD
HETATM   17  C   UNL     1      41.511 -11.687   6.722  1.00  0.00     0.235 C 
HETATM   18  C   UNL     1      40.187 -11.088   6.246  1.00  0.00     0.030 C 
HETATM   19  C   UNL     1      39.485 -12.173   5.435  1.00  0.00     0.036 C 
BRANCH  15  20
HETATM   20  C   UNL     1      42.451 -12.966   4.747  1.00  0.00     0.231 C 
HETATM   21  C   UNL     1      43.649 -13.896   4.856  1.00  0.00     0.034 C 
ENDBRANCH  15  20
ENDBRANCH  13  14
ENDBRANCH  10  13
ENDBRANCH   8   9
ENDBRANCH   1   8
BRANCH   2  22
HETATM   22  C   UNL     1      44.170 -19.759   3.972  1.00  0.00    -0.005 A 
HETATM   23  C   UNL     1      43.643 -19.368   2.733  1.00  0.00     0.017 A 
HETATM   24  C   UNL     1      43.564 -20.287   1.683  1.00  0.00     0.043 A 
HETATM   25  C   UNL     1      44.021 -21.587   1.871  1.00  0.00     0.116 A 
HETATM   26  F   UNL     1      43.945 -22.464   0.861  1.00  0.00    -0.206 F 
HETATM   27  C   UNL     1      44.561 -21.988   3.085  1.00  0.00     0.043 A 
HETATM   28  C   UNL     1      44.639 -21.072   4.136  1.00  0.00     0.017 A 
ENDBRANCH   2  22
TORSDOF 6
ENDMDL
MODEL 2
REMARK VINA RESULT:      -8.0      2.773      4.242
REMARK  6 active torsions:
REMARK  status: ('A' for Active; 'I' for Inactive)
REMARK    1  A    between atoms: C_2  and  N_3 
REMARK    2  A    between atoms: C_5  and  C_6 
REMARK    3  A    between atoms: C_6  and  N_7 
REMARK       I    between atoms: N_7  and  C_8 
REMARK    4  A    between atoms: C_8  and  C_9 
REMARK    5  A    between atoms: C_9  and  C_10 
REMARK    6  A    between atoms: C_11  and  C_12 
ROOT
HETATM    1  C   UNL     1      44.665 -20.393   4.020  1.00  0.00     0.006 A 
HETATM    2  C   UNL     1      43.967 -20.172   2.783  1.00  0.00     0.096 A 
HETATM    3  N   UNL     1      43.730 -21.328   2.150  1.00  0.00    -0.173 NA
HETATM    4  N   UNL     1      44.259 -22.265   2.937  1.00  0.00    -0.282 N 
HETATM    5  H   UNL     1      44.185 -23.231   2.636  1.00  0.00     0.189 HD
HETATM    6  C   UNL     1      44.808 -21.773   4.088  1.00  0.00     0.033 A 
HETATM    7  C   UNL     1      45.381 -22.687   5.103  1.00  0.00     0.070 C 
ENDROOT
BRANCH   1   8
HETATM    8  C   UNL     1      45.030 -19.348   5.029  1.00  0.00     0.146 C 
BRANCH   8   9
HETATM    9  C   UNL     1      43.930 -19.050   6.039  1.00  0.00     0.222 C 
HETATM   10  N   UNL     1      43.375 -17.789   5.932  1.00  0.00    -0.359 N 
HETATM   11  H   UNL     1      43.816 -17.146   5.280  1.00  0.00     0.162 HD
HETATM   12  O   UNL     1      43.537 -19.866   6.873  1.00  0.00    -0.273 OA
BRANCH  10  13
HETATM   13  C   UNL     1      42.355 -17.223   6.813  1.00  0.00     0.155 C 
BRANCH  13  14
HETATM   14  C   UNL     1      41.487 -16.101   6.212  1.00  0.00     0.206 C 
HETATM   15  N   UNL     1      42.064 -14.693   6.286  1.00  0.00    -0.066 N 
HETATM   16  H   UNL     1      41.994 -14.431   7.294  1.00  0.00     0.280 HD
HETATM   17  C   UNL     1      41.106 -13.892   5.438  1.00  0.00     0.235 C 
HETATM   18  C   UNL     1      40.633 -14.860   4.354  1.00  0.00     0.030 C 
HETATM   19  C   UNL     1      41.171 -16.236   4.734  1.00  0.00     0.036 C 
BRANCH  15  20
HETATM   20  C   UNL     1      43.517 -14.507   5.922  1.00  0.00     0.231 C 
HETATM   21  C   UNL     1      44.344 -14.170   7.152  1.00  0.00     0.034 C 
ENDBRANCH  15  20
ENDBRANCH  13  14
ENDBRANCH  10  13
ENDBRANCH   8   9
ENDBRANCH   1   8
BRANCH   2  22
HETATM   22  C   UNL     1      43.471 -18.923   2.210  1.00  0.00    -0.005 A 
HETATM   23  C   UNL     1      44.337 -17.857   1.932  1.00  0.00     0.017 A 
HETATM   24  C   UNL     1      43.839 -16.673   1.380  1.00  0.00     0.043 A 
HETATM   25  C   UNL     1      42.481 -16.563   1.099  1.00  0.00     0.116 A 
HETATM   26  F   UNL     1      42.009 -15.428   0.570  1.00  0.00    -0.206 F 
HETATM   27  C   UNL     1      41.610 -17.614   1.353  1.00  0.00     0.043 A 
HETATM   28  C   UNL     1      42.106 -18.796   1.906  1.00  0.00     0.017 A 
ENDBRANCH   2  22
TORSDOF 6
ENDMDL
MODEL 3
REMARK VINA RESULT:      -8.0      2.532      3.513
REMARK  6 active torsions:
REMARK  status: ('A' for Active; 'I' for Inactive)
REMARK    1  A    between atoms: C_2  and  N_3 
REMARK    2  A    between atoms: C_5  and  C_6 
REMARK    3  A    between atoms: C_6  and  N_7 
REMARK       I    between atoms: N_7  and  C_8 
REMARK    4  A    between atoms: C_8  and  C_9 
REMARK    5  A    between atoms: C_9  and  C_10 
REMARK    6  A    between atoms: C_11  and  C_12 
ROOT
HETATM    1  C   UNL     1      43.391 -17.848   5.592  1.00  0.00     0.006 A 
HETATM    2  C   UNL     1      44.369 -18.770   5.083  1.00  0.00     0.096 A 
HETATM    3  N   UNL     1      45.499 -18.718   5.799  1.00  0.00    -0.173 NA
HETATM    4  N   UNL     1      45.273 -17.795   6.732  1.00  0.00    -0.282 N 
HETATM    5  H   UNL     1      46.018 -17.599   7.393  1.00  0.00     0.189 HD
HETATM    6  C   UNL     1      44.017 -17.256   6.682  1.00  0.00     0.033 A 
HETATM    7  C   UNL     1      43.580 -16.261   7.688  1.00  0.00     0.070 C 
ENDROOT
BRANCH   1   8
HETATM    8  C   UNL     1      41.988 -17.683   5.097  1.00  0.00     0.146 C 
BRANCH   8   9
HETATM    9  C   UNL     1      41.744 -16.380   4.347  1.00  0.00     0.222 C 
HETATM   10  N   UNL     1      40.497 -16.274   3.763  1.00  0.00    -0.359 N 
HETATM   11  H   UNL     1      39.906 -17.101   3.786  1.00  0.00     0.162 HD
HETATM   12  O   UNL     1      42.574 -15.471   4.280  1.00  0.00    -0.273 OA
BRANCH  10  13
HETATM   13  C   UNL     1      40.028 -15.166   2.933  1.00  0.00     0.155 C 
BRANCH  13  14
HETATM   14  C   UNL     1      40.160 -15.355   1.410  1.00  0.00     0.206 C 
HETATM   15  N   UNL     1      40.585 -14.127   0.615  1.00  0.00    -0.066 N 
HETATM   16  H   UNL     1      39.750 -13.501   0.629  1.00  0.00     0.280 HD
HETATM   17  C   UNL     1      40.833 -14.688  -0.764  1.00  0.00     0.235 C 
HETATM   18  C   UNL     1      41.344 -16.109  -0.527  1.00  0.00     0.030 C 
HETATM   19  C   UNL     1      41.178 -16.388   0.964  1.00  0.00     0.036 C 
BRANCH  15  20
HETATM   20  C   UNL     1      41.722 -13.295   1.158  1.00  0.00     0.231 C 
HETATM   21  C   UNL     1      42.124 -12.215   0.166  1.00  0.00     0.034 C 
ENDBRANCH  15  20
ENDBRANCH  13  14
ENDBRANCH  10  13
ENDBRANCH   8   9
ENDBRANCH   1   8
BRANCH   2  22
HETATM   22  C   UNL     1      44.253 -19.731   3.988  1.00  0.00    -0.005 A 
HETATM   23  C   UNL     1      44.681 -21.057   4.137  1.00  0.00     0.017 A 
HETATM   24  C   UNL     1      44.555 -21.959   3.077  1.00  0.00     0.043 A 
HETATM   25  C   UNL     1      43.994 -21.536   1.876  1.00  0.00     0.116 A 
HETATM   26  F   UNL     1      43.874 -22.403   0.864  1.00  0.00    -0.206 F 
HETATM   27  C   UNL     1      43.550 -20.230   1.715  1.00  0.00     0.043 A 
HETATM   28  C   UNL     1      43.676 -19.328   2.773  1.00  0.00     0.017 A 
ENDBRANCH   2  22
TORSDOF 6
ENDMDL
MODEL 4
REMARK VINA RESULT:      -7.7      4.278      5.493
REMARK  6 active torsions:
REMARK  status: ('A' for Active; 'I' for Inactive)
REMARK    1  A    between atoms: C_2  and  N_3 
REMARK    2  A    between atoms: C_5  and  C_6 
REMARK    3  A    between atoms: C_6  and  N_7 
REMARK       I    between atoms: N_7  and  C_8 
REMARK    4  A    between atoms: C_8  and  C_9 
REMARK    5  A    between atoms: C_9  and  C_10 
REMARK    6  A    between atoms: C_11  and  C_12 
ROOT
HETATM    1  C   UNL     1      42.164 -15.963   4.224  1.00  0.00     0.006 A 
HETATM    2  C   UNL     1      42.073 -17.386   4.404  1.00  0.00     0.096 A 
HETATM    3  N   UNL     1      41.062 -17.705   5.221  1.00  0.00    -0.173 NA
HETATM    4  N   UNL     1      40.519 -16.539   5.568  1.00  0.00    -0.282 N 
HETATM    5  H   UNL     1      39.722 -16.557   6.195  1.00  0.00     0.189 HD
HETATM    6  C   UNL     1      41.114 -15.457   4.981  1.00  0.00     0.033 A 
HETATM    7  C   UNL     1      40.592 -14.090   5.209  1.00  0.00     0.070 C 
ENDROOT
BRANCH   1   8
HETATM    8  C   UNL     1      43.119 -15.243   3.323  1.00  0.00     0.146 C 
BRANCH   8   9
HETATM    9  C   UNL     1      42.446 -14.310   2.324  1.00  0.00     0.222 C 
HETATM   10  N   UNL     1      41.431 -14.889   1.587  1.00  0.00    -0.359 N 
HETATM   11  H   UNL     1      41.302 -15.892   1.690  1.00  0.00     0.162 HD
HETATM   12  O   UNL     1      42.751 -13.125   2.192  1.00  0.00    -0.273 OA
BRANCH  10  13
HETATM   13  C   UNL     1      40.669 -14.243   0.519  1.00  0.00     0.155 C 
BRANCH  13  14
HETATM   14  C   UNL     1      41.019 -14.671  -0.918  1.00  0.00     0.206 C 
HETATM   15  N   UNL     1      39.843 -15.034  -1.816  1.00  0.00    -0.066 N 
HETATM   16  H   UNL     1      39.505 -15.953  -1.451  1.00  0.00     0.280 HD
HETATM   17  C   UNL     1      40.488 -15.182  -3.173  1.00  0.00     0.235 C 
HETATM   18  C   UNL     1      41.639 -14.176  -3.175  1.00  0.00     0.030 C 
HETATM   19  C   UNL     1      41.745 -13.633  -1.753  1.00  0.00     0.036 C 
BRANCH  15  20
HETATM   20  C   UNL     1      38.638 -14.126  -1.800  1.00  0.00     0.231 C 
HETATM   21  C   UNL     1      37.804 -14.311  -3.057  1.00  0.00     0.034 C 
ENDBRANCH  15  20
ENDBRANCH  13  14
ENDBRANCH  10  13
ENDBRANCH   8   9
ENDBRANCH   1   8
BRANCH   2  22
HETATM   22  C   UNL     1      42.867 -18.449   3.790  1.00  0.00    -0.005 A 
HETATM   23  C   UNL     1      43.843 -19.141   4.521  1.00  0.00     0.017 A 
HETATM   24  C   UNL     1      44.586 -20.156   3.913  1.00  0.00     0.043 A 
HETATM   25  C   UNL     1      44.345 -20.484   2.583  1.00  0.00     0.116 A 
HETATM   26  F   UNL     1      45.059 -21.458   2.005  1.00  0.00    -0.206 F 
HETATM   27  C   UNL     1      43.372 -19.820   1.848  1.00  0.00     0.043 A 
HETATM   28  C   UNL     1      42.630 -18.804   2.453  1.00  0.00     0.017 A 
ENDBRANCH   2  22
TORSDOF 6
ENDMDL
MODEL 5
REMARK VINA RESULT:      -7.7      1.291      1.821
REMARK  6 active torsions:
REMARK  status: ('A' for Active; 'I' for Inactive)
REMARK    1  A    between atoms: C_2  and  N_3 
REMARK    2  A    between atoms: C_5  and  C_6 
REMARK    3  A    between atoms: C_6  and  N_7 
REMARK       I    between atoms: N_7  and  C_8 
REMARK    4  A    between atoms: C_8  and  C_9 
REMARK    5  A    between atoms: C_9  and  C_10 
REMARK    6  A    between atoms: C_11  and  C_12 
ROOT
HETATM    1  C   UNL     1      43.231 -18.133   5.760  1.00  0.00     0.006 A 
HETATM    2  C   UNL     1      44.271 -18.871   5.099  1.00  0.00     0.096 A 
HETATM    3  N   UNL     1      45.456 -18.666   5.687  1.00  0.00    -0.173 NA
HETATM    4  N   UNL     1      45.203 -17.822   6.686  1.00  0.00    -0.282 N 
HETATM    5  H   UNL     1      45.981 -17.534   7.270  1.00  0.00     0.189 HD
HETATM    6  C   UNL     1      43.883 -17.487   6.804  1.00  0.00     0.033 A 
HETATM    7  C   UNL     1      43.420 -16.608   7.903  1.00  0.00     0.070 C 
ENDROOT
BRANCH   1   8
HETATM    8  C   UNL     1      41.770 -18.174   5.433  1.00  0.00     0.146 C 
BRANCH   8   9
HETATM    9  C   UNL     1      41.245 -16.901   4.782  1.00  0.00     0.222 C 
HETATM   10  N   UNL     1      40.591 -16.040   5.641  1.00  0.00    -0.359 N 
HETATM   11  H   UNL     1      40.420 -16.374   6.586  1.00  0.00     0.162 HD
HETATM   12  O   UNL     1      41.405 -16.633   3.590  1.00  0.00    -0.273 OA
BRANCH  10  13
HETATM   13  C   UNL     1      39.934 -14.788   5.268  1.00  0.00     0.155 C 
BRANCH  13  14
HETATM   14  C   UNL     1      40.829 -13.725   4.603  1.00  0.00     0.206 C 
HETATM   15  N   UNL     1      40.715 -13.605   3.088  1.00  0.00    -0.066 N 
HETATM   16  H   UNL     1      41.180 -14.464   2.719  1.00  0.00     0.280 HD
HETATM   17  C   UNL     1      41.522 -12.365   2.787  1.00  0.00     0.235 C 
HETATM   18  C   UNL     1      41.331 -11.464   4.007  1.00  0.00     0.030 C 
HETATM   19  C   UNL     1      40.594 -12.295   5.052  1.00  0.00     0.036 C 
BRANCH  15  20
HETATM   20  C   UNL     1      39.332 -13.605   2.484  1.00  0.00     0.231 C 
HETATM   21  C   UNL     1      39.059 -14.911   1.756  1.00  0.00     0.034 C 
ENDBRANCH  15  20
ENDBRANCH  13  14
ENDBRANCH  10  13
ENDBRANCH   8   9
ENDBRANCH   1   8
BRANCH   2  22
HETATM   22  C   UNL     1      44.175 -19.800   3.974  1.00  0.00    -0.005 A 
HETATM   23  C   UNL     1      43.636 -19.398   2.745  1.00  0.00     0.017 A 
HETATM   24  C   UNL     1      43.559 -20.304   1.683  1.00  0.00     0.043 A 
HETATM   25  C   UNL     1      44.030 -21.602   1.850  1.00  0.00     0.116 A 
HETATM   26  F   UNL     1      43.956 -22.465   0.830  1.00  0.00    -0.206 F 
HETATM   27  C   UNL     1      44.583 -22.013   3.055  1.00  0.00     0.043 A 
HETATM   28  C   UNL     1      44.658 -21.111   4.118  1.00  0.00     0.017 A 
ENDBRANCH   2  22
TORSDOF 6
ENDMDL
MODEL 6
REMARK VINA RESULT:      -7.6      3.639      4.770
REMARK  6 active torsions:
REMARK  status: ('A' for Active; 'I' for Inactive)
REMARK    1  A    between atoms: C_2  and  N_3 
REMARK    2  A    between atoms: C_5  and  C_6 
REMARK    3  A    between atoms: C_6  and  N_7 
REMARK       I    between atoms: N_7  and  C_8 
REMARK    4  A    between atoms: C_8  and  C_9 
REMARK    5  A    between atoms: C_9  and  C_10 
REMARK    6  A    between atoms: C_11  and  C_12 
ROOT
HETATM    1  C   UNL     1      42.199 -15.879   4.519  1.00  0.00     0.006 A 
HETATM    2  C   UNL     1      42.051 -17.308   4.563  1.00  0.00     0.096 A 
HETATM    3  N   UNL     1      40.962 -17.658   5.259  1.00  0.00    -0.173 NA
HETATM    4  N   UNL     1      40.426 -16.506   5.661  1.00  0.00    -0.282 N 
HETATM    5  H   UNL     1      39.576 -16.548   6.213  1.00  0.00     0.189 HD
HETATM    6  C   UNL     1      41.102 -15.401   5.225  1.00  0.00     0.033 A 
HETATM    7  C   UNL     1      40.603 -14.040   5.528  1.00  0.00     0.070 C 
ENDROOT
BRANCH   1   8
HETATM    8  C   UNL     1      43.252 -15.121   3.770  1.00  0.00     0.146 C 
BRANCH   8   9
HETATM    9  C   UNL     1      42.717 -14.320   2.590  1.00  0.00     0.222 C 
HETATM   10  N   UNL     1      41.913 -15.035   1.723  1.00  0.00    -0.359 N 
HETATM   11  H   UNL     1      41.843 -16.037   1.882  1.00  0.00     0.162 HD
HETATM   12  O   UNL     1      42.952 -13.123   2.421  1.00  0.00    -0.273 OA
BRANCH  10  13
HETATM   13  C   UNL     1      41.328 -14.533   0.482  1.00  0.00     0.155 C 
BRANCH  13  14
HETATM   14  C   UNL     1      39.945 -13.865   0.606  1.00  0.00     0.206 C 
HETATM   15  N   UNL     1      39.298 -13.413  -0.698  1.00  0.00    -0.066 N 
HETATM   16  H   UNL     1      39.856 -12.581  -0.995  1.00  0.00     0.280 HD
HETATM   17  C   UNL     1      37.907 -13.021  -0.265  1.00  0.00     0.235 C 
HETATM   18  C   UNL     1      37.573 -13.963   0.891  1.00  0.00     0.030 C 
HETATM   19  C   UNL     1      38.854 -14.723   1.219  1.00  0.00     0.036 C 
BRANCH  15  20
HETATM   20  C   UNL     1      39.338 -14.364  -1.869  1.00  0.00     0.231 C 
HETATM   21  C   UNL     1      38.078 -14.238  -2.711  1.00  0.00     0.034 C 
ENDBRANCH  15  20
ENDBRANCH  13  14
ENDBRANCH  10  13
ENDBRANCH   8   9
ENDBRANCH   1   8
BRANCH   2  22
HETATM   22  C   UNL     1      42.864 -18.343   3.928  1.00  0.00    -0.005 A 
HETATM   23  C   UNL     1      43.789 -19.094   4.666  1.00  0.00     0.017 A 
HETATM   24  C   UNL     1      44.552 -20.082   4.036  1.00  0.00     0.043 A 
HETATM   25  C   UNL     1      44.380 -20.322   2.677  1.00  0.00     0.116 A 
HETATM   26  F   UNL     1      45.112 -21.270   2.079  1.00  0.00    -0.206 F 
HETATM   27  C   UNL     1      43.457 -19.600   1.933  1.00  0.00     0.043 A 
HETATM   28  C   UNL     1      42.696 -18.611   2.560  1.00  0.00     0.017 A 
ENDBRANCH   2  22
TORSDOF 6
ENDMDL
MODEL 7
REMARK VINA RESULT:      -7.4      1.421      2.331
REMARK  6 active torsions:
REMARK  status: ('A' for Active; 'I' for Inactive)
REMARK    1  A    between atoms: C_2  and  N_3 
REMARK    2  A    between atoms: C_5  and  C_6 
REMARK    3  A    between atoms: C_6  and  N_7 
REMARK       I    between atoms: N_7  and  C_8 
REMARK    4  A    between atoms: C_8  and  C_9 
REMARK    5  A    between atoms: C_9  and  C_10 
REMARK    6  A    between atoms: C_11  and  C_12 
ROOT
HETATM    1  C   UNL     1      43.250 -18.345   6.007  1.00  0.00     0.006 A 
HETATM    2  C   UNL     1      44.305 -18.946   5.237  1.00  0.00     0.096 A 
HETATM    3  N   UNL     1      45.506 -18.641   5.745  1.00  0.00    -0.173 NA
HETATM    4  N   UNL     1      45.247 -17.866   6.798  1.00  0.00    -0.282 N 
HETATM    5  H   UNL     1      46.036 -17.520   7.335  1.00  0.00     0.189 HD
HETATM    6  C   UNL     1      43.913 -17.675   7.028  1.00  0.00     0.033 A 
HETATM    7  C   UNL     1      43.452 -16.891   8.196  1.00  0.00     0.070 C 
ENDROOT
BRANCH   1   8
HETATM    8  C   UNL     1      41.780 -18.526   5.787  1.00  0.00     0.146 C 
BRANCH   8   9
HETATM    9  C   UNL     1      41.075 -17.283   5.259  1.00  0.00     0.222 C 
HETATM   10  N   UNL     1      40.996 -17.206   3.881  1.00  0.00    -0.359 N 
HETATM   11  H   UNL     1      41.504 -17.909   3.351  1.00  0.00     0.162 HD
HETATM   12  O   UNL     1      40.585 -16.420   5.988  1.00  0.00    -0.273 OA
BRANCH  10  13
HETATM   13  C   UNL     1      40.436 -16.095   3.115  1.00  0.00     0.155 C 
BRANCH  13  14
HETATM   14  C   UNL     1      41.416 -14.970   2.734  1.00  0.00     0.206 C 
HETATM   15  N   UNL     1      40.975 -13.551   3.074  1.00  0.00    -0.066 N 
HETATM   16  H   UNL     1      40.213 -13.341   2.392  1.00  0.00     0.280 HD
HETATM   17  C   UNL     1      42.213 -12.736   2.790  1.00  0.00     0.235 C 
HETATM   18  C   UNL     1      43.381 -13.663   3.124  1.00  0.00     0.030 C 
HETATM   19  C   UNL     1      42.782 -15.041   3.390  1.00  0.00     0.036 C 
BRANCH  15  20
HETATM   20  C   UNL     1      40.373 -13.309   4.437  1.00  0.00     0.231 C 
HETATM   21  C   UNL     1      39.278 -12.256   4.365  1.00  0.00     0.034 C 
ENDBRANCH  15  20
ENDBRANCH  13  14
ENDBRANCH  10  13
ENDBRANCH   8   9
ENDBRANCH   1   8
BRANCH   2  22
HETATM   22  C   UNL     1      44.216 -19.837   4.082  1.00  0.00    -0.005 A 
HETATM   23  C   UNL     1      43.715 -19.385   2.854  1.00  0.00     0.017 A 
HETATM   24  C   UNL     1      43.644 -20.255   1.762  1.00  0.00     0.043 A 
HETATM   25  C   UNL     1      44.083 -21.568   1.899  1.00  0.00     0.116 A 
HETATM   26  F   UNL     1      44.015 -22.397   0.850  1.00  0.00    -0.206 F 
HETATM   27  C   UNL     1      44.598 -22.029   3.103  1.00  0.00     0.043 A 
HETATM   28  C   UNL     1      44.668 -21.162   4.195  1.00  0.00     0.017 A 
ENDBRANCH   2  22
TORSDOF 6
ENDMDL
MODEL 8
REMARK VINA RESULT:      -7.4      4.031      4.871
REMARK  6 active torsions:
REMARK  status: ('A' for Active; 'I' for Inactive)
REMARK    1  A    between atoms: C_2  and  N_3 
REMARK    2  A    between atoms: C_5  and  C_6 
REMARK    3  A    between atoms: C_6  and  N_7 
REMARK       I    between atoms: N_7  and  C_8 
REMARK    4  A    between atoms: C_8  and  C_9 
REMARK    5  A    between atoms: C_9  and  C_10 
REMARK    6  A    between atoms: C_11  and  C_12 
ROOT
HETATM    1  C   UNL     1      42.035 -16.786   4.274  1.00  0.00     0.006 A 
HETATM    2  C   UNL     1      43.177 -17.630   4.495  1.00  0.00     0.096 A 
HETATM    3  N   UNL     1      43.894 -17.206   5.542  1.00  0.00    -0.173 NA
HETATM    4  N   UNL     1      43.253 -16.124   5.983  1.00  0.00    -0.282 N 
HETATM    5  H   UNL     1      43.638 -15.642   6.788  1.00  0.00     0.189 HD
HETATM    6  C   UNL     1      42.113 -15.836   5.285  1.00  0.00     0.033 A 
HETATM    7  C   UNL     1      41.247 -14.703   5.684  1.00  0.00     0.070 C 
ENDROOT
BRANCH   1   8
HETATM    8  C   UNL     1      40.966 -16.993   3.245  1.00  0.00     0.146 C 
BRANCH   8   9
HETATM    9  C   UNL     1      40.698 -15.772   2.376  1.00  0.00     0.222 C 
HETATM   10  N   UNL     1      41.575 -15.610   1.321  1.00  0.00    -0.359 N 
HETATM   11  H   UNL     1      42.373 -16.239   1.285  1.00  0.00     0.162 HD
HETATM   12  O   UNL     1      39.761 -14.995   2.569  1.00  0.00    -0.273 OA
BRANCH  10  13
HETATM   13  C   UNL     1      41.587 -14.493   0.378  1.00  0.00     0.155 C 
BRANCH  13  14
HETATM   14  C   UNL     1      41.107 -14.808  -1.052  1.00  0.00     0.206 C 
HETATM   15  N   UNL     1      39.610 -14.681  -1.301  1.00  0.00    -0.066 N 
HETATM   16  H   UNL     1      39.189 -15.498  -0.804  1.00  0.00     0.280 HD
HETATM   17  C   UNL     1      39.503 -14.829  -2.799  1.00  0.00     0.235 C 
HETATM   18  C   UNL     1      40.792 -14.219  -3.349  1.00  0.00     0.030 C 
HETATM   19  C   UNL     1      41.685 -13.930  -2.146  1.00  0.00     0.036 C 
BRANCH  15  20
HETATM   20  C   UNL     1      38.904 -13.467  -0.748  1.00  0.00     0.231 C 
HETATM   21  C   UNL     1      37.693 -13.873   0.076  1.00  0.00     0.034 C 
ENDBRANCH  15  20
ENDBRANCH  13  14
ENDBRANCH  10  13
ENDBRANCH   8   9
ENDBRANCH   1   8
BRANCH   2  22
HETATM   22  C   UNL     1      43.578 -18.847   3.792  1.00  0.00    -0.005 A 
HETATM   23  C   UNL     1      43.216 -19.067   2.456  1.00  0.00     0.017 A 
HETATM   24  C   UNL     1      43.616 -20.236   1.803  1.00  0.00     0.043 A 
HETATM   25  C   UNL     1      44.384 -21.175   2.483  1.00  0.00     0.116 A 
HETATM   26  F   UNL     1      44.766 -22.293   1.854  1.00  0.00    -0.206 F 
HETATM   27  C   UNL     1      44.766 -20.968   3.802  1.00  0.00     0.043 A 
HETATM   28  C   UNL     1      44.366 -19.801   4.456  1.00  0.00     0.017 A 
ENDBRANCH   2  22
TORSDOF 6
ENDMDL
MODEL 9
REMARK VINA RESULT:      -7.4      2.702      4.129
REMARK  6 active torsions:
REMARK  status: ('A' for Active; 'I' for Inactive)
REMARK    1  A    between atoms: C_2  and  N_3 
REMARK    2  A    between atoms: C_5  and  C_6 
REMARK    3  A    between atoms: C_6  and  N_7 
REMARK       I    between atoms: N_7  and  C_8 
REMARK    4  A    between atoms: C_8  and  C_9 
REMARK    5  A    between atoms: C_9  and  C_10 
REMARK    6  A    between atoms: C_11  and  C_12 
ROOT
HETATM    1  C   UNL     1      44.506 -20.199   4.014  1.00  0.00     0.006 A 
HETATM    2  C   UNL     1      43.898 -20.029   2.722  1.00  0.00     0.096 A 
HETATM    3  N   UNL     1      43.791 -21.200   2.082  1.00  0.00    -0.173 NA
HETATM    4  N   UNL     1      44.314 -22.097   2.917  1.00  0.00    -0.282 N 
HETATM    5  H   UNL     1      44.330 -23.067   2.619  1.00  0.00     0.189 HD
HETATM    6  C   UNL     1      44.734 -21.567   4.105  1.00  0.00     0.033 A 
HETATM    7  C   UNL     1      45.282 -22.437   5.170  1.00  0.00     0.070 C 
ENDROOT
BRANCH   1   8
HETATM    8  C   UNL     1      44.718 -19.130   5.040  1.00  0.00     0.146 C 
BRANCH   8   9
HETATM    9  C   UNL     1      43.473 -18.309   5.347  1.00  0.00     0.222 C 
HETATM   10  N   UNL     1      43.686 -16.947   5.436  1.00  0.00    -0.359 N 
HETATM   11  H   UNL     1      44.651 -16.629   5.403  1.00  0.00     0.162 HD
HETATM   12  O   UNL     1      42.352 -18.802   5.483  1.00  0.00    -0.273 OA
BRANCH  10  13
HETATM   13  C   UNL     1      42.684 -15.941   5.784  1.00  0.00     0.155 C 
BRANCH  13  14
HETATM   14  C   UNL     1      42.723 -14.634   4.970  1.00  0.00     0.206 C 
HETATM   15  N   UNL     1      41.842 -14.589   3.729  1.00  0.00    -0.066 N 
HETATM   16  H   UNL     1      42.315 -15.221   3.045  1.00  0.00     0.280 HD
HETATM   17  C   UNL     1      41.933 -13.145   3.302  1.00  0.00     0.235 C 
HETATM   18  C   UNL     1      42.086 -12.358   4.604  1.00  0.00     0.030 C 
HETATM   19  C   UNL     1      42.285 -13.386   5.713  1.00  0.00     0.036 C 
BRANCH  15  20
HETATM   20  C   UNL     1      40.430 -15.112   3.848  1.00  0.00     0.231 C 
HETATM   21  C   UNL     1      39.576 -14.633   2.684  1.00  0.00     0.034 C 
ENDBRANCH  15  20
ENDBRANCH  13  14
ENDBRANCH  10  13
ENDBRANCH   8   9
ENDBRANCH   1   8
BRANCH   2  22
HETATM   22  C   UNL     1      43.369 -18.817   2.101  1.00  0.00    -0.005 A 
HETATM   23  C   UNL     1      42.001 -18.681   1.824  1.00  0.00     0.017 A 
HETATM   24  C   UNL     1      41.518 -17.510   1.233  1.00  0.00     0.043 A 
HETATM   25  C   UNL     1      42.399 -16.477   0.932  1.00  0.00     0.116 A 
HETATM   26  F   UNL     1      41.931 -15.356   0.368  1.00  0.00    -0.206 F 
HETATM   27  C   UNL     1      43.754 -16.586   1.214  1.00  0.00     0.043 A 
HETATM   28  C   UNL     1      44.239 -17.756   1.802  1.00  0.00     0.017 A 
ENDBRANCH   2  22
TORSDOF 6
ENDMDL
MODEL 10
REMARK VINA RESULT:      -7.3      4.647      5.508
REMARK  6 active torsions:
REMARK  status: ('A' for Active; 'I' for Inactive)
REMARK    1  A    between atoms: C_2  and  N_3 
REMARK    2  A    between atoms: C_5  and  C_6 
REMARK    3  A    between atoms: C_6  and  N_7 
REMARK       I    between atoms: N_7  and  C_8 
REMARK    4  A    between atoms: C_8  and  C_9 
REMARK    5  A    between atoms: C_9  and  C_10 
REMARK    6  A    between atoms: C_11  and  C_12 
ROOT
HETATM    1  C   UNL     1      42.311 -16.441   3.182  1.00  0.00     0.006 A 
HETATM    2  C   UNL     1      42.487 -17.703   3.846  1.00  0.00     0.096 A 
HETATM    3  N   UNL     1      41.851 -17.721   5.024  1.00  0.00    -0.173 NA
HETATM    4  N   UNL     1      41.289 -16.518   5.129  1.00  0.00    -0.282 N 
HETATM    5  H   UNL     1      40.748 -16.321   5.965  1.00  0.00     0.189 HD
HETATM    6  C   UNL     1      41.501 -15.713   4.044  1.00  0.00     0.033 A 
HETATM    7  C   UNL     1      40.892 -14.365   3.972  1.00  0.00     0.070 C 
ENDROOT
BRANCH   1   8
HETATM    8  C   UNL     1      42.810 -16.082   1.816  1.00  0.00     0.146 C 
BRANCH   8   9
HETATM    9  C   UNL     1      41.771 -16.241   0.714  1.00  0.00     0.222 C 
HETATM   10  N   UNL     1      41.918 -15.369  -0.348  1.00  0.00    -0.359 N 
HETATM   11  H   UNL     1      42.619 -14.639  -0.251  1.00  0.00     0.162 HD
HETATM   12  O   UNL     1      40.881 -17.091   0.740  1.00  0.00    -0.273 OA
BRANCH  10  13
HETATM   13  C   UNL     1      41.025 -15.261  -1.500  1.00  0.00     0.155 C 
BRANCH  13  14
HETATM   14  C   UNL     1      40.071 -14.052  -1.507  1.00  0.00     0.206 C 
HETATM   15  N   UNL     1      39.213 -13.881  -2.755  1.00  0.00    -0.066 N 
HETATM   16  H   UNL     1      39.880 -13.567  -3.494  1.00  0.00     0.280 HD
HETATM   17  C   UNL     1      38.262 -12.777  -2.361  1.00  0.00     0.235 C 
HETATM   18  C   UNL     1      38.043 -12.961  -0.860  1.00  0.00     0.030 C 
HETATM   19  C   UNL     1      39.030 -14.030  -0.403  1.00  0.00     0.036 C 
BRANCH  15  20
HETATM   20  C   UNL     1      38.537 -15.108  -3.318  1.00  0.00     0.231 C 
HETATM   21  C   UNL     1      37.176 -14.758  -3.898  1.00  0.00     0.034 C 
ENDBRANCH  15  20
ENDBRANCH  13  14
ENDBRANCH  10  13
ENDBRANCH   8   9
ENDBRANCH   1   8
BRANCH   2  22
HETATM   22  C   UNL     1      43.183 -18.903   3.385  1.00  0.00    -0.005 A 
HETATM   23  C   UNL     1      42.801 -19.555   2.205  1.00  0.00     0.017 A 
HETATM   24  C   UNL     1      43.485 -20.698   1.781  1.00  0.00     0.043 A 
HETATM   25  C   UNL     1      44.553 -21.179   2.532  1.00  0.00     0.116 A 
HETATM   26  F   UNL     1      45.206 -22.273   2.122  1.00  0.00    -0.206 F 
HETATM   27  C   UNL     1      44.956 -20.537   3.695  1.00  0.00     0.043 A 
HETATM   28  C   UNL     1      44.273 -19.396   4.121  1.00  0.00     0.017 A 
ENDBRANCH   2  22
TORSDOF 6
ENDMDL
