MODEL 1
REMARK VINA RESULT:      -8.2      0.000      0.000
REMARK  6 active torsions:
REMARK  status: ('A' for Active; 'I' for Inactive)
REMARK    1  A    between atoms: C_2  and  O_3 
REMARK    2  A    between atoms: O_3  and  C_4 
REMARK    3  A    between atoms: C_5  and  O_6 
REMARK    4  A    between atoms: O_6  and  C_7 
REMARK    5  A    between atoms: C_7  and  C_8 
REMARK    6  A    between atoms: C_16  and  C_17 
ROOT
HETATM    1  C   UNL     1      41.380 -15.833   4.354  1.00  0.00     0.102 A 
HETATM    2  C   UNL     1      41.696 -17.026   3.695  1.00  0.00     0.102 A 
HETATM    3  C   UNL     1      41.141 -17.282   2.434  1.00  0.00     0.040 A 
HETATM    4  C   UNL     1      40.331 -16.337   1.801  1.00  0.00     0.014 A 
HETATM    5  C   UNL     1      40.054 -15.105   2.408  1.00  0.00    -0.007 A 
HETATM    6  C   UNL     1      40.572 -14.886   3.696  1.00  0.00     0.051 A 
ENDROOT
BRANCH   5   7
HETATM    7  C   UNL     1      39.154 -14.087   1.715  1.00  0.00     0.264 C 
HETATM    8  O   UNL     1      39.122 -14.278   0.290  1.00  0.00    -0.321 OA
HETATM    9  C   UNL     1      40.195 -13.731  -0.365  1.00  0.00     0.087 A 
HETATM   10  C   UNL     1      40.915 -12.651   0.143  1.00  0.00     0.065 A 
HETATM   11  C   UNL     1      40.538 -14.276  -1.600  1.00  0.00     0.038 A 
HETATM   12  C   UNL     1      40.464 -12.053   1.409  1.00  0.00     0.256 C 
HETATM   13  C   UNL     1      41.999 -12.125  -0.562  1.00  0.00     0.020 A 
HETATM   14  O   UNL     1      40.945 -11.023   1.861  1.00  0.00    -0.267 OA
HETATM   15  N   UNL     1      39.446 -12.715   2.033  1.00  0.00    -0.326 N 
HETATM   16  H   UNL     1      39.185 -12.349   2.937  1.00  0.00     0.165 HD
HETATM   17  C   UNL     1      42.358 -12.688  -1.788  1.00  0.00     0.001 A 
HETATM   18  C   UNL     1      41.626 -13.758  -2.308  1.00  0.00     0.003 A 
ENDBRANCH   5   7
BRANCH   1  19
HETATM   19  O   UNL     1      41.755 -15.401   5.597  1.00  0.00    -0.349 OA
BRANCH  19  20
HETATM   20  C   UNL     1      43.032 -14.815   5.825  1.00  0.00     0.171 C 
HETATM   21  C   UNL     1      43.915 -15.712   6.676  1.00  0.00     0.034 C 
ENDBRANCH  19  20
ENDBRANCH   1  19
BRANCH   2  22
HETATM   22  O   UNL     1      42.478 -17.970   4.303  1.00  0.00    -0.344 OA
BRANCH  22  23
HETATM   23  C   UNL     1      43.780 -18.109   3.728  1.00  0.00     0.214 C 
BRANCH  23  24
HETATM   24  C   UNL     1      43.993 -19.562   3.380  1.00  0.00    -0.034 A 
HETATM   25  C   UNL     1      44.616 -20.425   4.293  1.00  0.00     0.009 A 
HETATM   26  C   UNL     1      44.819 -21.768   3.971  1.00  0.00     0.001 A 
HETATM   27  C   UNL     1      44.409 -22.259   2.733  1.00  0.00     0.000 A 
HETATM   28  C   UNL     1      43.802 -21.407   1.813  1.00  0.00     0.001 A 
HETATM   29  C   UNL     1      43.597 -20.063   2.132  1.00  0.00     0.009 A 
ENDBRANCH  23  24
ENDBRANCH  22  23
ENDBRANCH   2  22
TORSDOF 6
ENDMDL
MODEL 2
REMARK VINA RESULT:      -8.1      3.450      7.541
REMARK  6 active torsions:
REMARK  status: ('A' for Active; 'I' for Inactive)
REMARK    1  A    between atoms: C_2  and  O_3 
REMARK    2  A    between atoms: O_3  and  C_4 
REMARK    3  A    between atoms: C_5  and  O_6 
REMARK    4  A    between atoms: O_6  and  C_7 
REMARK    5  A    between atoms: C_7  and  C_8 
REMARK    6  A    between atoms: C_16  and  C_17 
ROOT
HETATM    1  C   UNL     1      42.793 -13.612   6.071  1.00  0.00     0.102 A 
HETATM    2  C   UNL     1      44.035 -13.860   6.668  1.00  0.00     0.102 A 
HETATM    3  C   UNL     1      44.406 -15.180   6.955  1.00  0.00     0.040 A 
HETATM    4  C   UNL     1      43.585 -16.252   6.599  1.00  0.00     0.014 A 
HETATM    5  C   UNL     1      42.368 -16.036   5.939  1.00  0.00    -0.007 A 
HETATM    6  C   UNL     1      41.983 -14.704   5.707  1.00  0.00     0.051 A 
ENDROOT
BRANCH   5   7
HETATM    7  C   UNL     1      41.470 -17.213   5.569  1.00  0.00     0.264 C 
HETATM    8  O   UNL     1      42.230 -18.403   5.290  1.00  0.00    -0.321 OA
HETATM    9  C   UNL     1      42.752 -18.441   4.023  1.00  0.00     0.087 A 
HETATM   10  C   UNL     1      42.182 -17.753   2.954  1.00  0.00     0.065 A 
HETATM   11  C   UNL     1      43.881 -19.231   3.818  1.00  0.00     0.038 A 
HETATM   12  C   UNL     1      40.941 -17.001   3.197  1.00  0.00     0.256 C 
HETATM   13  C   UNL     1      42.747 -17.825   1.679  1.00  0.00     0.020 A 
HETATM   14  O   UNL     1      40.295 -16.482   2.297  1.00  0.00    -0.267 OA
HETATM   15  N   UNL     1      40.543 -16.946   4.502  1.00  0.00    -0.326 N 
HETATM   16  H   UNL     1      39.734 -16.369   4.682  1.00  0.00     0.165 HD
HETATM   17  C   UNL     1      43.893 -18.596   1.481  1.00  0.00     0.001 A 
HETATM   18  C   UNL     1      44.455 -19.301   2.547  1.00  0.00     0.003 A 
ENDBRANCH   5   7
BRANCH   1  19
HETATM   19  O   UNL     1      42.205 -12.418   5.755  1.00  0.00    -0.349 OA
BRANCH  19  20
HETATM   20  C   UNL     1      40.789 -12.275   5.721  1.00  0.00     0.171 C 
HETATM   21  C   UNL     1      40.277 -11.494   6.920  1.00  0.00     0.034 C 
ENDBRANCH  19  20
ENDBRANCH   1  19
BRANCH   2  22
HETATM   22  O   UNL     1      44.848 -12.824   7.037  1.00  0.00    -0.344 OA
BRANCH  22  23
HETATM   23  C   UNL     1      45.387 -12.945   8.356  1.00  0.00     0.214 C 
BRANCH  23  24
HETATM   24  C   UNL     1      44.488 -12.192   9.307  1.00  0.00    -0.034 A 
HETATM   25  C   UNL     1      44.525 -12.463  10.682  1.00  0.00     0.009 A 
HETATM   26  C   UNL     1      43.691 -11.773  11.562  1.00  0.00     0.001 A 
HETATM   27  C   UNL     1      42.807 -10.811  11.076  1.00  0.00     0.000 A 
HETATM   28  C   UNL     1      42.751 -10.544   9.710  1.00  0.00     0.001 A 
HETATM   29  C   UNL     1      43.585 -11.233   8.827  1.00  0.00     0.009 A 
ENDBRANCH  23  24
ENDBRANCH  22  23
ENDBRANCH   2  22
TORSDOF 6
ENDMDL
MODEL 3
REMARK VINA RESULT:      -7.9      1.698      2.887
REMARK  6 active torsions:
REMARK  status: ('A' for Active; 'I' for Inactive)
REMARK    1  A    between atoms: C_2  and  O_3 
REMARK    2  A    between atoms: O_3  and  C_4 
REMARK    3  A    between atoms: C_5  and  O_6 
REMARK    4  A    between atoms: O_6  and  C_7 
REMARK    5  A    between atoms: C_7  and  C_8 
REMARK    6  A    between atoms: C_16  and  C_17 
ROOT
HETATM    1  C   UNL     1      41.862 -16.053   3.280  1.00  0.00     0.102 A 
HETATM    2  C   UNL     1      42.127 -17.382   2.929  1.00  0.00     0.102 A 
HETATM    3  C   UNL     1      41.839 -17.820   1.630  1.00  0.00     0.040 A 
HETATM    4  C   UNL     1      41.351 -16.936   0.665  1.00  0.00     0.014 A 
HETATM    5  C   UNL     1      41.142 -15.585   0.970  1.00  0.00    -0.007 A 
HETATM    6  C   UNL     1      41.382 -15.172   2.292  1.00  0.00     0.051 A 
ENDROOT
BRANCH   5   7
HETATM    7  C   UNL     1      40.593 -14.630  -0.087  1.00  0.00     0.264 C 
HETATM    8  O   UNL     1      41.086 -13.290   0.089  1.00  0.00    -0.321 OA
HETATM    9  C   UNL     1      40.411 -12.574   1.044  1.00  0.00     0.087 A 
HETATM   10  C   UNL     1      39.090 -12.845   1.394  1.00  0.00     0.065 A 
HETATM   11  C   UNL     1      41.088 -11.520   1.653  1.00  0.00     0.038 A 
HETATM   12  C   UNL     1      38.386 -13.912   0.665  1.00  0.00     0.256 C 
HETATM   13  C   UNL     1      38.442 -12.086   2.370  1.00  0.00     0.020 A 
HETATM   14  O   UNL     1      37.190 -14.129   0.804  1.00  0.00    -0.267 OA
HETATM   15  N   UNL     1      39.159 -14.628  -0.204  1.00  0.00    -0.326 N 
HETATM   16  H   UNL     1      38.697 -15.407  -0.650  1.00  0.00     0.165 HD
HETATM   17  C   UNL     1      39.130 -11.046   2.997  1.00  0.00     0.001 A 
HETATM   18  C   UNL     1      40.448 -10.761   2.635  1.00  0.00     0.003 A 
ENDBRANCH   5   7
BRANCH   1  19
HETATM   19  O   UNL     1      42.008 -15.428   4.488  1.00  0.00    -0.349 OA
BRANCH  19  20
HETATM   20  C   UNL     1      41.605 -14.076   4.676  1.00  0.00     0.171 C 
HETATM   21  C   UNL     1      40.376 -13.978   5.564  1.00  0.00     0.034 C 
ENDBRANCH  19  20
ENDBRANCH   1  19
BRANCH   2  22
HETATM   22  O   UNL     1      42.592 -18.268   3.863  1.00  0.00    -0.344 OA
BRANCH  22  23
HETATM   23  C   UNL     1      44.008 -18.471   3.820  1.00  0.00     0.214 C 
BRANCH  23  24
HETATM   24  C   UNL     1      44.271 -19.956   3.744  1.00  0.00    -0.034 A 
HETATM   25  C   UNL     1      44.130 -20.638   2.527  1.00  0.00     0.009 A 
HETATM   26  C   UNL     1      44.367 -22.012   2.455  1.00  0.00     0.001 A 
HETATM   27  C   UNL     1      44.740 -22.717   3.598  1.00  0.00     0.000 A 
HETATM   28  C   UNL     1      44.868 -22.051   4.816  1.00  0.00     0.001 A 
HETATM   29  C   UNL     1      44.632 -20.677   4.890  1.00  0.00     0.009 A 
ENDBRANCH  23  24
ENDBRANCH  22  23
ENDBRANCH   2  22
TORSDOF 6
ENDMDL
MODEL 4
REMARK VINA RESULT:      -7.8      1.828      2.613
REMARK  6 active torsions:
REMARK  status: ('A' for Active; 'I' for Inactive)
REMARK    1  A    between atoms: C_2  and  O_3 
REMARK    2  A    between atoms: O_3  and  C_4 
REMARK    3  A    between atoms: C_5  and  O_6 
REMARK    4  A    between atoms: O_6  and  C_7 
REMARK    5  A    between atoms: C_7  and  C_8 
REMARK    6  A    between atoms: C_16  and  C_17 
ROOT
HETATM    1  C   UNL     1      41.111 -15.616   3.025  1.00  0.00     0.102 A 
HETATM    2  C   UNL     1      41.880 -16.605   2.401  1.00  0.00     0.102 A 
HETATM    3  C   UNL     1      42.321 -16.404   1.087  1.00  0.00     0.040 A 
HETATM    4  C   UNL     1      42.058 -15.208   0.415  1.00  0.00     0.014 A 
HETATM    5  C   UNL     1      41.349 -14.175   1.040  1.00  0.00    -0.007 A 
HETATM    6  C   UNL     1      40.865 -14.412   2.338  1.00  0.00     0.051 A 
ENDROOT
BRANCH   5   7
HETATM    7  C   UNL     1      41.051 -12.879   0.292  1.00  0.00     0.264 C 
HETATM    8  O   UNL     1      39.693 -12.828  -0.179  1.00  0.00    -0.321 OA
HETATM    9  C   UNL     1      39.487 -13.516  -1.348  1.00  0.00     0.087 A 
HETATM   10  C   UNL     1      40.502 -13.743  -2.275  1.00  0.00     0.065 A 
HETATM   11  C   UNL     1      38.196 -13.969  -1.606  1.00  0.00     0.038 A 
HETATM   12  C   UNL     1      41.831 -13.173  -2.001  1.00  0.00     0.256 C 
HETATM   13  C   UNL     1      40.244 -14.446  -3.453  1.00  0.00     0.020 A 
HETATM   14  O   UNL     1      42.742 -13.201  -2.816  1.00  0.00    -0.267 OA
HETATM   15  N   UNL     1      41.966 -12.582  -0.778  1.00  0.00    -0.326 N 
HETATM   16  H   UNL     1      42.896 -12.256  -0.558  1.00  0.00     0.165 HD
HETATM   17  C   UNL     1      38.956 -14.921  -3.700  1.00  0.00     0.001 A 
HETATM   18  C   UNL     1      37.933 -14.679  -2.781  1.00  0.00     0.003 A 
ENDBRANCH   5   7
BRANCH   1  19
HETATM   19  O   UNL     1      40.533 -15.618   4.265  1.00  0.00    -0.349 OA
BRANCH  19  20
HETATM   20  C   UNL     1      41.072 -14.851   5.336  1.00  0.00     0.171 C 
HETATM   21  C   UNL     1      42.473 -15.311   5.704  1.00  0.00     0.034 C 
ENDBRANCH  19  20
ENDBRANCH   1  19
BRANCH   2  22
HETATM   22  O   UNL     1      42.139 -17.789   3.037  1.00  0.00    -0.344 OA
BRANCH  22  23
HETATM   23  C   UNL     1      43.523 -18.008   3.324  1.00  0.00     0.214 C 
BRANCH  23  24
HETATM   24  C   UNL     1      43.824 -19.472   3.118  1.00  0.00    -0.034 A 
HETATM   25  C   UNL     1      43.425 -20.119   1.940  1.00  0.00     0.009 A 
HETATM   26  C   UNL     1      43.696 -21.475   1.749  1.00  0.00     0.001 A 
HETATM   27  C   UNL     1      44.362 -22.199   2.738  1.00  0.00     0.000 A 
HETATM   28  C   UNL     1      44.750 -21.569   3.919  1.00  0.00     0.001 A 
HETATM   29  C   UNL     1      44.480 -20.213   4.111  1.00  0.00     0.009 A 
ENDBRANCH  23  24
ENDBRANCH  22  23
ENDBRANCH   2  22
TORSDOF 6
ENDMDL
MODEL 5
REMARK VINA RESULT:      -7.7      2.278      7.073
REMARK  6 active torsions:
REMARK  status: ('A' for Active; 'I' for Inactive)
REMARK    1  A    between atoms: C_2  and  O_3 
REMARK    2  A    between atoms: O_3  and  C_4 
REMARK    3  A    between atoms: C_5  and  O_6 
REMARK    4  A    between atoms: O_6  and  C_7 
REMARK    5  A    between atoms: C_7  and  C_8 
REMARK    6  A    between atoms: C_16  and  C_17 
ROOT
HETATM    1  C   UNL     1      41.104 -16.090   1.593  1.00  0.00     0.102 A 
HETATM    2  C   UNL     1      41.192 -15.075   0.633  1.00  0.00     0.102 A 
HETATM    3  C   UNL     1      40.906 -13.754   1.003  1.00  0.00     0.040 A 
HETATM    4  C   UNL     1      40.597 -13.429   2.326  1.00  0.00     0.014 A 
HETATM    5  C   UNL     1      40.569 -14.416   3.320  1.00  0.00    -0.007 A 
HETATM    6  C   UNL     1      40.803 -15.743   2.924  1.00  0.00     0.051 A 
ENDROOT
BRANCH   5   7
HETATM    7  C   UNL     1      40.212 -14.052   4.758  1.00  0.00     0.264 C 
HETATM    8  O   UNL     1      41.286 -13.360   5.421  1.00  0.00    -0.321 OA
HETATM    9  C   UNL     1      42.264 -14.190   5.904  1.00  0.00     0.087 A 
HETATM   10  C   UNL     1      42.021 -15.518   6.247  1.00  0.00     0.065 A 
HETATM   11  C   UNL     1      43.536 -13.649   6.076  1.00  0.00     0.038 A 
HETATM   12  C   UNL     1      40.644 -16.023   6.130  1.00  0.00     0.256 C 
HETATM   13  C   UNL     1      43.049 -16.325   6.739  1.00  0.00     0.020 A 
HETATM   14  O   UNL     1      40.308 -17.127   6.536  1.00  0.00    -0.267 OA
HETATM   15  N   UNL     1      39.756 -15.157   5.559  1.00  0.00    -0.326 N 
HETATM   16  H   UNL     1      38.829 -15.527   5.410  1.00  0.00     0.165 HD
HETATM   17  C   UNL     1      44.329 -15.789   6.888  1.00  0.00     0.001 A 
HETATM   18  C   UNL     1      44.571 -14.453   6.562  1.00  0.00     0.003 A 
ENDBRANCH   5   7
BRANCH   1  19
HETATM   19  O   UNL     1      41.281 -17.439   1.449  1.00  0.00    -0.349 OA
BRANCH  19  20
HETATM   20  C   UNL     1      42.579 -18.022   1.466  1.00  0.00     0.171 C 
HETATM   21  C   UNL     1      42.859 -18.725   2.784  1.00  0.00     0.034 C 
ENDBRANCH  19  20
ENDBRANCH   1  19
BRANCH   2  22
HETATM   22  O   UNL     1      41.482 -15.374  -0.670  1.00  0.00    -0.344 OA
BRANCH  22  23
HETATM   23  C   UNL     1      41.222 -14.307  -1.586  1.00  0.00     0.214 C 
BRANCH  23  24
HETATM   24  C   UNL     1      40.032 -14.688  -2.433  1.00  0.00    -0.034 A 
HETATM   25  C   UNL     1      38.813 -14.009  -2.290  1.00  0.00     0.009 A 
HETATM   26  C   UNL     1      37.710 -14.363  -3.067  1.00  0.00     0.001 A 
HETATM   27  C   UNL     1      37.811 -15.404  -3.990  1.00  0.00     0.000 A 
HETATM   28  C   UNL     1      39.013 -16.095  -4.130  1.00  0.00     0.001 A 
HETATM   29  C   UNL     1      40.118 -15.742  -3.353  1.00  0.00     0.009 A 
ENDBRANCH  23  24
ENDBRANCH  22  23
ENDBRANCH   2  22
TORSDOF 6
ENDMDL
MODEL 6
REMARK VINA RESULT:      -7.7      1.825      2.516
REMARK  6 active torsions:
REMARK  status: ('A' for Active; 'I' for Inactive)
REMARK    1  A    between atoms: C_2  and  O_3 
REMARK    2  A    between atoms: O_3  and  C_4 
REMARK    3  A    between atoms: C_5  and  O_6 
REMARK    4  A    between atoms: O_6  and  C_7 
REMARK    5  A    between atoms: C_7  and  C_8 
REMARK    6  A    between atoms: C_16  and  C_17 
ROOT
HETATM    1  C   UNL     1      41.910 -17.164   6.422  1.00  0.00     0.102 A 
HETATM    2  C   UNL     1      42.320 -17.948   5.337  1.00  0.00     0.102 A 
HETATM    3  C   UNL     1      41.861 -17.633   4.051  1.00  0.00     0.040 A 
HETATM    4  C   UNL     1      41.055 -16.514   3.830  1.00  0.00     0.014 A 
HETATM    5  C   UNL     1      40.686 -15.674   4.888  1.00  0.00    -0.007 A 
HETATM    6  C   UNL     1      41.108 -16.034   6.180  1.00  0.00     0.051 A 
ENDROOT
BRANCH   5   7
HETATM    7  C   UNL     1      39.791 -14.464   4.638  1.00  0.00     0.264 C 
HETATM    8  O   UNL     1      39.295 -14.431   3.288  1.00  0.00    -0.321 OA
HETATM    9  C   UNL     1      40.189 -13.919   2.383  1.00  0.00     0.087 A 
HETATM   10  C   UNL     1      41.192 -13.021   2.743  1.00  0.00     0.065 A 
HETATM   11  C   UNL     1      40.047 -14.306   1.052  1.00  0.00     0.038 A 
HETATM   12  C   UNL     1      41.251 -12.574   4.143  1.00  0.00     0.256 C 
HETATM   13  C   UNL     1      42.078 -12.523   1.786  1.00  0.00     0.020 A 
HETATM   14  O   UNL     1      42.004 -11.688   4.523  1.00  0.00    -0.267 OA
HETATM   15  N   UNL     1      40.381 -13.200   4.989  1.00  0.00    -0.326 N 
HETATM   16  H   UNL     1      40.470 -12.948   5.963  1.00  0.00     0.165 HD
HETATM   17  C   UNL     1      41.950 -12.931   0.457  1.00  0.00     0.001 A 
HETATM   18  C   UNL     1      40.935 -13.817   0.091  1.00  0.00     0.003 A 
ENDBRANCH   5   7
BRANCH   1  19
HETATM   19  O   UNL     1      42.183 -17.315   7.754  1.00  0.00    -0.349 OA
BRANCH  19  20
HETATM   20  C   UNL     1      43.484 -17.071   8.276  1.00  0.00     0.171 C 
HETATM   21  C   UNL     1      44.208 -18.367   8.604  1.00  0.00     0.034 C 
ENDBRANCH  19  20
ENDBRANCH   1  19
BRANCH   2  22
HETATM   22  O   UNL     1      43.099 -19.055   5.534  1.00  0.00    -0.344 OA
BRANCH  22  23
HETATM   23  C   UNL     1      44.345 -19.025   4.831  1.00  0.00     0.214 C 
BRANCH  23  24
HETATM   24  C   UNL     1      44.377 -20.192   3.874  1.00  0.00    -0.034 A 
HETATM   25  C   UNL     1      44.014 -20.016   2.531  1.00  0.00     0.009 A 
HETATM   26  C   UNL     1      44.038 -21.094   1.645  1.00  0.00     0.001 A 
HETATM   27  C   UNL     1      44.417 -22.359   2.094  1.00  0.00     0.000 A 
HETATM   28  C   UNL     1      44.765 -22.547   3.430  1.00  0.00     0.001 A 
HETATM   29  C   UNL     1      44.743 -21.470   4.318  1.00  0.00     0.009 A 
ENDBRANCH  23  24
ENDBRANCH  22  23
ENDBRANCH   2  22
TORSDOF 6
ENDMDL
MODEL 7
REMARK VINA RESULT:      -7.6      1.542      1.807
REMARK  6 active torsions:
REMARK  status: ('A' for Active; 'I' for Inactive)
REMARK    1  A    between atoms: C_2  and  O_3 
REMARK    2  A    between atoms: O_3  and  C_4 
REMARK    3  A    between atoms: C_5  and  O_6 
REMARK    4  A    between atoms: O_6  and  C_7 
REMARK    5  A    between atoms: C_7  and  C_8 
REMARK    6  A    between atoms: C_16  and  C_17 
ROOT
HETATM    1  C   UNL     1      41.691 -15.157   2.615  1.00  0.00     0.102 A 
HETATM    2  C   UNL     1      42.502 -16.142   2.039  1.00  0.00     0.102 A 
HETATM    3  C   UNL     1      42.304 -16.496   0.698  1.00  0.00     0.040 A 
HETATM    4  C   UNL     1      41.353 -15.840  -0.086  1.00  0.00     0.014 A 
HETATM    5  C   UNL     1      40.574 -14.804   0.447  1.00  0.00    -0.007 A 
HETATM    6  C   UNL     1      40.746 -14.497   1.807  1.00  0.00     0.051 A 
ENDROOT
BRANCH   5   7
HETATM    7  C   UNL     1      39.526 -14.105  -0.414  1.00  0.00     0.264 C 
HETATM    8  O   UNL     1      39.928 -14.024  -1.793  1.00  0.00    -0.321 OA
HETATM    9  C   UNL     1      40.791 -12.993  -2.058  1.00  0.00     0.087 A 
HETATM   10  C   UNL     1      40.837 -11.833  -1.286  1.00  0.00     0.065 A 
HETATM   11  C   UNL     1      41.623 -13.122  -3.167  1.00  0.00     0.038 A 
HETATM   12  C   UNL     1      39.880 -11.703  -0.175  1.00  0.00     0.256 C 
HETATM   13  C   UNL     1      41.730 -10.807  -1.596  1.00  0.00     0.020 A 
HETATM   14  O   UNL     1      39.752 -10.671   0.468  1.00  0.00    -0.267 OA
HETATM   15  N   UNL     1      39.121 -12.811   0.069  1.00  0.00    -0.326 N 
HETATM   16  H   UNL     1      38.517 -12.751   0.876  1.00  0.00     0.165 HD
HETATM   17  C   UNL     1      42.581 -10.948  -2.693  1.00  0.00     0.001 A 
HETATM   18  C   UNL     1      42.525 -12.101  -3.479  1.00  0.00     0.003 A 
ENDBRANCH   5   7
BRANCH   1  19
HETATM   19  O   UNL     1      41.667 -14.695   3.903  1.00  0.00    -0.349 OA
BRANCH  19  20
HETATM   20  C   UNL     1      42.382 -13.526   4.284  1.00  0.00     0.171 C 
HETATM   21  C   UNL     1      43.745 -13.867   4.862  1.00  0.00     0.034 C 
ENDBRANCH  19  20
ENDBRANCH   1  19
BRANCH   2  22
HETATM   22  O   UNL     1      43.431 -16.806   2.793  1.00  0.00    -0.344 OA
BRANCH  22  23
HETATM   23  C   UNL     1      42.874 -17.770   3.691  1.00  0.00     0.214 C 
BRANCH  23  24
HETATM   24  C   UNL     1      43.442 -19.125   3.343  1.00  0.00    -0.034 A 
HETATM   25  C   UNL     1      44.332 -19.765   4.217  1.00  0.00     0.009 A 
HETATM   26  C   UNL     1      44.863 -21.015   3.895  1.00  0.00     0.001 A 
HETATM   27  C   UNL     1      44.516 -21.633   2.695  1.00  0.00     0.000 A 
HETATM   28  C   UNL     1      43.644 -20.999   1.812  1.00  0.00     0.001 A 
HETATM   29  C   UNL     1      43.111 -19.749   2.132  1.00  0.00     0.009 A 
ENDBRANCH  23  24
ENDBRANCH  22  23
ENDBRANCH   2  22
TORSDOF 6
ENDMDL
MODEL 8
REMARK VINA RESULT:      -7.5      1.631      2.591
REMARK  6 active torsions:
REMARK  status: ('A' for Active; 'I' for Inactive)
REMARK    1  A    between atoms: C_2  and  O_3 
REMARK    2  A    between atoms: O_3  and  C_4 
REMARK    3  A    between atoms: C_5  and  O_6 
REMARK    4  A    between atoms: O_6  and  C_7 
REMARK    5  A    between atoms: C_7  and  C_8 
REMARK    6  A    between atoms: C_16  and  C_17 
ROOT
HETATM    1  C   UNL     1      41.764 -17.379   3.837  1.00  0.00     0.102 A 
HETATM    2  C   UNL     1      42.263 -17.521   5.137  1.00  0.00     0.102 A 
HETATM    3  C   UNL     1      41.962 -16.546   6.098  1.00  0.00     0.040 A 
HETATM    4  C   UNL     1      41.122 -15.473   5.793  1.00  0.00     0.014 A 
HETATM    5  C   UNL     1      40.553 -15.344   4.520  1.00  0.00    -0.007 A 
HETATM    6  C   UNL     1      40.909 -16.299   3.551  1.00  0.00     0.051 A 
ENDROOT
BRANCH   5   7
HETATM    7  C   UNL     1      39.650 -14.159   4.192  1.00  0.00     0.264 C 
HETATM    8  O   UNL     1      39.230 -14.165   2.816  1.00  0.00    -0.321 OA
HETATM    9  C   UNL     1      40.164 -13.655   1.951  1.00  0.00     0.087 A 
HETATM   10  C   UNL     1      41.128 -12.730   2.345  1.00  0.00     0.065 A 
HETATM   11  C   UNL     1      40.104 -14.074   0.624  1.00  0.00     0.038 A 
HETATM   12  C   UNL     1      41.100 -12.251   3.736  1.00  0.00     0.256 C 
HETATM   13  C   UNL     1      42.057 -12.236   1.427  1.00  0.00     0.020 A 
HETATM   14  O   UNL     1      41.814 -11.342   4.136  1.00  0.00    -0.267 OA
HETATM   15  N   UNL     1      40.196 -12.875   4.546  1.00  0.00    -0.326 N 
HETATM   16  H   UNL     1      40.226 -12.601   5.517  1.00  0.00     0.165 HD
HETATM   17  C   UNL     1      42.012 -12.675   0.103  1.00  0.00     0.001 A 
HETATM   18  C   UNL     1      41.035 -13.589  -0.298  1.00  0.00     0.003 A 
ENDBRANCH   5   7
BRANCH   1  19
HETATM   19  O   UNL     1      41.971 -18.166   2.737  1.00  0.00    -0.349 OA
BRANCH  19  20
HETATM   20  C   UNL     1      42.210 -17.599   1.455  1.00  0.00     0.171 C 
HETATM   21  C   UNL     1      43.662 -17.181   1.290  1.00  0.00     0.034 C 
ENDBRANCH  19  20
ENDBRANCH   1  19
BRANCH   2  22
HETATM   22  O   UNL     1      43.098 -18.558   5.453  1.00  0.00    -0.344 OA
BRANCH  22  23
HETATM   23  C   UNL     1      44.255 -18.651   4.617  1.00  0.00     0.214 C 
BRANCH  23  24
HETATM   24  C   UNL     1      44.426 -20.093   4.203  1.00  0.00    -0.034 A 
HETATM   25  C   UNL     1      44.701 -21.078   5.163  1.00  0.00     0.009 A 
HETATM   26  C   UNL     1      44.865 -22.410   4.782  1.00  0.00     0.001 A 
HETATM   27  C   UNL     1      44.765 -22.770   3.439  1.00  0.00     0.000 A 
HETATM   28  C   UNL     1      44.507 -21.797   2.475  1.00  0.00     0.001 A 
HETATM   29  C   UNL     1      44.341 -20.463   2.854  1.00  0.00     0.009 A 
ENDBRANCH  23  24
ENDBRANCH  22  23
ENDBRANCH   2  22
TORSDOF 6
ENDMDL
MODEL 9
REMARK VINA RESULT:      -7.4      2.932      5.422
REMARK  6 active torsions:
REMARK  status: ('A' for Active; 'I' for Inactive)
REMARK    1  A    between atoms: C_2  and  O_3 
REMARK    2  A    between atoms: O_3  and  C_4 
REMARK    3  A    between atoms: C_5  and  O_6 
REMARK    4  A    between atoms: O_6  and  C_7 
REMARK    5  A    between atoms: C_7  and  C_8 
REMARK    6  A    between atoms: C_16  and  C_17 
ROOT
HETATM    1  C   UNL     1      41.703 -15.985   4.274  1.00  0.00     0.102 A 
HETATM    2  C   UNL     1      42.570 -16.312   5.323  1.00  0.00     0.102 A 
HETATM    3  C   UNL     1      43.179 -15.285   6.056  1.00  0.00     0.040 A 
HETATM    4  C   UNL     1      42.884 -13.945   5.797  1.00  0.00     0.014 A 
HETATM    5  C   UNL     1      41.968 -13.591   4.799  1.00  0.00    -0.007 A 
HETATM    6  C   UNL     1      41.408 -14.629   4.035  1.00  0.00     0.051 A 
ENDROOT
BRANCH   5   7
HETATM    7  C   UNL     1      41.666 -12.123   4.512  1.00  0.00     0.264 C 
HETATM    8  O   UNL     1      42.221 -11.254   5.515  1.00  0.00    -0.321 OA
HETATM    9  C   UNL     1      41.455 -11.159   6.648  1.00  0.00     0.087 A 
HETATM   10  C   UNL     1      40.079 -11.375   6.647  1.00  0.00     0.065 A 
HETATM   11  C   UNL     1      42.101 -10.801   7.830  1.00  0.00     0.038 A 
HETATM   12  C   UNL     1      39.426 -11.666   5.361  1.00  0.00     0.256 C 
HETATM   13  C   UNL     1      39.340 -11.264   7.826  1.00  0.00     0.020 A 
HETATM   14  O   UNL     1      38.211 -11.734   5.238  1.00  0.00    -0.267 OA
HETATM   15  N   UNL     1      40.274 -11.828   4.304  1.00  0.00    -0.326 N 
HETATM   16  H   UNL     1      39.834 -12.101   3.436  1.00  0.00     0.165 HD
HETATM   17  C   UNL     1      39.992 -10.930   9.014  1.00  0.00     0.001 A 
HETATM   18  C   UNL     1      41.368 -10.694   9.014  1.00  0.00     0.003 A 
ENDBRANCH   5   7
BRANCH   1  19
HETATM   19  O   UNL     1      41.048 -16.808   3.399  1.00  0.00    -0.349 OA
BRANCH  19  20
HETATM   20  C   UNL     1      40.525 -16.317   2.171  1.00  0.00     0.171 C 
HETATM   21  C   UNL     1      41.202 -16.966   0.975  1.00  0.00     0.034 C 
ENDBRANCH  19  20
ENDBRANCH   1  19
BRANCH   2  22
HETATM   22  O   UNL     1      42.882 -17.619   5.585  1.00  0.00    -0.344 OA
BRANCH  22  23
HETATM   23  C   UNL     1      44.229 -17.975   5.262  1.00  0.00     0.214 C 
BRANCH  23  24
HETATM   24  C   UNL     1      44.194 -19.030   4.184  1.00  0.00    -0.034 A 
HETATM   25  C   UNL     1      43.737 -18.714   2.896  1.00  0.00     0.009 A 
HETATM   26  C   UNL     1      43.699 -19.689   1.899  1.00  0.00     0.001 A 
HETATM   27  C   UNL     1      44.110 -20.992   2.180  1.00  0.00     0.000 A 
HETATM   28  C   UNL     1      44.552 -21.321   3.460  1.00  0.00     0.001 A 
HETATM   29  C   UNL     1      44.591 -20.346   4.459  1.00  0.00     0.009 A 
ENDBRANCH  23  24
ENDBRANCH  22  23
ENDBRANCH   2  22
TORSDOF 6
ENDMDL
MODEL 10
REMARK VINA RESULT:      -7.4      2.730      4.586
REMARK  6 active torsions:
REMARK  status: ('A' for Active; 'I' for Inactive)
REMARK    1  A    between atoms: C_2  and  O_3 
REMARK    2  A    between atoms: O_3  and  C_4 
REMARK    3  A    between atoms: C_5  and  O_6 
REMARK    4  A    between atoms: O_6  and  C_7 
REMARK    5  A    between atoms: C_7  and  C_8 
REMARK    6  A    between atoms: C_16  and  C_17 
ROOT
HETATM    1  C   UNL     1      42.646 -17.376   4.847  1.00  0.00     0.102 A 
HETATM    2  C   UNL     1      43.233 -17.980   5.965  1.00  0.00     0.102 A 
HETATM    3  C   UNL     1      44.018 -17.206   6.830  1.00  0.00     0.040 A 
HETATM    4  C   UNL     1      44.169 -15.832   6.628  1.00  0.00     0.014 A 
HETATM    5  C   UNL     1      43.536 -15.190   5.556  1.00  0.00    -0.007 A 
HETATM    6  C   UNL     1      42.798 -15.989   4.665  1.00  0.00     0.051 A 
ENDROOT
BRANCH   5   7
HETATM    7  C   UNL     1      43.722 -13.692   5.334  1.00  0.00     0.264 C 
HETATM    8  O   UNL     1      42.744 -12.916   6.049  1.00  0.00    -0.321 OA
HETATM    9  C   UNL     1      41.533 -12.830   5.412  1.00  0.00     0.087 A 
HETATM   10  C   UNL     1      41.400 -12.953   4.030  1.00  0.00     0.065 A 
HETATM   11  C   UNL     1      40.411 -12.580   6.198  1.00  0.00     0.038 A 
HETATM   12  C   UNL     1      42.622 -13.131   3.230  1.00  0.00     0.256 C 
HETATM   13  C   UNL     1      40.145 -12.855   3.425  1.00  0.00     0.020 A 
HETATM   14  O   UNL     1      42.619 -13.110   2.007  1.00  0.00    -0.267 OA
HETATM   15  N   UNL     1      43.769 -13.293   3.953  1.00  0.00    -0.326 N 
HETATM   16  H   UNL     1      44.597 -13.489   3.408  1.00  0.00     0.165 HD
HETATM   17  C   UNL     1      39.019 -12.629   4.217  1.00  0.00     0.001 A 
HETATM   18  C   UNL     1      39.152 -12.488   5.600  1.00  0.00     0.003 A 
ENDBRANCH   5   7
BRANCH   1  19
HETATM   19  O   UNL     1      41.897 -17.938   3.850  1.00  0.00    -0.349 OA
BRANCH  19  20
HETATM   20  C   UNL     1      41.226 -17.136   2.885  1.00  0.00     0.171 C 
HETATM   21  C   UNL     1      41.418 -17.676   1.477  1.00  0.00     0.034 C 
ENDBRANCH  19  20
ENDBRANCH   1  19
BRANCH   2  22
HETATM   22  O   UNL     1      43.108 -19.326   6.174  1.00  0.00    -0.344 OA
BRANCH  22  23
HETATM   23  C   UNL     1      44.350 -20.035   6.184  1.00  0.00     0.214 C 
BRANCH  23  24
HETATM   24  C   UNL     1      44.470 -20.799   4.888  1.00  0.00    -0.034 A 
HETATM   25  C   UNL     1      44.440 -20.121   3.661  1.00  0.00     0.009 A 
HETATM   26  C   UNL     1      44.545 -20.826   2.460  1.00  0.00     0.001 A 
HETATM   27  C   UNL     1      44.674 -22.214   2.475  1.00  0.00     0.000 A 
HETATM   28  C   UNL     1      44.690 -22.899   3.689  1.00  0.00     0.001 A 
HETATM   29  C   UNL     1      44.586 -22.196   4.891  1.00  0.00     0.009 A 
ENDBRANCH  23  24
ENDBRANCH  22  23
ENDBRANCH   2  22
TORSDOF 6
ENDMDL
