MODEL 1
REMARK VINA RESULT:      -8.2      0.000      0.000
REMARK  9 active torsions:
REMARK  status: ('A' for Active; 'I' for Inactive)
REMARK    1  A    between atoms: C_2  and  O_3 
REMARK    2  A    between atoms: O_3  and  C_4 
REMARK    3  A    between atoms: C_4  and  C_5 
REMARK    4  A    between atoms: C_7  and  C_8 
REMARK       I    between atoms: C_8  and  N_9 
REMARK    5  A    between atoms: N_9  and  N_10 
REMARK    6  A    between atoms: N_10  and  C_11 
REMARK    7  A    between atoms: C_11  and  N_12 
REMARK    8  A    between atoms: N_12  and  C_13 
REMARK    9  A    between atoms: C_13  and  C_14 
ROOT
HETATM    1  C   UNL     1      44.249 -15.877   6.676  1.00  0.00     0.078 A 
HETATM    2  O   UNL     1      42.981 -15.801   6.180  1.00  0.00    -0.307 OA
HETATM    3  C   UNL     1      42.664 -14.475   6.035  1.00  0.00     0.145 A 
HETATM    4  C   UNL     1      43.730 -13.709   6.475  1.00  0.00     0.045 A 
HETATM    5  C   UNL     1      44.747 -14.609   6.880  1.00  0.00     0.038 A 
ENDROOT
BRANCH   3   6
HETATM    6  C   UNL     1      41.370 -14.153   5.468  1.00  0.00     0.293 C 
HETATM    7  N   UNL     1      40.954 -14.978   4.435  1.00  0.00    -0.262 N 
HETATM    8  H   UNL     1      41.502 -15.744   4.059  1.00  0.00     0.190 HD
HETATM    9  O   UNL     1      40.647 -13.231   5.854  1.00  0.00    -0.264 OA
BRANCH   7  10
HETATM   10  N   UNL     1      39.664 -14.792   3.912  1.00  0.00    -0.274 N 
HETATM   11  H   UNL     1      39.041 -14.290   4.543  1.00  0.00     0.189 HD
BRANCH  10  12
HETATM   12  C   UNL     1      39.449 -14.721   2.561  1.00  0.00     0.186 C 
HETATM   13  S   UNL     1      39.374 -13.306   1.672  1.00  0.00    -0.040 SA
BRANCH  12  14
HETATM   14  N   UNL     1      39.347 -15.915   1.907  1.00  0.00    -0.364 N 
HETATM   15  H   UNL     1      38.908 -15.842   0.992  1.00  0.00     0.162 HD
BRANCH  14  16
HETATM   16  C   UNL     1      40.235 -17.064   2.059  1.00  0.00     0.154 C 
BRANCH  16  17
HETATM   17  C   UNL     1      41.597 -16.811   1.415  1.00  0.00     0.139 C 
HETATM   18  O   UNL     1      42.403 -15.958   2.254  1.00  0.00    -0.384 OA
HETATM   19  C   UNL     1      43.776 -16.352   2.104  1.00  0.00     0.168 C 
HETATM   20  C   UNL     1      43.813 -17.523   1.141  1.00  0.00     0.029 C 
HETATM   21  C   UNL     1      42.413 -18.077   1.233  1.00  0.00     0.035 C 
ENDBRANCH  16  17
ENDBRANCH  14  16
ENDBRANCH  12  14
ENDBRANCH  10  12
ENDBRANCH   7  10
ENDBRANCH   3   6
BRANCH   1  22
HETATM   22  C   UNL     1      44.805 -17.240   6.871  1.00  0.00     0.240 C 
BRANCH  22  23
HETATM   23  O   UNL     1      43.699 -18.136   6.805  1.00  0.00    -0.345 OA
BRANCH  23  24
HETATM   24  C   UNL     1      43.911 -19.338   6.184  1.00  0.00     0.069 A 
HETATM   25  C   UNL     1      43.880 -20.597   6.805  1.00  0.00     0.037 A 
HETATM   26  C   UNL     1      44.141 -21.762   6.073  1.00  0.00     0.010 A 
HETATM   27  C   UNL     1      44.415 -21.648   4.721  1.00  0.00    -0.052 A 
HETATM   28  C   UNL     1      44.444 -20.397   4.099  1.00  0.00    -0.049 A 
HETATM   29  C   UNL     1      44.765 -22.732   3.752  1.00  0.00     0.039 C 
HETATM   30  C   UNL     1      44.206 -19.238   4.820  1.00  0.00     0.044 A 
HETATM   31  C   UNL     1      44.806 -20.527   2.653  1.00  0.00     0.039 C 
HETATM   32  C   UNL     1      44.535 -22.019   2.411  1.00  0.00     0.009 C 
ENDBRANCH  23  24
ENDBRANCH  22  23
ENDBRANCH   1  22
TORSDOF 9
ENDMDL
MODEL 2
REMARK VINA RESULT:      -8.2      3.494      6.151
REMARK  9 active torsions:
REMARK  status: ('A' for Active; 'I' for Inactive)
REMARK    1  A    between atoms: C_2  and  O_3 
REMARK    2  A    between atoms: O_3  and  C_4 
REMARK    3  A    between atoms: C_4  and  C_5 
REMARK    4  A    between atoms: C_7  and  C_8 
REMARK       I    between atoms: C_8  and  N_9 
REMARK    5  A    between atoms: N_9  and  N_10 
REMARK    6  A    between atoms: N_10  and  C_11 
REMARK    7  A    between atoms: C_11  and  N_12 
REMARK    8  A    between atoms: N_12  and  C_13 
REMARK    9  A    between atoms: C_13  and  C_14 
ROOT
HETATM    1  C   UNL     1      41.515 -15.471   4.747  1.00  0.00     0.078 A 
HETATM    2  O   UNL     1      41.077 -14.580   5.681  1.00  0.00    -0.307 OA
HETATM    3  C   UNL     1      40.042 -13.868   5.132  1.00  0.00     0.145 A 
HETATM    4  C   UNL     1      39.849 -14.293   3.828  1.00  0.00     0.045 A 
HETATM    5  C   UNL     1      40.790 -15.324   3.585  1.00  0.00     0.038 A 
ENDROOT
BRANCH   3   6
HETATM    6  C   UNL     1      39.380 -12.890   5.971  1.00  0.00     0.293 C 
HETATM    7  N   UNL     1      39.650 -12.993   7.326  1.00  0.00    -0.262 N 
HETATM    8  H   UNL     1      40.242 -13.706   7.739  1.00  0.00     0.190 HD
HETATM    9  O   UNL     1      38.635 -12.001   5.553  1.00  0.00    -0.264 OA
BRANCH   7  10
HETATM   10  N   UNL     1      39.131 -12.011   8.185  1.00  0.00    -0.274 N 
HETATM   11  H   UNL     1      38.388 -12.357   8.791  1.00  0.00     0.189 HD
BRANCH  10  12
HETATM   12  C   UNL     1      39.896 -10.953   8.601  1.00  0.00     0.186 C 
HETATM   13  S   UNL     1      39.792  -9.396   7.999  1.00  0.00    -0.040 SA
BRANCH  12  14
HETATM   14  N   UNL     1      40.763 -11.207   9.624  1.00  0.00    -0.364 N 
HETATM   15  H   UNL     1      40.855 -12.197   9.843  1.00  0.00     0.162 HD
BRANCH  14  16
HETATM   16  C   UNL     1      41.916 -10.396  10.004  1.00  0.00     0.154 C 
BRANCH  16  17
HETATM   17  C   UNL     1      43.197 -11.227  10.049  1.00  0.00     0.139 C 
HETATM   18  O   UNL     1      44.127 -10.778   9.041  1.00  0.00    -0.384 OA
HETATM   19  C   UNL     1      45.458 -10.945   9.555  1.00  0.00     0.168 C 
HETATM   20  C   UNL     1      45.339 -11.503  10.961  1.00  0.00     0.029 C 
HETATM   21  C   UNL     1      43.943 -11.099  11.364  1.00  0.00     0.035 C 
ENDBRANCH  16  17
ENDBRANCH  14  16
ENDBRANCH  12  14
ENDBRANCH  10  12
ENDBRANCH   7  10
ENDBRANCH   3   6
BRANCH   1  22
HETATM   22  C   UNL     1      42.618 -16.377   5.159  1.00  0.00     0.240 C 
BRANCH  22  23
HETATM   23  O   UNL     1      43.503 -16.460   4.046  1.00  0.00    -0.345 OA
BRANCH  23  24
HETATM   24  C   UNL     1      43.523 -17.645   3.358  1.00  0.00     0.069 A 
HETATM   25  C   UNL     1      43.074 -17.835   2.041  1.00  0.00     0.037 A 
HETATM   26  C   UNL     1      43.118 -19.102   1.446  1.00  0.00     0.010 A 
HETATM   27  C   UNL     1      43.625 -20.161   2.179  1.00  0.00    -0.052 A 
HETATM   28  C   UNL     1      44.075 -19.976   3.488  1.00  0.00    -0.049 A 
HETATM   29  C   UNL     1      43.729 -21.598   1.778  1.00  0.00     0.039 C 
HETATM   30  C   UNL     1      44.018 -18.729   4.091  1.00  0.00     0.044 A 
HETATM   31  C   UNL     1      44.531 -21.269   4.085  1.00  0.00     0.039 C 
HETATM   32  C   UNL     1      44.721 -22.128   2.825  1.00  0.00     0.009 C 
ENDBRANCH  23  24
ENDBRANCH  22  23
ENDBRANCH   1  22
TORSDOF 9
ENDMDL
MODEL 3
REMARK VINA RESULT:      -8.1      4.715      6.754
REMARK  9 active torsions:
REMARK  status: ('A' for Active; 'I' for Inactive)
REMARK    1  A    between atoms: C_2  and  O_3 
REMARK    2  A    between atoms: O_3  and  C_4 
REMARK    3  A    between atoms: C_4  and  C_5 
REMARK    4  A    between atoms: C_7  and  C_8 
REMARK       I    between atoms: C_8  and  N_9 
REMARK    5  A    between atoms: N_9  and  N_10 
REMARK    6  A    between atoms: N_10  and  C_11 
REMARK    7  A    between atoms: C_11  and  N_12 
REMARK    8  A    between atoms: N_12  and  C_13 
REMARK    9  A    between atoms: C_13  and  C_14 
ROOT
HETATM    1  C   UNL     1      44.610 -14.666   7.227  1.00  0.00     0.078 A 
HETATM    2  O   UNL     1      44.410 -13.868   8.314  1.00  0.00    -0.307 OA
HETATM    3  C   UNL     1      45.276 -12.809   8.225  1.00  0.00     0.145 A 
HETATM    4  C   UNL     1      46.051 -12.958   7.088  1.00  0.00     0.045 A 
HETATM    5  C   UNL     1      45.619 -14.146   6.446  1.00  0.00     0.038 A 
ENDROOT
BRANCH   3   6
HETATM    6  C   UNL     1      45.203 -11.794   9.257  1.00  0.00     0.293 C 
HETATM    7  N   UNL     1      44.384 -12.101  10.332  1.00  0.00    -0.262 N 
HETATM    8  H   UNL     1      43.838 -12.952  10.411  1.00  0.00     0.190 HD
HETATM    9  O   UNL     1      45.820 -10.727   9.232  1.00  0.00    -0.264 OA
BRANCH   7  10
HETATM   10  N   UNL     1      44.351 -11.213  11.419  1.00  0.00    -0.274 N 
HETATM   11  H   UNL     1      45.056 -10.479  11.363  1.00  0.00     0.189 HD
BRANCH  10  12
HETATM   12  C   UNL     1      43.190 -10.974  12.107  1.00  0.00     0.186 C 
HETATM   13  S   UNL     1      43.027  -9.888  13.369  1.00  0.00    -0.040 SA
BRANCH  12  14
HETATM   14  N   UNL     1      42.087 -11.648  11.671  1.00  0.00    -0.364 N 
HETATM   15  H   UNL     1      42.055 -12.618  11.978  1.00  0.00     0.162 HD
BRANCH  14  16
HETATM   16  C   UNL     1      40.781 -11.069  11.371  1.00  0.00     0.154 C 
BRANCH  16  17
HETATM   17  C   UNL     1      40.755 -10.427   9.985  1.00  0.00     0.139 C 
HETATM   18  O   UNL     1      41.964 -10.735   9.261  1.00  0.00    -0.384 OA
HETATM   19  C   UNL     1      41.634 -10.848   7.868  1.00  0.00     0.168 C 
HETATM   20  C   UNL     1      40.141 -10.621   7.731  1.00  0.00     0.029 C 
HETATM   21  C   UNL     1      39.626 -10.942   9.112  1.00  0.00     0.035 C 
ENDBRANCH  16  17
ENDBRANCH  14  16
ENDBRANCH  12  14
ENDBRANCH  10  12
ENDBRANCH   7  10
ENDBRANCH   3   6
BRANCH   1  22
HETATM   22  C   UNL     1      43.736 -15.861   7.110  1.00  0.00     0.240 C 
BRANCH  22  23
HETATM   23  O   UNL     1      43.492 -16.042   5.718  1.00  0.00    -0.345 OA
BRANCH  23  24
HETATM   24  C   UNL     1      43.817 -17.262   5.186  1.00  0.00     0.069 A 
HETATM   25  C   UNL     1      44.555 -18.267   5.832  1.00  0.00     0.037 A 
HETATM   26  C   UNL     1      44.852 -19.469   5.178  1.00  0.00     0.010 A 
HETATM   27  C   UNL     1      44.390 -19.652   3.886  1.00  0.00    -0.052 A 
HETATM   28  C   UNL     1      43.653 -18.657   3.241  1.00  0.00    -0.049 A 
HETATM   29  C   UNL     1      44.616 -20.819   2.979  1.00  0.00     0.039 C 
HETATM   30  C   UNL     1      43.371 -17.456   3.874  1.00  0.00     0.044 A 
HETATM   31  C   UNL     1      43.308 -19.066   1.844  1.00  0.00     0.039 C 
HETATM   32  C   UNL     1      43.533 -20.584   1.915  1.00  0.00     0.009 C 
ENDBRANCH  23  24
ENDBRANCH  22  23
ENDBRANCH   1  22
TORSDOF 9
ENDMDL
MODEL 4
REMARK VINA RESULT:      -8.0      4.609      8.310
REMARK  9 active torsions:
REMARK  status: ('A' for Active; 'I' for Inactive)
REMARK    1  A    between atoms: C_2  and  O_3 
REMARK    2  A    between atoms: O_3  and  C_4 
REMARK    3  A    between atoms: C_4  and  C_5 
REMARK    4  A    between atoms: C_7  and  C_8 
REMARK       I    between atoms: C_8  and  N_9 
REMARK    5  A    between atoms: N_9  and  N_10 
REMARK    6  A    between atoms: N_10  and  C_11 
REMARK    7  A    between atoms: C_11  and  N_12 
REMARK    8  A    between atoms: N_12  and  C_13 
REMARK    9  A    between atoms: C_13  and  C_14 
ROOT
HETATM    1  C   UNL     1      45.659 -12.489   8.575  1.00  0.00     0.078 A 
HETATM    2  O   UNL     1      44.709 -13.459   8.450  1.00  0.00    -0.307 OA
HETATM    3  C   UNL     1      44.950 -14.135   7.281  1.00  0.00     0.145 A 
HETATM    4  C   UNL     1      46.041 -13.563   6.649  1.00  0.00     0.045 A 
HETATM    5  C   UNL     1      46.497 -12.511   7.483  1.00  0.00     0.038 A 
ENDROOT
BRANCH   3   6
HETATM    6  C   UNL     1      44.087 -15.256   6.965  1.00  0.00     0.293 C 
HETATM    7  N   UNL     1      42.750 -14.942   6.786  1.00  0.00    -0.262 N 
HETATM    8  H   UNL     1      42.362 -14.011   6.889  1.00  0.00     0.190 HD
HETATM    9  O   UNL     1      44.474 -16.420   6.838  1.00  0.00    -0.264 OA
BRANCH   7  10
HETATM   10  N   UNL     1      41.877 -15.960   6.371  1.00  0.00    -0.274 N 
HETATM   11  H   UNL     1      41.668 -16.637   7.103  1.00  0.00     0.189 HD
BRANCH  10  12
HETATM   12  C   UNL     1      40.960 -15.748   5.374  1.00  0.00     0.186 C 
HETATM   13  S   UNL     1      40.054 -14.354   5.182  1.00  0.00    -0.040 SA
BRANCH  12  14
HETATM   14  N   UNL     1      40.840 -16.744   4.449  1.00  0.00    -0.364 N 
HETATM   15  H   UNL     1      40.076 -17.388   4.643  1.00  0.00     0.162 HD
BRANCH  14  16
HETATM   16  C   UNL     1      41.224 -16.672   3.043  1.00  0.00     0.154 C 
BRANCH  16  17
HETATM   17  C   UNL     1      42.603 -17.283   2.804  1.00  0.00     0.139 C 
HETATM   18  O   UNL     1      43.190 -17.713   4.049  1.00  0.00    -0.384 OA
HETATM   19  C   UNL     1      43.979 -18.885   3.790  1.00  0.00     0.168 C 
HETATM   20  C   UNL     1      43.852 -19.205   2.313  1.00  0.00     0.029 C 
HETATM   21  C   UNL     1      42.560 -18.524   1.933  1.00  0.00     0.035 C 
ENDBRANCH  16  17
ENDBRANCH  14  16
ENDBRANCH  12  14
ENDBRANCH  10  12
ENDBRANCH   7  10
ENDBRANCH   3   6
BRANCH   1  22
HETATM   22  C   UNL     1      45.601 -11.658   9.806  1.00  0.00     0.240 C 
BRANCH  22  23
HETATM   23  O   UNL     1      44.636 -10.641   9.556  1.00  0.00    -0.345 OA
BRANCH  23  24
HETATM   24  C   UNL     1      43.617 -10.517  10.463  1.00  0.00     0.069 A 
HETATM   25  C   UNL     1      42.260 -10.773  10.210  1.00  0.00     0.037 A 
HETATM   26  C   UNL     1      41.298 -10.586  11.211  1.00  0.00     0.010 A 
HETATM   27  C   UNL     1      41.715 -10.156  12.458  1.00  0.00    -0.052 A 
HETATM   28  C   UNL     1      43.065  -9.903  12.715  1.00  0.00    -0.049 A 
HETATM   29  C   UNL     1      40.878  -9.845  13.658  1.00  0.00     0.039 C 
HETATM   30  C   UNL     1      44.021 -10.068  11.725  1.00  0.00     0.044 A 
HETATM   31  C   UNL     1      43.260  -9.407  14.113  1.00  0.00     0.039 C 
HETATM   32  C   UNL     1      41.939  -9.838  14.768  1.00  0.00     0.009 C 
ENDBRANCH  23  24
ENDBRANCH  22  23
ENDBRANCH   1  22
TORSDOF 9
ENDMDL
MODEL 5
REMARK VINA RESULT:      -8.0      4.304      7.081
REMARK  9 active torsions:
REMARK  status: ('A' for Active; 'I' for Inactive)
REMARK    1  A    between atoms: C_2  and  O_3 
REMARK    2  A    between atoms: O_3  and  C_4 
REMARK    3  A    between atoms: C_4  and  C_5 
REMARK    4  A    between atoms: C_7  and  C_8 
REMARK       I    between atoms: C_8  and  N_9 
REMARK    5  A    between atoms: N_9  and  N_10 
REMARK    6  A    between atoms: N_10  and  C_11 
REMARK    7  A    between atoms: C_11  and  N_12 
REMARK    8  A    between atoms: N_12  and  C_13 
REMARK    9  A    between atoms: C_13  and  C_14 
ROOT
HETATM    1  C   UNL     1      42.189 -15.471   3.985  1.00  0.00     0.078 A 
HETATM    2  O   UNL     1      43.231 -15.432   4.864  1.00  0.00    -0.307 OA
HETATM    3  C   UNL     1      43.081 -14.315   5.645  1.00  0.00     0.145 A 
HETATM    4  C   UNL     1      41.952 -13.628   5.233  1.00  0.00     0.045 A 
HETATM    5  C   UNL     1      41.379 -14.373   4.171  1.00  0.00     0.038 A 
ENDROOT
BRANCH   3   6
HETATM    6  C   UNL     1      44.054 -14.096   6.697  1.00  0.00     0.293 C 
HETATM    7  N   UNL     1      43.709 -13.133   7.631  1.00  0.00    -0.262 N 
HETATM    8  H   UNL     1      42.858 -12.582   7.598  1.00  0.00     0.190 HD
HETATM    9  O   UNL     1      45.118 -14.710   6.802  1.00  0.00    -0.264 OA
BRANCH   7  10
HETATM   10  N   UNL     1      44.554 -12.947   8.737  1.00  0.00    -0.274 N 
HETATM   11  H   UNL     1      45.511 -13.252   8.571  1.00  0.00     0.189 HD
BRANCH  10  12
HETATM   12  C   UNL     1      44.317 -11.955   9.653  1.00  0.00     0.186 C 
HETATM   13  S   UNL     1      45.481 -10.935  10.289  1.00  0.00    -0.040 SA
BRANCH  12  14
HETATM   14  N   UNL     1      43.013 -11.772  10.014  1.00  0.00    -0.364 N 
HETATM   15  H   UNL     1      42.686 -12.441  10.708  1.00  0.00     0.162 HD
BRANCH  14  16
HETATM   16  C   UNL     1      42.280 -10.510  10.001  1.00  0.00     0.154 C 
BRANCH  16  17
HETATM   17  C   UNL     1      41.470 -10.316  11.281  1.00  0.00     0.139 C 
HETATM   18  O   UNL     1      40.499 -11.372  11.431  1.00  0.00    -0.384 OA
HETATM   19  C   UNL     1      40.346 -11.642  12.833  1.00  0.00     0.168 C 
HETATM   20  C   UNL     1      41.290 -10.722  13.583  1.00  0.00     0.029 C 
HETATM   21  C   UNL     1      42.320 -10.375  12.537  1.00  0.00     0.035 C 
ENDBRANCH  16  17
ENDBRANCH  14  16
ENDBRANCH  12  14
ENDBRANCH  10  12
ENDBRANCH   7  10
ENDBRANCH   3   6
BRANCH   1  22
HETATM   22  C   UNL     1      42.141 -16.635   3.064  1.00  0.00     0.240 C 
BRANCH  22  23
HETATM   23  O   UNL     1      43.493 -17.033   2.852  1.00  0.00    -0.345 OA
BRANCH  23  24
HETATM   24  C   UNL     1      43.754 -18.377   2.874  1.00  0.00     0.069 A 
HETATM   25  C   UNL     1      43.738 -19.233   1.761  1.00  0.00     0.037 A 
HETATM   26  C   UNL     1      43.995 -20.602   1.908  1.00  0.00     0.010 A 
HETATM   27  C   UNL     1      44.279 -21.091   3.171  1.00  0.00    -0.052 A 
HETATM   28  C   UNL     1      44.299 -20.243   4.280  1.00  0.00    -0.049 A 
HETATM   29  C   UNL     1      44.538 -22.506   3.579  1.00  0.00     0.039 C 
HETATM   30  C   UNL     1      44.027 -18.890   4.147  1.00  0.00     0.044 A 
HETATM   31  C   UNL     1      44.583 -21.007   5.534  1.00  0.00     0.039 C 
HETATM   32  C   UNL     1      45.172 -22.306   4.963  1.00  0.00     0.009 C 
ENDBRANCH  23  24
ENDBRANCH  22  23
ENDBRANCH   1  22
TORSDOF 9
ENDMDL
MODEL 6
REMARK VINA RESULT:      -8.0      4.005      6.543
REMARK  9 active torsions:
REMARK  status: ('A' for Active; 'I' for Inactive)
REMARK    1  A    between atoms: C_2  and  O_3 
REMARK    2  A    between atoms: O_3  and  C_4 
REMARK    3  A    between atoms: C_4  and  C_5 
REMARK    4  A    between atoms: C_7  and  C_8 
REMARK       I    between atoms: C_8  and  N_9 
REMARK    5  A    between atoms: N_9  and  N_10 
REMARK    6  A    between atoms: N_10  and  C_11 
REMARK    7  A    between atoms: C_11  and  N_12 
REMARK    8  A    between atoms: N_12  and  C_13 
REMARK    9  A    between atoms: C_13  and  C_14 
ROOT
HETATM    1  C   UNL     1      41.853 -14.905   4.275  1.00  0.00     0.078 A 
HETATM    2  O   UNL     1      41.378 -14.091   5.261  1.00  0.00    -0.307 OA
HETATM    3  C   UNL     1      40.078 -13.778   4.959  1.00  0.00     0.145 A 
HETATM    4  C   UNL     1      39.742 -14.373   3.755  1.00  0.00     0.045 A 
HETATM    5  C   UNL     1      40.879 -15.099   3.321  1.00  0.00     0.038 A 
ENDROOT
BRANCH   3   6
HETATM    6  C   UNL     1      39.348 -12.958   5.906  1.00  0.00     0.293 C 
HETATM    7  N   UNL     1      39.637 -13.196   7.240  1.00  0.00    -0.262 N 
HETATM    8  H   UNL     1      40.284 -13.904   7.568  1.00  0.00     0.190 HD
HETATM    9  O   UNL     1      38.533 -12.088   5.592  1.00  0.00    -0.264 OA
BRANCH   7  10
HETATM   10  N   UNL     1      39.049 -12.364   8.206  1.00  0.00    -0.274 N 
HETATM   11  H   UNL     1      38.290 -12.812   8.718  1.00  0.00     0.189 HD
BRANCH  10  12
HETATM   12  C   UNL     1      39.762 -11.361   8.809  1.00  0.00     0.186 C 
HETATM   13  S   UNL     1      40.492 -10.086   8.009  1.00  0.00    -0.040 SA
BRANCH  12  14
HETATM   14  N   UNL     1      39.816 -11.401  10.172  1.00  0.00    -0.364 N 
HETATM   15  H   UNL     1      40.248 -12.247  10.537  1.00  0.00     0.162 HD
BRANCH  14  16
HETATM   16  C   UNL     1      39.891 -10.252  11.070  1.00  0.00     0.154 C 
BRANCH  16  17
HETATM   17  C   UNL     1      41.167 -10.276  11.909  1.00  0.00     0.139 C 
HETATM   18  O   UNL     1      41.815 -11.561  11.811  1.00  0.00    -0.384 OA
HETATM   19  C   UNL     1      43.234 -11.352  11.884  1.00  0.00     0.168 C 
HETATM   20  C   UNL     1      43.471  -9.860  12.010  1.00  0.00     0.029 C 
HETATM   21  C   UNL     1      42.203  -9.270  11.445  1.00  0.00     0.035 C 
ENDBRANCH  16  17
ENDBRANCH  14  16
ENDBRANCH  12  14
ENDBRANCH  10  12
ENDBRANCH   7  10
ENDBRANCH   3   6
BRANCH   1  22
HETATM   22  C   UNL     1      43.246 -15.396   4.433  1.00  0.00     0.240 C 
BRANCH  22  23
HETATM   23  O   UNL     1      43.184 -16.485   5.349  1.00  0.00    -0.345 OA
BRANCH  23  24
HETATM   24  C   UNL     1      43.638 -17.698   4.902  1.00  0.00     0.069 A 
HETATM   25  C   UNL     1      44.499 -18.558   5.601  1.00  0.00     0.037 A 
HETATM   26  C   UNL     1      44.920 -19.766   5.032  1.00  0.00     0.010 A 
HETATM   27  C   UNL     1      44.459 -20.100   3.770  1.00  0.00    -0.052 A 
HETATM   28  C   UNL     1      43.600 -19.248   3.072  1.00  0.00    -0.049 A 
HETATM   29  C   UNL     1      44.802 -21.301   2.947  1.00  0.00     0.039 C 
HETATM   30  C   UNL     1      43.193 -18.042   3.621  1.00  0.00     0.044 A 
HETATM   31  C   UNL     1      43.279 -19.802   1.720  1.00  0.00     0.039 C 
HETATM   32  C   UNL     1      43.679 -21.274   1.899  1.00  0.00     0.009 C 
ENDBRANCH  23  24
ENDBRANCH  22  23
ENDBRANCH   1  22
TORSDOF 9
ENDMDL
MODEL 7
REMARK VINA RESULT:      -7.9      2.022      2.466
REMARK  9 active torsions:
REMARK  status: ('A' for Active; 'I' for Inactive)
REMARK    1  A    between atoms: C_2  and  O_3 
REMARK    2  A    between atoms: O_3  and  C_4 
REMARK    3  A    between atoms: C_4  and  C_5 
REMARK    4  A    between atoms: C_7  and  C_8 
REMARK       I    between atoms: C_8  and  N_9 
REMARK    5  A    between atoms: N_9  and  N_10 
REMARK    6  A    between atoms: N_10  and  C_11 
REMARK    7  A    between atoms: C_11  and  N_12 
REMARK    8  A    between atoms: N_12  and  C_13 
REMARK    9  A    between atoms: C_13  and  C_14 
ROOT
HETATM    1  C   UNL     1      42.183 -16.498   6.401  1.00  0.00     0.078 A 
HETATM    2  O   UNL     1      42.786 -15.578   5.595  1.00  0.00    -0.307 OA
HETATM    3  C   UNL     1      41.815 -14.739   5.114  1.00  0.00     0.145 A 
HETATM    4  C   UNL     1      40.585 -15.154   5.595  1.00  0.00     0.045 A 
HETATM    5  C   UNL     1      40.823 -16.279   6.424  1.00  0.00     0.038 A 
ENDROOT
BRANCH   3   6
HETATM    6  C   UNL     1      42.237 -13.639   4.269  1.00  0.00     0.293 C 
HETATM    7  N   UNL     1      41.211 -12.923   3.673  1.00  0.00    -0.262 N 
HETATM    8  H   UNL     1      40.226 -13.142   3.776  1.00  0.00     0.190 HD
HETATM    9  O   UNL     1      43.411 -13.316   4.078  1.00  0.00    -0.264 OA
BRANCH   7  10
HETATM   10  N   UNL     1      41.543 -11.779   2.930  1.00  0.00    -0.274 N 
HETATM   11  H   UNL     1      42.217 -11.175   3.398  1.00  0.00     0.189 HD
BRANCH  10  12
HETATM   12  C   UNL     1      41.479 -11.777   1.561  1.00  0.00     0.186 C 
HETATM   13  S   UNL     1      40.674 -10.638   0.637  1.00  0.00    -0.040 SA
BRANCH  12  14
HETATM   14  N   UNL     1      42.181 -12.761   0.928  1.00  0.00    -0.364 N 
HETATM   15  H   UNL     1      43.092 -12.942   1.344  1.00  0.00     0.162 HD
BRANCH  14  16
HETATM   16  C   UNL     1      41.620 -13.891   0.194  1.00  0.00     0.154 C 
BRANCH  16  17
HETATM   17  C   UNL     1      41.661 -15.176   1.020  1.00  0.00     0.139 C 
HETATM   18  O   UNL     1      40.511 -15.258   1.886  1.00  0.00    -0.384 OA
HETATM   19  C   UNL     1      40.146 -16.641   2.014  1.00  0.00     0.168 C 
HETATM   20  C   UNL     1      41.107 -17.448   1.163  1.00  0.00     0.029 C 
HETATM   21  C   UNL     1      41.610 -16.431   0.169  1.00  0.00     0.035 C 
ENDBRANCH  16  17
ENDBRANCH  14  16
ENDBRANCH  12  14
ENDBRANCH  10  12
ENDBRANCH   7  10
ENDBRANCH   3   6
BRANCH   1  22
HETATM   22  C   UNL     1      43.073 -17.487   7.062  1.00  0.00     0.240 C 
BRANCH  22  23
HETATM   23  O   UNL     1      44.197 -17.649   6.203  1.00  0.00    -0.345 OA
BRANCH  23  24
HETATM   24  C   UNL     1      44.265 -18.813   5.484  1.00  0.00     0.069 A 
HETATM   25  C   UNL     1      44.597 -20.076   6.001  1.00  0.00     0.037 A 
HETATM   26  C   UNL     1      44.662 -21.197   5.163  1.00  0.00     0.010 A 
HETATM   27  C   UNL     1      44.379 -21.036   3.818  1.00  0.00    -0.052 A 
HETATM   28  C   UNL     1      44.046 -19.782   3.301  1.00  0.00    -0.049 A 
HETATM   29  C   UNL     1      44.428 -22.063   2.733  1.00  0.00     0.039 C 
HETATM   30  C   UNL     1      43.998 -18.664   4.119  1.00  0.00     0.044 A 
HETATM   31  C   UNL     1      43.831 -19.853   1.822  1.00  0.00     0.039 C 
HETATM   32  C   UNL     1      43.629 -21.363   1.623  1.00  0.00     0.009 C 
ENDBRANCH  23  24
ENDBRANCH  22  23
ENDBRANCH   1  22
TORSDOF 9
ENDMDL
MODEL 8
REMARK VINA RESULT:      -7.8      1.868      2.495
REMARK  9 active torsions:
REMARK  status: ('A' for Active; 'I' for Inactive)
REMARK    1  A    between atoms: C_2  and  O_3 
REMARK    2  A    between atoms: O_3  and  C_4 
REMARK    3  A    between atoms: C_4  and  C_5 
REMARK    4  A    between atoms: C_7  and  C_8 
REMARK       I    between atoms: C_8  and  N_9 
REMARK    5  A    between atoms: N_9  and  N_10 
REMARK    6  A    between atoms: N_10  and  C_11 
REMARK    7  A    between atoms: C_11  and  N_12 
REMARK    8  A    between atoms: N_12  and  C_13 
REMARK    9  A    between atoms: C_13  and  C_14 
ROOT
HETATM    1  C   UNL     1      43.471 -15.760   6.475  1.00  0.00     0.078 A 
HETATM    2  O   UNL     1      42.538 -14.993   5.843  1.00  0.00    -0.307 OA
HETATM    3  C   UNL     1      42.954 -13.687   5.907  1.00  0.00     0.145 A 
HETATM    4  C   UNL     1      44.142 -13.630   6.614  1.00  0.00     0.045 A 
HETATM    5  C   UNL     1      44.475 -14.960   6.973  1.00  0.00     0.038 A 
ENDROOT
BRANCH   3   6
HETATM    6  C   UNL     1      42.135 -12.690   5.247  1.00  0.00     0.293 C 
HETATM    7  N   UNL     1      42.357 -12.548   3.886  1.00  0.00    -0.262 N 
HETATM    8  H   UNL     1      43.053 -13.068   3.363  1.00  0.00     0.190 HD
HETATM    9  O   UNL     1      41.279 -12.005   5.811  1.00  0.00    -0.264 OA
BRANCH   7  10
HETATM   10  N   UNL     1      41.524 -11.679   3.163  1.00  0.00    -0.274 N 
HETATM   11  H   UNL     1      41.349 -10.796   3.642  1.00  0.00     0.189 HD
BRANCH  10  12
HETATM   12  C   UNL     1      41.470 -11.721   1.795  1.00  0.00     0.186 C 
HETATM   13  S   UNL     1      40.619 -10.649   0.833  1.00  0.00    -0.040 SA
BRANCH  12  14
HETATM   14  N   UNL     1      42.224 -12.688   1.196  1.00  0.00    -0.364 N 
HETATM   15  H   UNL     1      43.114 -12.856   1.659  1.00  0.00     0.162 HD
BRANCH  14  16
HETATM   16  C   UNL     1      41.723 -13.823   0.427  1.00  0.00     0.154 C 
BRANCH  16  17
HETATM   17  C   UNL     1      41.798 -15.123   1.226  1.00  0.00     0.139 C 
HETATM   18  O   UNL     1      41.246 -14.938   2.546  1.00  0.00    -0.384 OA
HETATM   19  C   UNL     1      40.618 -16.167   2.943  1.00  0.00     0.168 C 
HETATM   20  C   UNL     1      40.771 -17.150   1.799  1.00  0.00     0.029 C 
HETATM   21  C   UNL     1      40.990 -16.248   0.610  1.00  0.00     0.035 C 
ENDBRANCH  16  17
ENDBRANCH  14  16
ENDBRANCH  12  14
ENDBRANCH  10  12
ENDBRANCH   7  10
ENDBRANCH   3   6
BRANCH   1  22
HETATM   22  C   UNL     1      43.229 -17.226   6.484  1.00  0.00     0.240 C 
BRANCH  22  23
HETATM   23  O   UNL     1      44.421 -17.831   5.993  1.00  0.00    -0.345 OA
BRANCH  23  24
HETATM   24  C   UNL     1      44.310 -18.586   4.856  1.00  0.00     0.069 A 
HETATM   25  C   UNL     1      43.949 -18.105   3.587  1.00  0.00     0.037 A 
HETATM   26  C   UNL     1      43.840 -18.977   2.496  1.00  0.00     0.010 A 
HETATM   27  C   UNL     1      44.110 -20.320   2.692  1.00  0.00    -0.052 A 
HETATM   28  C   UNL     1      44.473 -20.802   3.952  1.00  0.00    -0.049 A 
HETATM   29  C   UNL     1      44.018 -21.437   1.702  1.00  0.00     0.039 C 
HETATM   30  C   UNL     1      44.565 -19.949   5.041  1.00  0.00     0.044 A 
HETATM   31  C   UNL     1      44.667 -22.285   3.923  1.00  0.00     0.039 C 
HETATM   32  C   UNL     1      44.822 -22.535   2.415  1.00  0.00     0.009 C 
ENDBRANCH  23  24
ENDBRANCH  22  23
ENDBRANCH   1  22
TORSDOF 9
ENDMDL
MODEL 9
REMARK VINA RESULT:      -7.8      3.528      5.879
REMARK  9 active torsions:
REMARK  status: ('A' for Active; 'I' for Inactive)
REMARK    1  A    between atoms: C_2  and  O_3 
REMARK    2  A    between atoms: O_3  and  C_4 
REMARK    3  A    between atoms: C_4  and  C_5 
REMARK    4  A    between atoms: C_7  and  C_8 
REMARK       I    between atoms: C_8  and  N_9 
REMARK    5  A    between atoms: N_9  and  N_10 
REMARK    6  A    between atoms: N_10  and  C_11 
REMARK    7  A    between atoms: C_11  and  N_12 
REMARK    8  A    between atoms: N_12  and  C_13 
REMARK    9  A    between atoms: C_13  and  C_14 
ROOT
HETATM    1  C   UNL     1      41.995 -15.902   6.102  1.00  0.00     0.078 A 
HETATM    2  O   UNL     1      42.412 -14.604   6.074  1.00  0.00    -0.307 OA
HETATM    3  C   UNL     1      41.339 -13.824   5.727  1.00  0.00     0.145 A 
HETATM    4  C   UNL     1      40.245 -14.642   5.502  1.00  0.00     0.045 A 
HETATM    5  C   UNL     1      40.666 -15.973   5.748  1.00  0.00     0.038 A 
ENDROOT
BRANCH   3   6
HETATM    6  C   UNL     1      41.538 -12.389   5.687  1.00  0.00     0.293 C 
HETATM    7  N   UNL     1      41.354 -11.732   6.893  1.00  0.00    -0.262 N 
HETATM    8  H   UNL     1      41.072 -12.186   7.755  1.00  0.00     0.190 HD
HETATM    9  O   UNL     1      41.864 -11.757   4.680  1.00  0.00    -0.264 OA
BRANCH   7  10
HETATM   10  N   UNL     1      41.636 -10.358   6.952  1.00  0.00    -0.274 N 
HETATM   11  H   UNL     1      41.823  -9.944   6.040  1.00  0.00     0.189 HD
BRANCH  10  12
HETATM   12  C   UNL     1      41.131  -9.571   7.954  1.00  0.00     0.186 C 
HETATM   13  S   UNL     1      39.660  -8.775   7.902  1.00  0.00    -0.040 SA
BRANCH  12  14
HETATM   14  N   UNL     1      41.881  -9.494   9.091  1.00  0.00    -0.364 N 
HETATM   15  H   UNL     1      42.172  -8.547   9.324  1.00  0.00     0.162 HD
BRANCH  14  16
HETATM   16  C   UNL     1      41.819 -10.402  10.233  1.00  0.00     0.154 C 
BRANCH  16  17
HETATM   17  C   UNL     1      43.092 -11.236  10.359  1.00  0.00     0.139 C 
HETATM   18  O   UNL     1      43.624 -11.550   9.055  1.00  0.00    -0.384 OA
HETATM   19  C   UNL     1      45.056 -11.587   9.153  1.00  0.00     0.168 C 
HETATM   20  C   UNL     1      45.425 -11.256  10.586  1.00  0.00     0.029 C 
HETATM   21  C   UNL     1      44.211 -10.509  11.081  1.00  0.00     0.035 C 
ENDBRANCH  16  17
ENDBRANCH  14  16
ENDBRANCH  12  14
ENDBRANCH  10  12
ENDBRANCH   7  10
ENDBRANCH   3   6
BRANCH   1  22
HETATM   22  C   UNL     1      43.005 -16.916   6.498  1.00  0.00     0.240 C 
BRANCH  22  23
HETATM   23  O   UNL     1      43.893 -17.048   5.392  1.00  0.00    -0.345 OA
BRANCH  23  24
HETATM   24  C   UNL     1      44.099 -18.314   4.911  1.00  0.00     0.069 A 
HETATM   25  C   UNL     1      44.675 -19.378   5.625  1.00  0.00     0.037 A 
HETATM   26  C   UNL     1      44.862 -20.627   5.021  1.00  0.00     0.010 A 
HETATM   27  C   UNL     1      44.454 -20.796   3.709  1.00  0.00    -0.052 A 
HETATM   28  C   UNL     1      43.878 -19.741   2.996  1.00  0.00    -0.049 A 
HETATM   29  C   UNL     1      44.590 -22.010   2.846  1.00  0.00     0.039 C 
HETATM   30  C   UNL     1      43.706 -18.497   3.581  1.00  0.00     0.044 A 
HETATM   31  C   UNL     1      43.565 -20.152   1.592  1.00  0.00     0.039 C 
HETATM   32  C   UNL     1      43.603 -21.683   1.715  1.00  0.00     0.009 C 
ENDBRANCH  23  24
ENDBRANCH  22  23
ENDBRANCH   1  22
TORSDOF 9
ENDMDL
MODEL 10
REMARK VINA RESULT:      -7.7      2.580      3.302
REMARK  9 active torsions:
REMARK  status: ('A' for Active; 'I' for Inactive)
REMARK    1  A    between atoms: C_2  and  O_3 
REMARK    2  A    between atoms: O_3  and  C_4 
REMARK    3  A    between atoms: C_4  and  C_5 
REMARK    4  A    between atoms: C_7  and  C_8 
REMARK       I    between atoms: C_8  and  N_9 
REMARK    5  A    between atoms: N_9  and  N_10 
REMARK    6  A    between atoms: N_10  and  C_11 
REMARK    7  A    between atoms: C_11  and  N_12 
REMARK    8  A    between atoms: N_12  and  C_13 
REMARK    9  A    between atoms: C_13  and  C_14 
ROOT
HETATM    1  C   UNL     1      43.095 -16.190   6.355  1.00  0.00     0.078 A 
HETATM    2  O   UNL     1      41.893 -16.195   5.711  1.00  0.00    -0.307 OA
HETATM    3  C   UNL     1      41.622 -14.911   5.314  1.00  0.00     0.145 A 
HETATM    4  C   UNL     1      42.648 -14.085   5.741  1.00  0.00     0.045 A 
HETATM    5  C   UNL     1      43.593 -14.907   6.403  1.00  0.00     0.038 A 
ENDROOT
BRANCH   3   6
HETATM    6  C   UNL     1      40.408 -14.685   4.556  1.00  0.00     0.293 C 
HETATM    7  N   UNL     1      40.351 -15.320   3.325  1.00  0.00    -0.262 N 
HETATM    8  H   UNL     1      41.098 -15.887   2.939  1.00  0.00     0.190 HD
HETATM    9  O   UNL     1      39.460 -13.999   4.944  1.00  0.00    -0.264 OA
BRANCH   7  10
HETATM   10  N   UNL     1      39.160 -15.234   2.586  1.00  0.00    -0.274 N 
HETATM   11  H   UNL     1      38.330 -15.466   3.129  1.00  0.00     0.189 HD
BRANCH  10  12
HETATM   12  C   UNL     1      39.046 -14.382   1.519  1.00  0.00     0.186 C 
HETATM   13  S   UNL     1      38.646 -12.761   1.623  1.00  0.00    -0.040 SA
BRANCH  12  14
HETATM   14  N   UNL     1      39.342 -14.911   0.296  1.00  0.00    -0.364 N 
HETATM   15  H   UNL     1      38.546 -15.354  -0.158  1.00  0.00     0.162 HD
BRANCH  14  16
HETATM   16  C   UNL     1      40.376 -14.444  -0.622  1.00  0.00     0.154 C 
BRANCH  16  17
HETATM   17  C   UNL     1      39.836 -14.276  -2.041  1.00  0.00     0.139 C 
HETATM   18  O   UNL     1      40.149 -15.434  -2.842  1.00  0.00    -0.384 OA
HETATM   19  C   UNL     1      39.074 -15.637  -3.773  1.00  0.00     0.168 C 
HETATM   20  C   UNL     1      38.036 -14.562  -3.514  1.00  0.00     0.029 C 
HETATM   21  C   UNL     1      38.325 -14.153  -2.091  1.00  0.00     0.035 C 
ENDBRANCH  16  17
ENDBRANCH  14  16
ENDBRANCH  12  14
ENDBRANCH  10  12
ENDBRANCH   7  10
ENDBRANCH   3   6
BRANCH   1  22
HETATM   22  C   UNL     1      43.596 -17.504   6.835  1.00  0.00     0.240 C 
BRANCH  22  23
HETATM   23  O   UNL     1      44.711 -17.831   6.012  1.00  0.00    -0.345 OA
BRANCH  23  24
HETATM   24  C   UNL     1      44.452 -18.545   4.872  1.00  0.00     0.069 A 
HETATM   25  C   UNL     1      43.930 -18.022   3.678  1.00  0.00     0.037 A 
HETATM   26  C   UNL     1      43.679 -18.855   2.581  1.00  0.00     0.010 A 
HETATM   27  C   UNL     1      43.968 -20.204   2.694  1.00  0.00    -0.052 A 
HETATM   28  C   UNL     1      44.489 -20.729   3.879  1.00  0.00    -0.049 A 
HETATM   29  C   UNL     1      43.745 -21.286   1.686  1.00  0.00     0.039 C 
HETATM   30  C   UNL     1      44.724 -19.914   4.976  1.00  0.00     0.044 A 
HETATM   31  C   UNL     1      44.674 -22.209   3.774  1.00  0.00     0.039 C 
HETATM   32  C   UNL     1      44.631 -22.407   2.251  1.00  0.00     0.009 C 
ENDBRANCH  23  24
ENDBRANCH  22  23
ENDBRANCH   1  22
TORSDOF 9
ENDMDL
