MODEL 1
REMARK VINA RESULT:      -8.4      0.000      0.000
REMARK  3 active torsions:
REMARK  status: ('A' for Active; 'I' for Inactive)
REMARK    1  A    between atoms: C_7  and  C_10 
REMARK    2  A    between atoms: C_10  and  N_11 
REMARK    3  A    between atoms: N_11  and  C_12 
ROOT
HETATM    1  C   UNL     1      44.421 -21.863   2.143  1.00  0.00     0.002 A 
HETATM    2  C   UNL     1      44.081 -20.508   2.206  1.00  0.00     0.033 A 
HETATM    3  C   UNL     1      44.070 -19.847   3.451  1.00  0.00     0.075 A 
HETATM    4  C   UNL     1      44.400 -20.566   4.596  1.00  0.00     0.035 A 
HETATM    5  S   UNL     1      44.305 -19.522   5.956  1.00  0.00    -0.067 SA
HETATM    6  C   UNL     1      43.835 -18.192   4.941  1.00  0.00     0.121 A 
HETATM    7  C   UNL     1      43.572 -16.890   5.496  1.00  0.00     0.095 C 
HETATM    8  C   UNL     1      43.684 -16.629   6.893  1.00  0.00     0.103 C 
HETATM    9  N   UNL     1      43.766 -16.382   8.026  1.00  0.00    -0.191 NA
HETATM   10  N   UNL     1      43.755 -18.517   3.660  1.00  0.00    -0.239 NA
HETATM   11  C   UNL     1      44.744 -21.927   4.546  1.00  0.00     0.021 A 
HETATM   12  C   UNL     1      44.749 -22.562   3.300  1.00  0.00     0.002 A 
ENDROOT
BRANCH   7  13
HETATM   13  C   UNL     1      43.209 -15.895   4.658  1.00  0.00     0.114 C 
BRANCH  13  14
HETATM   14  N   UNL     1      42.026 -15.721   3.970  1.00  0.00    -0.364 N 
HETATM   15  H   UNL     1      41.184 -15.613   4.532  1.00  0.00     0.165 HD
BRANCH  14  16
HETATM   16  C   UNL     1      41.810 -15.655   2.580  1.00  0.00     0.034 A 
HETATM   17  C   UNL     1      41.894 -14.473   1.832  1.00  0.00     0.069 A 
HETATM   18  C   UNL     1      41.675 -14.481   0.451  1.00  0.00     0.104 A 
HETATM   19  C   UNL     1      41.339 -15.667  -0.204  1.00  0.00     0.102 A 
HETATM   20  O   UNL     1      41.800 -13.277  -0.197  1.00  0.00    -0.346 OA
HETATM   21  O   UNL     1      41.079 -15.741  -1.547  1.00  0.00    -0.346 OA
HETATM   22  C   UNL     1      41.266 -16.853   0.517  1.00  0.00     0.042 A 
HETATM   23  C   UNL     1      40.852 -14.441  -2.105  1.00  0.00     0.202 C 
HETATM   24  C   UNL     1      41.899 -13.457  -1.615  1.00  0.00     0.202 C 
HETATM   25  C   UNL     1      41.499 -16.844   1.897  1.00  0.00     0.032 A 
ENDBRANCH  14  16
ENDBRANCH  13  14
ENDBRANCH   7  13
TORSDOF 3
ENDMDL
MODEL 2
REMARK VINA RESULT:      -8.2      1.195      1.595
REMARK  3 active torsions:
REMARK  status: ('A' for Active; 'I' for Inactive)
REMARK    1  A    between atoms: C_7  and  C_10 
REMARK    2  A    between atoms: C_10  and  N_11 
REMARK    3  A    between atoms: N_11  and  C_12 
ROOT
HETATM    1  C   UNL     1      44.102 -21.482   1.776  1.00  0.00     0.002 A 
HETATM    2  C   UNL     1      43.573 -20.227   2.094  1.00  0.00     0.033 A 
HETATM    3  C   UNL     1      43.667 -19.741   3.413  1.00  0.00     0.075 A 
HETATM    4  C   UNL     1      44.289 -20.530   4.377  1.00  0.00     0.035 A 
HETATM    5  S   UNL     1      44.262 -19.699   5.879  1.00  0.00    -0.067 SA
HETATM    6  C   UNL     1      43.430 -18.355   5.156  1.00  0.00     0.121 A 
HETATM    7  C   UNL     1      43.066 -17.201   5.935  1.00  0.00     0.095 C 
HETATM    8  C   UNL     1      43.367 -17.103   7.325  1.00  0.00     0.103 C 
HETATM    9  N   UNL     1      43.596 -16.991   8.459  1.00  0.00    -0.191 NA
HETATM   10  N   UNL     1      43.190 -18.524   3.866  1.00  0.00    -0.239 NA
HETATM   11  C   UNL     1      44.826 -21.791   4.071  1.00  0.00     0.021 A 
HETATM   12  C   UNL     1      44.721 -22.253   2.755  1.00  0.00     0.002 A 
ENDROOT
BRANCH   7  13
HETATM   13  C   UNL     1      42.420 -16.186   5.319  1.00  0.00     0.114 C 
BRANCH  13  14
HETATM   14  N   UNL     1      41.198 -16.191   4.678  1.00  0.00    -0.364 N 
HETATM   15  H   UNL     1      40.426 -16.634   5.172  1.00  0.00     0.165 HD
BRANCH  14  16
HETATM   16  C   UNL     1      40.853 -15.651   3.424  1.00  0.00     0.034 A 
HETATM   17  C   UNL     1      41.449 -16.038   2.216  1.00  0.00     0.069 A 
HETATM   18  C   UNL     1      41.051 -15.465   1.004  1.00  0.00     0.104 A 
HETATM   19  C   UNL     1      40.070 -14.473   0.981  1.00  0.00     0.102 A 
HETATM   20  O   UNL     1      41.679 -15.925  -0.127  1.00  0.00    -0.346 OA
HETATM   21  O   UNL     1      39.657 -13.846  -0.165  1.00  0.00    -0.346 OA
HETATM   22  C   UNL     1      39.456 -14.086   2.165  1.00  0.00     0.042 A 
HETATM   23  C   UNL     1      40.575 -14.072  -1.242  1.00  0.00     0.202 C 
HETATM   24  C   UNL     1      40.971 -15.537  -1.310  1.00  0.00     0.202 C 
HETATM   25  C   UNL     1      39.846 -14.670   3.375  1.00  0.00     0.032 A 
ENDBRANCH  14  16
ENDBRANCH  13  14
ENDBRANCH   7  13
TORSDOF 3
ENDMDL
MODEL 3
REMARK VINA RESULT:      -8.2      2.158      3.178
REMARK  3 active torsions:
REMARK  status: ('A' for Active; 'I' for Inactive)
REMARK    1  A    between atoms: C_7  and  C_10 
REMARK    2  A    between atoms: C_10  and  N_11 
REMARK    3  A    between atoms: N_11  and  C_12 
ROOT
HETATM    1  C   UNL     1      44.674 -21.115   2.839  1.00  0.00     0.002 A 
HETATM    2  C   UNL     1      43.756 -20.338   2.125  1.00  0.00     0.033 A 
HETATM    3  C   UNL     1      43.166 -19.214   2.737  1.00  0.00     0.075 A 
HETATM    4  C   UNL     1      43.514 -18.902   4.048  1.00  0.00     0.035 A 
HETATM    5  S   UNL     1      42.653 -17.499   4.534  1.00  0.00    -0.067 SA
HETATM    6  C   UNL     1      41.879 -17.398   2.981  1.00  0.00     0.121 A 
HETATM    7  C   UNL     1      40.940 -16.348   2.686  1.00  0.00     0.095 C 
HETATM    8  C   UNL     1      40.601 -15.347   3.643  1.00  0.00     0.103 C 
HETATM    9  N   UNL     1      40.303 -14.517   4.399  1.00  0.00    -0.191 NA
HETATM   10  N   UNL     1      42.247 -18.362   2.152  1.00  0.00    -0.239 NA
HETATM   11  C   UNL     1      44.435 -19.673   4.776  1.00  0.00     0.021 A 
HETATM   12  C   UNL     1      45.009 -20.784   4.149  1.00  0.00     0.002 A 
ENDROOT
BRANCH   7  13
HETATM   13  C   UNL     1      40.369 -16.321   1.462  1.00  0.00     0.114 C 
BRANCH  13  14
HETATM   14  N   UNL     1      40.961 -16.425   0.220  1.00  0.00    -0.364 N 
HETATM   15  H   UNL     1      41.258 -17.355  -0.067  1.00  0.00     0.165 HD
BRANCH  14  16
HETATM   16  C   UNL     1      41.205 -15.417  -0.733  1.00  0.00     0.034 A 
HETATM   17  C   UNL     1      41.693 -14.142  -0.413  1.00  0.00     0.069 A 
HETATM   18  C   UNL     1      41.921 -13.190  -1.411  1.00  0.00     0.104 A 
HETATM   19  C   UNL     1      41.638 -13.486  -2.746  1.00  0.00     0.102 A 
HETATM   20  O   UNL     1      42.419 -11.978  -1.001  1.00  0.00    -0.346 OA
HETATM   21  O   UNL     1      41.805 -12.590  -3.769  1.00  0.00    -0.346 OA
HETATM   22  C   UNL     1      41.169 -14.748  -3.085  1.00  0.00     0.042 A 
HETATM   23  C   UNL     1      41.958 -11.255  -3.272  1.00  0.00     0.202 C 
HETATM   24  C   UNL     1      42.931 -11.225  -2.106  1.00  0.00     0.202 C 
HETATM   25  C   UNL     1      40.954 -15.703  -2.086  1.00  0.00     0.032 A 
ENDBRANCH  14  16
ENDBRANCH  13  14
ENDBRANCH   7  13
TORSDOF 3
ENDMDL
MODEL 4
REMARK VINA RESULT:      -7.9      1.722      4.045
REMARK  3 active torsions:
REMARK  status: ('A' for Active; 'I' for Inactive)
REMARK    1  A    between atoms: C_7  and  C_10 
REMARK    2  A    between atoms: C_10  and  N_11 
REMARK    3  A    between atoms: N_11  and  C_12 
ROOT
HETATM    1  C   UNL     1      43.301 -16.702   7.804  1.00  0.00     0.002 A 
HETATM    2  C   UNL     1      43.106 -16.749   6.420  1.00  0.00     0.033 A 
HETATM    3  C   UNL     1      43.467 -17.906   5.701  1.00  0.00     0.075 A 
HETATM    4  C   UNL     1      44.014 -18.983   6.393  1.00  0.00     0.035 A 
HETATM    5  S   UNL     1      44.356 -20.243   5.279  1.00  0.00    -0.067 SA
HETATM    6  C   UNL     1      43.759 -19.283   3.959  1.00  0.00     0.121 A 
HETATM    7  C   UNL     1      43.756 -19.789   2.612  1.00  0.00     0.095 C 
HETATM    8  C   UNL     1      44.239 -21.094   2.296  1.00  0.00     0.103 C 
HETATM    9  N   UNL     1      44.624 -22.150   2.003  1.00  0.00    -0.191 NA
HETATM   10  N   UNL     1      43.330 -18.089   4.337  1.00  0.00    -0.239 NA
HETATM   11  C   UNL     1      44.215 -18.949   7.782  1.00  0.00     0.021 A 
HETATM   12  C   UNL     1      43.849 -17.791   8.475  1.00  0.00     0.002 A 
ENDROOT
BRANCH   7  13
HETATM   13  C   UNL     1      43.280 -18.997   1.627  1.00  0.00     0.114 C 
BRANCH  13  14
HETATM   14  N   UNL     1      41.980 -18.619   1.363  1.00  0.00    -0.364 N 
HETATM   15  H   UNL     1      41.301 -19.369   1.258  1.00  0.00     0.165 HD
BRANCH  14  16
HETATM   16  C   UNL     1      41.443 -17.324   1.228  1.00  0.00     0.034 A 
HETATM   17  C   UNL     1      41.842 -16.412   0.243  1.00  0.00     0.069 A 
HETATM   18  C   UNL     1      41.260 -15.143   0.162  1.00  0.00     0.104 A 
HETATM   19  C   UNL     1      40.288 -14.752   1.084  1.00  0.00     0.102 A 
HETATM   20  O   UNL     1      41.703 -14.328  -0.851  1.00  0.00    -0.346 OA
HETATM   21  O   UNL     1      39.701 -13.514   1.084  1.00  0.00    -0.346 OA
HETATM   22  C   UNL     1      39.867 -15.648   2.059  1.00  0.00     0.042 A 
HETATM   23  C   UNL     1      40.439 -12.589   0.277  1.00  0.00     0.202 C 
HETATM   24  C   UNL     1      40.819 -13.219  -1.052  1.00  0.00     0.202 C 
HETATM   25  C   UNL     1      40.442 -16.921   2.129  1.00  0.00     0.032 A 
ENDBRANCH  14  16
ENDBRANCH  13  14
ENDBRANCH   7  13
TORSDOF 3
ENDMDL
MODEL 5
REMARK VINA RESULT:      -7.9      3.246      6.977
REMARK  3 active torsions:
REMARK  status: ('A' for Active; 'I' for Inactive)
REMARK    1  A    between atoms: C_7  and  C_10 
REMARK    2  A    between atoms: C_10  and  N_11 
REMARK    3  A    between atoms: N_11  and  C_12 
ROOT
HETATM    1  C   UNL     1      40.946 -15.490  -2.046  1.00  0.00     0.002 A 
HETATM    2  C   UNL     1      41.337 -15.970  -0.792  1.00  0.00     0.033 A 
HETATM    3  C   UNL     1      40.860 -15.344   0.377  1.00  0.00     0.075 A 
HETATM    4  C   UNL     1      40.005 -14.253   0.254  1.00  0.00     0.035 A 
HETATM    5  S   UNL     1      39.586 -13.694   1.822  1.00  0.00    -0.067 SA
HETATM    6  C   UNL     1      40.562 -14.930   2.557  1.00  0.00     0.121 A 
HETATM    7  C   UNL     1      40.665 -15.042   3.988  1.00  0.00     0.095 C 
HETATM    8  C   UNL     1      39.978 -14.153   4.866  1.00  0.00     0.103 C 
HETATM    9  N   UNL     1      39.432 -13.446   5.610  1.00  0.00    -0.191 NA
HETATM   10  N   UNL     1      41.164 -15.712   1.675  1.00  0.00    -0.239 NA
HETATM   11  C   UNL     1      39.604 -13.761  -0.999  1.00  0.00     0.021 A 
HETATM   12  C   UNL     1      40.090 -14.398  -2.146  1.00  0.00     0.002 A 
ENDROOT
BRANCH   7  13
HETATM   13  C   UNL     1      41.439 -16.023   4.503  1.00  0.00     0.114 C 
BRANCH  13  14
HETATM   14  N   UNL     1      42.727 -16.385   4.166  1.00  0.00    -0.364 N 
HETATM   15  H   UNL     1      43.372 -15.628   3.954  1.00  0.00     0.165 HD
BRANCH  14  16
HETATM   16  C   UNL     1      43.293 -17.672   4.087  1.00  0.00     0.034 A 
HETATM   17  C   UNL     1      43.058 -18.565   3.032  1.00  0.00     0.069 A 
HETATM   18  C   UNL     1      43.660 -19.826   3.012  1.00  0.00     0.104 A 
HETATM   19  C   UNL     1      44.486 -20.231   4.062  1.00  0.00     0.102 A 
HETATM   20  O   UNL     1      43.385 -20.621   1.927  1.00  0.00    -0.346 OA
HETATM   21  O   UNL     1      45.081 -21.464   4.124  1.00  0.00    -0.346 OA
HETATM   22  C   UNL     1      44.744 -19.355   5.110  1.00  0.00     0.042 A 
HETATM   23  C   UNL     1      44.484 -22.376   3.194  1.00  0.00     0.202 C 
HETATM   24  C   UNL     1      44.303 -21.717   1.837  1.00  0.00     0.202 C 
HETATM   25  C   UNL     1      44.151 -18.088   5.120  1.00  0.00     0.032 A 
ENDBRANCH  14  16
ENDBRANCH  13  14
ENDBRANCH   7  13
TORSDOF 3
ENDMDL
MODEL 6
REMARK VINA RESULT:      -7.8      3.562      7.446
REMARK  3 active torsions:
REMARK  status: ('A' for Active; 'I' for Inactive)
REMARK    1  A    between atoms: C_7  and  C_10 
REMARK    2  A    between atoms: C_10  and  N_11 
REMARK    3  A    between atoms: N_11  and  C_12 
ROOT
HETATM    1  C   UNL     1      40.041 -14.048  -2.452  1.00  0.00     0.002 A 
HETATM    2  C   UNL     1      41.030 -14.416  -1.534  1.00  0.00     0.033 A 
HETATM    3  C   UNL     1      40.714 -14.508  -0.164  1.00  0.00     0.075 A 
HETATM    4  C   UNL     1      39.413 -14.228   0.246  1.00  0.00     0.035 A 
HETATM    5  S   UNL     1      39.313 -14.417   1.949  1.00  0.00    -0.067 SA
HETATM    6  C   UNL     1      40.993 -14.856   2.031  1.00  0.00     0.121 A 
HETATM    7  C   UNL     1      41.617 -15.174   3.288  1.00  0.00     0.095 C 
HETATM    8  C   UNL     1      40.896 -15.146   4.518  1.00  0.00     0.103 C 
HETATM    9  N   UNL     1      40.338 -15.133   5.537  1.00  0.00    -0.191 NA
HETATM   10  N   UNL     1      41.588 -14.858   0.849  1.00  0.00    -0.239 NA
HETATM   11  C   UNL     1      38.411 -13.858  -0.666  1.00  0.00     0.021 A 
HETATM   12  C   UNL     1      38.747 -13.773  -2.020  1.00  0.00     0.002 A 
ENDROOT
BRANCH   7  13
HETATM   13  C   UNL     1      42.926 -15.508   3.290  1.00  0.00     0.114 C 
BRANCH  13  14
HETATM   14  N   UNL     1      43.576 -16.498   2.582  1.00  0.00    -0.364 N 
HETATM   15  H   UNL     1      43.940 -16.239   1.668  1.00  0.00     0.165 HD
BRANCH  14  16
HETATM   16  C   UNL     1      43.825 -17.834   2.951  1.00  0.00     0.034 A 
HETATM   17  C   UNL     1      43.982 -18.261   4.276  1.00  0.00     0.069 A 
HETATM   18  C   UNL     1      44.220 -19.607   4.573  1.00  0.00     0.104 A 
HETATM   19  C   UNL     1      44.334 -20.546   3.546  1.00  0.00     0.102 A 
HETATM   20  O   UNL     1      44.339 -19.931   5.902  1.00  0.00    -0.346 OA
HETATM   21  O   UNL     1      44.600 -21.872   3.763  1.00  0.00    -0.346 OA
HETATM   22  C   UNL     1      44.166 -20.145   2.227  1.00  0.00     0.042 A 
HETATM   23  C   UNL     1      45.081 -22.096   5.094  1.00  0.00     0.202 C 
HETATM   24  C   UNL     1      44.233 -21.345   6.105  1.00  0.00     0.202 C 
HETATM   25  C   UNL     1      43.915 -18.801   1.934  1.00  0.00     0.032 A 
ENDBRANCH  14  16
ENDBRANCH  13  14
ENDBRANCH   7  13
TORSDOF 3
ENDMDL
MODEL 7
REMARK VINA RESULT:      -7.7      4.022      6.446
REMARK  3 active torsions:
REMARK  status: ('A' for Active; 'I' for Inactive)
REMARK    1  A    between atoms: C_7  and  C_10 
REMARK    2  A    between atoms: C_10  and  N_11 
REMARK    3  A    between atoms: N_11  and  C_12 
ROOT
HETATM    1  C   UNL     1      44.733 -20.328   4.091  1.00  0.00     0.002 A 
HETATM    2  C   UNL     1      44.135 -19.190   4.640  1.00  0.00     0.033 A 
HETATM    3  C   UNL     1      43.238 -18.429   3.865  1.00  0.00     0.075 A 
HETATM    4  C   UNL     1      42.967 -18.832   2.560  1.00  0.00     0.035 A 
HETATM    5  S   UNL     1      41.853 -17.732   1.857  1.00  0.00    -0.067 SA
HETATM    6  C   UNL     1      41.802 -16.798   3.322  1.00  0.00     0.121 A 
HETATM    7  C   UNL     1      40.980 -15.621   3.425  1.00  0.00     0.095 C 
HETATM    8  C   UNL     1      40.173 -15.167   2.340  1.00  0.00     0.103 C 
HETATM    9  N   UNL     1      39.504 -14.769   1.477  1.00  0.00    -0.191 NA
HETATM   10  N   UNL     1      42.577 -17.286   4.277  1.00  0.00    -0.239 NA
HETATM   11  C   UNL     1      43.561 -19.973   1.997  1.00  0.00     0.021 A 
HETATM   12  C   UNL     1      44.448 -20.714   2.785  1.00  0.00     0.002 A 
ENDROOT
BRANCH   7  13
HETATM   13  C   UNL     1      40.982 -14.934   4.588  1.00  0.00     0.114 C 
BRANCH  13  14
HETATM   14  N   UNL     1      41.615 -13.749   4.902  1.00  0.00    -0.364 N 
HETATM   15  H   UNL     1      41.363 -12.937   4.343  1.00  0.00     0.165 HD
BRANCH  14  16
HETATM   16  C   UNL     1      42.565 -13.491   5.909  1.00  0.00     0.034 A 
HETATM   17  C   UNL     1      42.532 -12.366   6.743  1.00  0.00     0.069 A 
HETATM   18  C   UNL     1      43.504 -12.176   7.730  1.00  0.00     0.104 A 
HETATM   19  C   UNL     1      44.545 -13.093   7.880  1.00  0.00     0.102 A 
HETATM   20  O   UNL     1      43.375 -11.054   8.511  1.00  0.00    -0.346 OA
HETATM   21  O   UNL     1      45.549 -12.952   8.802  1.00  0.00    -0.346 OA
HETATM   22  C   UNL     1      44.588 -14.223   7.073  1.00  0.00     0.042 A 
HETATM   23  C   UNL     1      45.592 -11.618   9.324  1.00  0.00     0.202 C 
HETATM   24  C   UNL     1      44.196 -11.137   9.682  1.00  0.00     0.202 C 
HETATM   25  C   UNL     1      43.606 -14.418   6.096  1.00  0.00     0.032 A 
ENDBRANCH  14  16
ENDBRANCH  13  14
ENDBRANCH   7  13
TORSDOF 3
ENDMDL
MODEL 8
REMARK VINA RESULT:      -7.7      3.953      5.116
REMARK  3 active torsions:
REMARK  status: ('A' for Active; 'I' for Inactive)
REMARK    1  A    between atoms: C_7  and  C_10 
REMARK    2  A    between atoms: C_10  and  N_11 
REMARK    3  A    between atoms: N_11  and  C_12 
ROOT
HETATM    1  C   UNL     1      43.892 -21.620   1.758  1.00  0.00     0.002 A 
HETATM    2  C   UNL     1      43.327 -20.346   1.879  1.00  0.00     0.033 A 
HETATM    3  C   UNL     1      43.523 -19.604   3.060  1.00  0.00     0.075 A 
HETATM    4  C   UNL     1      44.280 -20.161   4.087  1.00  0.00     0.035 A 
HETATM    5  S   UNL     1      44.353 -19.048   5.392  1.00  0.00    -0.067 SA
HETATM    6  C   UNL     1      43.381 -17.906   4.514  1.00  0.00     0.121 A 
HETATM    7  C   UNL     1      43.031 -16.633   5.087  1.00  0.00     0.095 C 
HETATM    8  C   UNL     1      43.460 -16.248   6.391  1.00  0.00     0.103 C 
HETATM    9  N   UNL     1      43.793 -15.904   7.449  1.00  0.00    -0.191 NA
HETATM   10  N   UNL     1      43.025 -18.338   3.315  1.00  0.00    -0.239 NA
HETATM   11  C   UNL     1      44.853 -21.439   3.978  1.00  0.00     0.021 A 
HETATM   12  C   UNL     1      44.646 -22.157   2.797  1.00  0.00     0.002 A 
ENDROOT
BRANCH   7  13
HETATM   13  C   UNL     1      42.272 -15.786   4.357  1.00  0.00     0.114 C 
BRANCH  13  14
HETATM   14  N   UNL     1      42.273 -14.406   4.341  1.00  0.00    -0.364 N 
HETATM   15  H   UNL     1      42.893 -13.959   3.669  1.00  0.00     0.165 HD
BRANCH  14  16
HETATM   16  C   UNL     1      41.519 -13.510   5.123  1.00  0.00     0.034 A 
HETATM   17  C   UNL     1      42.082 -12.508   5.925  1.00  0.00     0.069 A 
HETATM   18  C   UNL     1      41.272 -11.646   6.671  1.00  0.00     0.104 A 
HETATM   19  C   UNL     1      39.884 -11.789   6.651  1.00  0.00     0.102 A 
HETATM   20  O   UNL     1      41.916 -10.684   7.409  1.00  0.00    -0.346 OA
HETATM   21  O   UNL     1      39.034 -11.002   7.382  1.00  0.00    -0.346 OA
HETATM   22  C   UNL     1      39.305 -12.766   5.850  1.00  0.00     0.042 A 
HETATM   23  C   UNL     1      39.738 -10.283   8.402  1.00  0.00     0.202 C 
HETATM   24  C   UNL     1      41.008  -9.666   7.843  1.00  0.00     0.202 C 
HETATM   25  C   UNL     1      40.117 -13.618   5.095  1.00  0.00     0.032 A 
ENDBRANCH  14  16
ENDBRANCH  13  14
ENDBRANCH   7  13
TORSDOF 3
ENDMDL
MODEL 9
REMARK VINA RESULT:      -7.6      4.349      8.879
REMARK  3 active torsions:
REMARK  status: ('A' for Active; 'I' for Inactive)
REMARK    1  A    between atoms: C_7  and  C_10 
REMARK    2  A    between atoms: C_10  and  N_11 
REMARK    3  A    between atoms: N_11  and  C_12 
ROOT
HETATM    1  C   UNL     1      43.535  -9.581  -1.144  1.00  0.00     0.002 A 
HETATM    2  C   UNL     1      43.181 -10.845  -0.661  1.00  0.00     0.033 A 
HETATM    3  C   UNL     1      42.470 -11.736  -1.488  1.00  0.00     0.075 A 
HETATM    4  C   UNL     1      42.134 -11.333  -2.778  1.00  0.00     0.035 A 
HETATM    5  S   UNL     1      41.279 -12.604  -3.553  1.00  0.00    -0.067 SA
HETATM    6  C   UNL     1      41.411 -13.600  -2.135  1.00  0.00     0.121 A 
HETATM    7  C   UNL     1      40.852 -14.926  -2.103  1.00  0.00     0.095 C 
HETATM    8  C   UNL     1      40.170 -15.484  -3.225  1.00  0.00     0.103 C 
HETATM    9  N   UNL     1      39.608 -15.969  -4.119  1.00  0.00    -0.191 NA
HETATM   10  N   UNL     1      42.057 -13.010  -1.142  1.00  0.00    -0.239 NA
HETATM   11  C   UNL     1      42.484 -10.067  -3.275  1.00  0.00     0.021 A 
HETATM   12  C   UNL     1      43.189  -9.199  -2.436  1.00  0.00     0.002 A 
ENDROOT
BRANCH   7  13
HETATM   13  C   UNL     1      40.985 -15.654  -0.973  1.00  0.00     0.114 C 
BRANCH  13  14
HETATM   14  N   UNL     1      42.077 -16.359  -0.512  1.00  0.00    -0.364 N 
HETATM   15  H   UNL     1      42.804 -16.568  -1.192  1.00  0.00     0.165 HD
BRANCH  14  16
HETATM   16  C   UNL     1      42.345 -16.828   0.789  1.00  0.00     0.034 A 
HETATM   17  C   UNL     1      41.530 -16.565   1.897  1.00  0.00     0.069 A 
HETATM   18  C   UNL     1      41.851 -17.070   3.161  1.00  0.00     0.104 A 
HETATM   19  C   UNL     1      43.012 -17.823   3.345  1.00  0.00     0.102 A 
HETATM   20  O   UNL     1      40.979 -16.775   4.180  1.00  0.00    -0.346 OA
HETATM   21  O   UNL     1      43.405 -18.318   4.560  1.00  0.00    -0.346 OA
HETATM   22  C   UNL     1      43.826 -18.107   2.256  1.00  0.00     0.042 A 
HETATM   23  C   UNL     1      42.695 -17.689   5.634  1.00  0.00     0.202 C 
HETATM   24  C   UNL     1      41.211 -17.609   5.321  1.00  0.00     0.202 C 
HETATM   25  C   UNL     1      43.495 -17.613   0.991  1.00  0.00     0.032 A 
ENDBRANCH  14  16
ENDBRANCH  13  14
ENDBRANCH   7  13
TORSDOF 3
ENDMDL
MODEL 10
REMARK VINA RESULT:      -7.5      2.126      2.559
REMARK  3 active torsions:
REMARK  status: ('A' for Active; 'I' for Inactive)
REMARK    1  A    between atoms: C_7  and  C_10 
REMARK    2  A    between atoms: C_10  and  N_11 
REMARK    3  A    between atoms: N_11  and  C_12 
ROOT
HETATM    1  C   UNL     1      44.611 -22.371   3.082  1.00  0.00     0.002 A 
HETATM    2  C   UNL     1      44.254 -21.149   2.503  1.00  0.00     0.033 A 
HETATM    3  C   UNL     1      44.107 -20.007   3.316  1.00  0.00     0.075 A 
HETATM    4  C   UNL     1      44.323 -20.124   4.686  1.00  0.00     0.035 A 
HETATM    5  S   UNL     1      44.077 -18.593   5.421  1.00  0.00    -0.067 SA
HETATM    6  C   UNL     1      43.702 -17.878   3.882  1.00  0.00     0.121 A 
HETATM    7  C   UNL     1      43.371 -16.482   3.771  1.00  0.00     0.095 C 
HETATM    8  C   UNL     1      43.334 -15.623   4.909  1.00  0.00     0.103 C 
HETATM    9  N   UNL     1      43.295 -14.896   5.814  1.00  0.00    -0.191 NA
HETATM   10  N   UNL     1      43.759 -18.741   2.880  1.00  0.00    -0.239 NA
HETATM   11  C   UNL     1      44.683 -21.345   5.279  1.00  0.00     0.021 A 
HETATM   12  C   UNL     1      44.823 -22.466   4.454  1.00  0.00     0.002 A 
ENDROOT
BRANCH   7  13
HETATM   13  C   UNL     1      43.088 -15.983   2.549  1.00  0.00     0.114 C 
BRANCH  13  14
HETATM   14  N   UNL     1      41.975 -16.187   1.759  1.00  0.00    -0.364 N 
HETATM   15  H   UNL     1      41.686 -17.152   1.619  1.00  0.00     0.165 HD
BRANCH  14  16
HETATM   16  C   UNL     1      41.157 -15.236   1.117  1.00  0.00     0.034 A 
HETATM   17  C   UNL     1      39.791 -15.076   1.382  1.00  0.00     0.069 A 
HETATM   18  C   UNL     1      39.039 -14.105   0.713  1.00  0.00     0.104 A 
HETATM   19  C   UNL     1      39.634 -13.296  -0.256  1.00  0.00     0.102 A 
HETATM   20  O   UNL     1      37.713 -14.011   1.056  1.00  0.00    -0.346 OA
HETATM   21  O   UNL     1      38.951 -12.350  -0.974  1.00  0.00    -0.346 OA
HETATM   22  C   UNL     1      40.991 -13.429  -0.523  1.00  0.00     0.042 A 
HETATM   23  C   UNL     1      37.534 -12.536  -0.864  1.00  0.00     0.202 C 
HETATM   24  C   UNL     1      37.137 -12.789   0.580  1.00  0.00     0.202 C 
HETATM   25  C   UNL     1      41.744 -14.391   0.158  1.00  0.00     0.032 A 
ENDBRANCH  14  16
ENDBRANCH  13  14
ENDBRANCH   7  13
TORSDOF 3
ENDMDL
