MODEL 1
REMARK VINA RESULT:      -7.7      0.000      0.000
REMARK  6 active torsions:
REMARK  status: ('A' for Active; 'I' for Inactive)
REMARK    1  A    between atoms: N_2  and  C_4 
REMARK    2  A    between atoms: C_4  and  C_5 
REMARK    3  A    between atoms: C_5  and  N_6 
REMARK    4  A    between atoms: C_5  and  C_21 
REMARK       I    between atoms: N_6  and  C_7 
REMARK       I    between atoms: C_7  and  N_8 
REMARK    5  A    between atoms: N_8  and  C_9 
REMARK    6  A    between atoms: C_12  and  C_13 
ROOT
HETATM    1  N   UNL     1      42.406 -14.893   3.543  1.00  0.00    -0.333 N 
HETATM    2  C   UNL     1      42.937 -13.636   3.537  1.00  0.00     0.322 C 
HETATM    3  N   UNL     1      42.502 -12.769   2.589  1.00  0.00    -0.287 N 
HETATM    4  O   UNL     1      43.767 -13.286   4.373  1.00  0.00    -0.247 OA
HETATM    5  H   UNL     1      42.021 -15.171   2.643  1.00  0.00     0.165 HD
HETATM    6  H   UNL     1      42.959 -11.868   2.554  1.00  0.00     0.172 HD
ENDROOT
BRANCH   1   7
HETATM    7  C   UNL     1      42.972 -15.935   4.389  1.00  0.00     0.145 C 
BRANCH   7   8
HETATM    8  C   UNL     1      42.102 -16.270   5.645  1.00  0.00     0.263 C 
BRANCH   8   9
HETATM    9  N   UNL     1      42.835 -16.090   6.982  1.00  0.00    -0.076 N 
HETATM   10  C   UNL     1      44.213 -15.508   6.836  1.00  0.00     0.269 C 
HETATM   11  H   UNL     1      42.281 -15.429   7.543  1.00  0.00     0.279 HD
HETATM   12  C   UNL     1      42.870 -17.380   7.752  1.00  0.00     0.269 C 
ENDBRANCH   8   9
ENDBRANCH   7   8
BRANCH   7  13
HETATM   13  C   UNL     1      43.299 -17.206   3.614  1.00  0.00    -0.034 A 
HETATM   14  C   UNL     1      43.639 -18.413   4.246  1.00  0.00     0.009 A 
HETATM   15  C   UNL     1      43.972 -19.544   3.498  1.00  0.00     0.001 A 
HETATM   16  C   UNL     1      43.977 -19.484   2.107  1.00  0.00     0.000 A 
HETATM   17  C   UNL     1      43.644 -18.296   1.462  1.00  0.00     0.001 A 
HETATM   18  C   UNL     1      43.305 -17.166   2.208  1.00  0.00     0.009 A 
ENDBRANCH   7  13
ENDBRANCH   1   7
BRANCH   3  19
HETATM   19  C   UNL     1      41.488 -12.993   1.703  1.00  0.00     0.175 A 
HETATM   20  S   UNL     1      39.966 -12.405   2.183  1.00  0.00    -0.061 SA
HETATM   21  C   UNL     1      39.297 -13.012   0.721  1.00  0.00     0.086 A 
HETATM   22  C   UNL     1      40.283 -13.637  -0.021  1.00  0.00     0.078 A 
HETATM   23  N   UNL     1      41.551 -13.614   0.551  1.00  0.00    -0.223 NA
BRANCH  22  24
HETATM   24  C   UNL     1      40.050 -14.317  -1.284  1.00  0.00     0.011 A 
HETATM   25  C   UNL     1      38.903 -14.029  -2.020  1.00  0.00     0.130 A 
HETATM   26  N   UNL     1      38.577 -14.605  -3.201  1.00  0.00    -0.272 NA
HETATM   27  C   UNL     1      39.451 -15.515  -3.685  1.00  0.00     0.116 A 
HETATM   28  C   UNL     1      40.623 -15.873  -3.036  1.00  0.00     0.020 A 
HETATM   29  C   UNL     1      40.924 -15.266  -1.816  1.00  0.00     0.017 A 
ENDBRANCH  22  24
ENDBRANCH   3  19
TORSDOF 6
ENDMDL
MODEL 2
REMARK VINA RESULT:      -7.3      2.190      2.864
REMARK  6 active torsions:
REMARK  status: ('A' for Active; 'I' for Inactive)
REMARK    1  A    between atoms: N_2  and  C_4 
REMARK    2  A    between atoms: C_4  and  C_5 
REMARK    3  A    between atoms: C_5  and  N_6 
REMARK    4  A    between atoms: C_5  and  C_21 
REMARK       I    between atoms: N_6  and  C_7 
REMARK       I    between atoms: C_7  and  N_8 
REMARK    5  A    between atoms: N_8  and  C_9 
REMARK    6  A    between atoms: C_12  and  C_13 
ROOT
HETATM    1  N   UNL     1      42.710 -17.282   3.834  1.00  0.00    -0.333 N 
HETATM    2  C   UNL     1      41.416 -17.201   4.258  1.00  0.00     0.322 C 
HETATM    3  N   UNL     1      40.637 -16.222   3.732  1.00  0.00    -0.287 N 
HETATM    4  O   UNL     1      40.956 -17.997   5.072  1.00  0.00    -0.247 OA
HETATM    5  H   UNL     1      43.065 -16.407   3.454  1.00  0.00     0.165 HD
HETATM    6  H   UNL     1      39.705 -16.131   4.112  1.00  0.00     0.172 HD
ENDROOT
BRANCH   1   7
HETATM    7  C   UNL     1      43.658 -18.164   4.502  1.00  0.00     0.145 C 
BRANCH   7   8
HETATM    8  C   UNL     1      43.287 -18.476   5.990  1.00  0.00     0.263 C 
BRANCH   8   9
HETATM    9  N   UNL     1      44.166 -17.753   7.020  1.00  0.00    -0.076 N 
HETATM   10  C   UNL     1      44.301 -18.495   8.320  1.00  0.00     0.269 C 
HETATM   11  H   UNL     1      45.108 -17.677   6.612  1.00  0.00     0.279 HD
HETATM   12  C   UNL     1      43.683 -16.348   7.246  1.00  0.00     0.269 C 
ENDBRANCH   8   9
ENDBRANCH   7   8
BRANCH   7  13
HETATM   13  C   UNL     1      43.901 -19.456   3.732  1.00  0.00    -0.034 A 
HETATM   14  C   UNL     1      43.442 -19.654   2.419  1.00  0.00     0.009 A 
HETATM   15  C   UNL     1      43.651 -20.869   1.764  1.00  0.00     0.001 A 
HETATM   16  C   UNL     1      44.316 -21.906   2.412  1.00  0.00     0.000 A 
HETATM   17  C   UNL     1      44.778 -21.729   3.714  1.00  0.00     0.001 A 
HETATM   18  C   UNL     1      44.575 -20.513   4.368  1.00  0.00     0.009 A 
ENDBRANCH   7  13
ENDBRANCH   1   7
BRANCH   3  19
HETATM   19  C   UNL     1      40.990 -15.374   2.722  1.00  0.00     0.175 A 
HETATM   20  S   UNL     1      41.512 -13.834   3.220  1.00  0.00    -0.061 SA
HETATM   21  C   UNL     1      41.739 -13.405   1.571  1.00  0.00     0.086 A 
HETATM   22  C   UNL     1      41.383 -14.465   0.757  1.00  0.00     0.078 A 
HETATM   23  N   UNL     1      40.958 -15.605   1.432  1.00  0.00    -0.223 NA
BRANCH  22  24
HETATM   24  C   UNL     1      41.393 -14.422  -0.695  1.00  0.00     0.011 A 
HETATM   25  C   UNL     1      41.794 -13.259  -1.347  1.00  0.00     0.130 A 
HETATM   26  N   UNL     1      41.834 -13.099  -2.691  1.00  0.00    -0.272 NA
HETATM   27  C   UNL     1      41.462 -14.167  -3.431  1.00  0.00     0.116 A 
HETATM   28  C   UNL     1      41.049 -15.372  -2.885  1.00  0.00     0.020 A 
HETATM   29  C   UNL     1      41.012 -15.499  -1.496  1.00  0.00     0.017 A 
ENDBRANCH  22  24
ENDBRANCH   3  19
TORSDOF 6
ENDMDL
MODEL 3
REMARK VINA RESULT:      -7.3      2.495      7.272
REMARK  6 active torsions:
REMARK  status: ('A' for Active; 'I' for Inactive)
REMARK    1  A    between atoms: N_2  and  C_4 
REMARK    2  A    between atoms: C_4  and  C_5 
REMARK    3  A    between atoms: C_5  and  N_6 
REMARK    4  A    between atoms: C_5  and  C_21 
REMARK       I    between atoms: N_6  and  C_7 
REMARK       I    between atoms: C_7  and  N_8 
REMARK    5  A    between atoms: N_8  and  C_9 
REMARK    6  A    between atoms: C_12  and  C_13 
ROOT
HETATM    1  N   UNL     1      40.617 -14.281   0.992  1.00  0.00    -0.333 N 
HETATM    2  C   UNL     1      39.468 -14.483   1.699  1.00  0.00     0.322 C 
HETATM    3  N   UNL     1      39.500 -15.378   2.719  1.00  0.00    -0.287 N 
HETATM    4  O   UNL     1      38.439 -13.862   1.442  1.00  0.00    -0.247 OA
HETATM    5  H   UNL     1      41.269 -15.061   1.052  1.00  0.00     0.165 HD
HETATM    6  H   UNL     1      38.622 -15.567   3.183  1.00  0.00     0.172 HD
ENDROOT
BRANCH   1   7
HETATM    7  C   UNL     1      40.606 -13.502  -0.239  1.00  0.00     0.145 C 
BRANCH   7   8
HETATM    8  C   UNL     1      41.965 -12.790  -0.547  1.00  0.00     0.263 C 
BRANCH   8   9
HETATM    9  N   UNL     1      41.818 -11.451  -1.285  1.00  0.00    -0.076 N 
HETATM   10  C   UNL     1      43.085 -10.645  -1.320  1.00  0.00     0.269 C 
HETATM   11  H   UNL     1      41.566 -11.670  -2.259  1.00  0.00     0.279 HD
HETATM   12  C   UNL     1      40.681 -10.649  -0.718  1.00  0.00     0.269 C 
ENDBRANCH   8   9
ENDBRANCH   7   8
BRANCH   7  13
HETATM   13  C   UNL     1      40.146 -14.314  -1.444  1.00  0.00    -0.034 A 
HETATM   14  C   UNL     1      40.916 -15.348  -2.000  1.00  0.00     0.009 A 
HETATM   15  C   UNL     1      40.476 -16.040  -3.130  1.00  0.00     0.001 A 
HETATM   16  C   UNL     1      39.262 -15.706  -3.724  1.00  0.00     0.000 A 
HETATM   17  C   UNL     1      38.485 -14.683  -3.187  1.00  0.00     0.001 A 
HETATM   18  C   UNL     1      38.920 -13.994  -2.055  1.00  0.00     0.009 A 
ENDBRANCH   7  13
ENDBRANCH   1   7
BRANCH   3  19
HETATM   19  C   UNL     1      40.611 -16.017   3.188  1.00  0.00     0.175 A 
HETATM   20  S   UNL     1      41.440 -15.205   4.431  1.00  0.00    -0.061 SA
HETATM   21  C   UNL     1      42.585 -16.486   4.471  1.00  0.00     0.086 A 
HETATM   22  C   UNL     1      42.260 -17.435   3.518  1.00  0.00     0.078 A 
HETATM   23  N   UNL     1      41.110 -17.159   2.786  1.00  0.00    -0.223 NA
BRANCH  22  24
HETATM   24  C   UNL     1      43.053 -18.620   3.240  1.00  0.00     0.011 A 
HETATM   25  C   UNL     1      43.998 -19.051   4.167  1.00  0.00     0.130 A 
HETATM   26  N   UNL     1      44.798 -20.132   4.011  1.00  0.00    -0.272 NA
HETATM   27  C   UNL     1      44.640 -20.834   2.868  1.00  0.00     0.116 A 
HETATM   28  C   UNL     1      43.728 -20.495   1.880  1.00  0.00     0.020 A 
HETATM   29  C   UNL     1      42.924 -19.370   2.069  1.00  0.00     0.017 A 
ENDBRANCH  22  24
ENDBRANCH   3  19
TORSDOF 6
ENDMDL
MODEL 4
REMARK VINA RESULT:      -7.0      4.761      8.139
REMARK  6 active torsions:
REMARK  status: ('A' for Active; 'I' for Inactive)
REMARK    1  A    between atoms: N_2  and  C_4 
REMARK    2  A    between atoms: C_4  and  C_5 
REMARK    3  A    between atoms: C_5  and  N_6 
REMARK    4  A    between atoms: C_5  and  C_21 
REMARK       I    between atoms: N_6  and  C_7 
REMARK       I    between atoms: C_7  and  N_8 
REMARK    5  A    between atoms: N_8  and  C_9 
REMARK    6  A    between atoms: C_12  and  C_13 
ROOT
HETATM    1  N   UNL     1      41.708 -11.563   7.404  1.00  0.00    -0.333 N 
HETATM    2  C   UNL     1      41.501 -11.092   6.140  1.00  0.00     0.322 C 
HETATM    3  N   UNL     1      41.486 -11.990   5.123  1.00  0.00    -0.287 N 
HETATM    4  O   UNL     1      41.312  -9.897   5.924  1.00  0.00    -0.247 OA
HETATM    5  H   UNL     1      42.182 -12.464   7.424  1.00  0.00     0.165 HD
HETATM    6  H   UNL     1      41.405 -11.614   4.188  1.00  0.00     0.172 HD
ENDROOT
BRANCH   1   7
HETATM    7  C   UNL     1      41.946 -10.646   8.510  1.00  0.00     0.145 C 
BRANCH   7   8
HETATM    8  C   UNL     1      40.744 -10.531   9.504  1.00  0.00     0.263 C 
BRANCH   8   9
HETATM    9  N   UNL     1      39.951  -9.222   9.380  1.00  0.00    -0.076 N 
HETATM   10  C   UNL     1      38.818  -9.298   8.397  1.00  0.00     0.269 C 
HETATM   11  H   UNL     1      39.542  -9.028  10.305  1.00  0.00     0.279 HD
HETATM   12  C   UNL     1      40.864  -8.070   9.066  1.00  0.00     0.269 C 
ENDBRANCH   8   9
ENDBRANCH   7   8
BRANCH   7  13
HETATM   13  C   UNL     1      43.232 -10.960   9.265  1.00  0.00    -0.034 A 
HETATM   14  C   UNL     1      44.220 -11.820   8.757  1.00  0.00     0.009 A 
HETATM   15  C   UNL     1      45.365 -12.112   9.499  1.00  0.00     0.001 A 
HETATM   16  C   UNL     1      45.539 -11.556  10.763  1.00  0.00     0.000 A 
HETATM   17  C   UNL     1      44.571 -10.701  11.285  1.00  0.00     0.001 A 
HETATM   18  C   UNL     1      43.428 -10.403  10.542  1.00  0.00     0.009 A 
ENDBRANCH   7  13
ENDBRANCH   1   7
BRANCH   3  19
HETATM   19  C   UNL     1      41.540 -13.347   5.253  1.00  0.00     0.175 A 
HETATM   20  S   UNL     1      40.030 -14.121   5.385  1.00  0.00    -0.061 SA
HETATM   21  C   UNL     1      40.843 -15.630   5.510  1.00  0.00     0.086 A 
HETATM   22  C   UNL     1      42.211 -15.433   5.459  1.00  0.00     0.078 A 
HETATM   23  N   UNL     1      42.606 -14.108   5.301  1.00  0.00    -0.223 NA
BRANCH  22  24
HETATM   24  C   UNL     1      43.197 -16.490   5.599  1.00  0.00     0.011 A 
HETATM   25  C   UNL     1      43.265 -17.500   4.644  1.00  0.00     0.130 A 
HETATM   26  N   UNL     1      44.133 -18.539   4.675  1.00  0.00    -0.272 NA
HETATM   27  C   UNL     1      44.993 -18.568   5.716  1.00  0.00     0.116 A 
HETATM   28  C   UNL     1      45.014 -17.612   6.721  1.00  0.00     0.020 A 
HETATM   29  C   UNL     1      44.099 -16.560   6.662  1.00  0.00     0.017 A 
ENDBRANCH  22  24
ENDBRANCH   3  19
TORSDOF 6
ENDMDL
MODEL 5
REMARK VINA RESULT:      -6.9      1.743      2.140
REMARK  6 active torsions:
REMARK  status: ('A' for Active; 'I' for Inactive)
REMARK    1  A    between atoms: N_2  and  C_4 
REMARK    2  A    between atoms: C_4  and  C_5 
REMARK    3  A    between atoms: C_5  and  N_6 
REMARK    4  A    between atoms: C_5  and  C_21 
REMARK       I    between atoms: N_6  and  C_7 
REMARK       I    between atoms: C_7  and  N_8 
REMARK    5  A    between atoms: N_8  and  C_9 
REMARK    6  A    between atoms: C_12  and  C_13 
ROOT
HETATM    1  N   UNL     1      42.121 -15.650   3.439  1.00  0.00    -0.333 N 
HETATM    2  C   UNL     1      40.943 -15.851   4.097  1.00  0.00     0.322 C 
HETATM    3  N   UNL     1      39.823 -15.284   3.580  1.00  0.00    -0.287 N 
HETATM    4  O   UNL     1      40.885 -16.540   5.113  1.00  0.00    -0.247 OA
HETATM    5  H   UNL     1      42.116 -14.820   2.850  1.00  0.00     0.165 HD
HETATM    6  H   UNL     1      38.975 -15.382   4.121  1.00  0.00     0.172 HD
ENDROOT
BRANCH   1   7
HETATM    7  C   UNL     1      43.386 -16.045   4.042  1.00  0.00     0.145 C 
BRANCH   7   8
HETATM    8  C   UNL     1      43.505 -15.679   5.558  1.00  0.00     0.263 C 
BRANCH   8   9
HETATM    9  N   UNL     1      43.969 -14.239   5.820  1.00  0.00    -0.076 N 
HETATM   10  C   UNL     1      44.956 -14.123   6.947  1.00  0.00     0.269 C 
HETATM   11  H   UNL     1      44.442 -13.914   4.965  1.00  0.00     0.279 HD
HETATM   12  C   UNL     1      42.794 -13.326   6.033  1.00  0.00     0.269 C 
ENDBRANCH   8   9
ENDBRANCH   7   8
BRANCH   7  13
HETATM   13  C   UNL     1      43.704 -17.520   3.825  1.00  0.00    -0.034 A 
HETATM   14  C   UNL     1      44.149 -18.360   4.859  1.00  0.00     0.009 A 
HETATM   15  C   UNL     1      44.469 -19.695   4.608  1.00  0.00     0.001 A 
HETATM   16  C   UNL     1      44.355 -20.211   3.320  1.00  0.00     0.000 A 
HETATM   17  C   UNL     1      43.917 -19.393   2.282  1.00  0.00     0.001 A 
HETATM   18  C   UNL     1      43.591 -18.059   2.531  1.00  0.00     0.009 A 
ENDBRANCH   7  13
ENDBRANCH   1   7
BRANCH   3  19
HETATM   19  C   UNL     1      39.737 -14.623   2.389  1.00  0.00     0.175 A 
HETATM   20  S   UNL     1      39.436 -12.954   2.509  1.00  0.00    -0.061 SA
HETATM   21  C   UNL     1      39.455 -12.852   0.794  1.00  0.00     0.086 A 
HETATM   22  C   UNL     1      39.673 -14.106   0.252  1.00  0.00     0.078 A 
HETATM   23  N   UNL     1      39.845 -15.125   1.184  1.00  0.00    -0.223 NA
BRANCH  22  24
HETATM   24  C   UNL     1      39.687 -14.392  -1.173  1.00  0.00     0.011 A 
HETATM   25  C   UNL     1      40.775 -15.055  -1.732  1.00  0.00     0.130 A 
HETATM   26  N   UNL     1      40.903 -15.365  -3.044  1.00  0.00    -0.272 NA
HETATM   27  C   UNL     1      39.878 -15.002  -3.846  1.00  0.00     0.116 A 
HETATM   28  C   UNL     1      38.746 -14.341  -3.393  1.00  0.00     0.020 A 
HETATM   29  C   UNL     1      38.652 -14.029  -2.036  1.00  0.00     0.017 A 
ENDBRANCH  22  24
ENDBRANCH   3  19
TORSDOF 6
ENDMDL
MODEL 6
REMARK VINA RESULT:      -6.9      2.899      3.915
REMARK  6 active torsions:
REMARK  status: ('A' for Active; 'I' for Inactive)
REMARK    1  A    between atoms: N_2  and  C_4 
REMARK    2  A    between atoms: C_4  and  C_5 
REMARK    3  A    between atoms: C_5  and  N_6 
REMARK    4  A    between atoms: C_5  and  C_21 
REMARK       I    between atoms: N_6  and  C_7 
REMARK       I    between atoms: C_7  and  N_8 
REMARK    5  A    between atoms: N_8  and  C_9 
REMARK    6  A    between atoms: C_12  and  C_13 
ROOT
HETATM    1  N   UNL     1      42.181 -15.761   1.530  1.00  0.00    -0.333 N 
HETATM    2  C   UNL     1      40.904 -16.187   1.308  1.00  0.00     0.322 C 
HETATM    3  N   UNL     1      40.243 -15.675   0.239  1.00  0.00    -0.287 N 
HETATM    4  O   UNL     1      40.371 -17.023   2.034  1.00  0.00    -0.247 OA
HETATM    5  H   UNL     1      42.383 -14.857   1.108  1.00  0.00     0.165 HD
HETATM    6  H   UNL     1      39.274 -15.946   0.133  1.00  0.00     0.172 HD
ENDROOT
BRANCH   1   7
HETATM    7  C   UNL     1      42.874 -16.101   2.766  1.00  0.00     0.145 C 
BRANCH   7   8
HETATM    8  C   UNL     1      42.046 -15.797   4.058  1.00  0.00     0.263 C 
BRANCH   8   9
HETATM    9  N   UNL     1      42.627 -14.671   4.924  1.00  0.00    -0.076 N 
HETATM   10  C   UNL     1      43.657 -13.839   4.214  1.00  0.00     0.269 C 
HETATM   11  H   UNL     1      41.846 -14.047   5.171  1.00  0.00     0.279 HD
HETATM   12  C   UNL     1      43.167 -15.213   6.218  1.00  0.00     0.269 C 
ENDBRANCH   8   9
ENDBRANCH   7   8
BRANCH   7  13
HETATM   13  C   UNL     1      43.374 -17.541   2.781  1.00  0.00    -0.034 A 
HETATM   14  C   UNL     1      43.543 -18.297   1.610  1.00  0.00     0.009 A 
HETATM   15  C   UNL     1      43.964 -19.626   1.671  1.00  0.00     0.001 A 
HETATM   16  C   UNL     1      44.217 -20.223   2.904  1.00  0.00     0.000 A 
HETATM   17  C   UNL     1      44.054 -19.489   4.076  1.00  0.00     0.001 A 
HETATM   18  C   UNL     1      43.638 -18.159   4.017  1.00  0.00     0.009 A 
ENDBRANCH   7  13
ENDBRANCH   1   7
BRANCH   3  19
HETATM   19  C   UNL     1      40.775 -14.857  -0.714  1.00  0.00     0.175 A 
HETATM   20  S   UNL     1      40.885 -15.536  -2.270  1.00  0.00    -0.061 SA
HETATM   21  C   UNL     1      41.579 -14.068  -2.834  1.00  0.00     0.086 A 
HETATM   22  C   UNL     1      41.692 -13.170  -1.789  1.00  0.00     0.078 A 
HETATM   23  N   UNL     1      41.215 -13.632  -0.566  1.00  0.00    -0.223 NA
BRANCH  22  24
HETATM   24  C   UNL     1      42.295 -11.853  -1.902  1.00  0.00     0.011 A 
HETATM   25  C   UNL     1      43.051 -11.348  -0.848  1.00  0.00     0.130 A 
HETATM   26  N   UNL     1      43.650 -10.134  -0.837  1.00  0.00    -0.272 NA
HETATM   27  C   UNL     1      43.496  -9.381  -1.948  1.00  0.00     0.116 A 
HETATM   28  C   UNL     1      42.766  -9.787  -3.055  1.00  0.00     0.020 A 
HETATM   29  C   UNL     1      42.155 -11.041  -3.029  1.00  0.00     0.017 A 
ENDBRANCH  22  24
ENDBRANCH   3  19
TORSDOF 6
ENDMDL
MODEL 7
REMARK VINA RESULT:      -6.9      2.773      7.756
REMARK  6 active torsions:
REMARK  status: ('A' for Active; 'I' for Inactive)
REMARK    1  A    between atoms: N_2  and  C_4 
REMARK    2  A    between atoms: C_4  and  C_5 
REMARK    3  A    between atoms: C_5  and  N_6 
REMARK    4  A    between atoms: C_5  and  C_21 
REMARK       I    between atoms: N_6  and  C_7 
REMARK       I    between atoms: C_7  and  N_8 
REMARK    5  A    between atoms: N_8  and  C_9 
REMARK    6  A    between atoms: C_12  and  C_13 
ROOT
HETATM    1  N   UNL     1      40.199 -14.673  -0.296  1.00  0.00    -0.333 N 
HETATM    2  C   UNL     1      38.990 -14.536   0.320  1.00  0.00     0.322 C 
HETATM    3  N   UNL     1      38.852 -15.051   1.568  1.00  0.00    -0.287 N 
HETATM    4  O   UNL     1      38.057 -13.948  -0.221  1.00  0.00    -0.247 OA
HETATM    5  H   UNL     1      40.754 -15.444   0.073  1.00  0.00     0.165 HD
HETATM    6  H   UNL     1      37.929 -15.005   1.978  1.00  0.00     0.172 HD
ENDROOT
BRANCH   1   7
HETATM    7  C   UNL     1      40.359 -14.338  -1.704  1.00  0.00     0.145 C 
BRANCH   7   8
HETATM    8  C   UNL     1      39.007 -14.093  -2.452  1.00  0.00     0.263 C 
BRANCH   8   9
HETATM    9  N   UNL     1      38.382 -15.362  -3.048  1.00  0.00    -0.076 N 
HETATM   10  C   UNL     1      39.337 -16.163  -3.888  1.00  0.00     0.269 C 
HETATM   11  H   UNL     1      38.095 -15.957  -2.258  1.00  0.00     0.279 HD
HETATM   12  C   UNL     1      37.130 -15.036  -3.813  1.00  0.00     0.269 C 
ENDBRANCH   8   9
ENDBRANCH   7   8
BRANCH   7  13
HETATM   13  C   UNL     1      41.308 -13.166  -1.924  1.00  0.00    -0.034 A 
HETATM   14  C   UNL     1      41.925 -12.481  -0.865  1.00  0.00     0.009 A 
HETATM   15  C   UNL     1      42.756 -11.386  -1.108  1.00  0.00     0.001 A 
HETATM   16  C   UNL     1      42.978 -10.954  -2.413  1.00  0.00     0.000 A 
HETATM   17  C   UNL     1      42.374 -11.620  -3.477  1.00  0.00     0.001 A 
HETATM   18  C   UNL     1      41.547 -12.718  -3.236  1.00  0.00     0.009 A 
ENDBRANCH   7  13
ENDBRANCH   1   7
BRANCH   3  19
HETATM   19  C   UNL     1      39.850 -15.595   2.324  1.00  0.00     0.175 A 
HETATM   20  S   UNL     1      40.230 -14.737   3.743  1.00  0.00    -0.061 SA
HETATM   21  C   UNL     1      41.437 -15.908   4.097  1.00  0.00     0.086 A 
HETATM   22  C   UNL     1      41.475 -16.861   3.096  1.00  0.00     0.078 A 
HETATM   23  N   UNL     1      40.546 -16.677   2.077  1.00  0.00    -0.223 NA
BRANCH  22  24
HETATM   24  C   UNL     1      42.423 -17.961   3.047  1.00  0.00     0.011 A 
HETATM   25  C   UNL     1      43.132 -18.310   4.193  1.00  0.00     0.130 A 
HETATM   26  N   UNL     1      44.046 -19.307   4.264  1.00  0.00    -0.272 NA
HETATM   27  C   UNL     1      44.258 -20.007   3.128  1.00  0.00     0.116 A 
HETATM   28  C   UNL     1      43.604 -19.745   1.933  1.00  0.00     0.020 A 
HETATM   29  C   UNL     1      42.675 -18.704   1.893  1.00  0.00     0.017 A 
ENDBRANCH  22  24
ENDBRANCH   3  19
TORSDOF 6
ENDMDL
MODEL 8
REMARK VINA RESULT:      -6.8      5.245      8.628
REMARK  6 active torsions:
REMARK  status: ('A' for Active; 'I' for Inactive)
REMARK    1  A    between atoms: N_2  and  C_4 
REMARK    2  A    between atoms: C_4  and  C_5 
REMARK    3  A    between atoms: C_5  and  N_6 
REMARK    4  A    between atoms: C_5  and  C_21 
REMARK       I    between atoms: N_6  and  C_7 
REMARK       I    between atoms: C_7  and  N_8 
REMARK    5  A    between atoms: N_8  and  C_9 
REMARK    6  A    between atoms: C_12  and  C_13 
ROOT
HETATM    1  N   UNL     1      44.134 -13.642   7.782  1.00  0.00    -0.333 N 
HETATM    2  C   UNL     1      45.231 -12.854   7.976  1.00  0.00     0.322 C 
HETATM    3  N   UNL     1      45.119 -11.814   8.840  1.00  0.00    -0.287 N 
HETATM    4  O   UNL     1      46.295 -13.084   7.407  1.00  0.00    -0.247 OA
HETATM    5  H   UNL     1      43.258 -13.176   8.011  1.00  0.00     0.165 HD
HETATM    6  H   UNL     1      45.917 -11.198   8.915  1.00  0.00     0.172 HD
ENDROOT
BRANCH   1   7
HETATM    7  C   UNL     1      44.113 -14.639   6.720  1.00  0.00     0.145 C 
BRANCH   7   8
HETATM    8  C   UNL     1      43.790 -16.086   7.220  1.00  0.00     0.263 C 
BRANCH   8   9
HETATM    9  N   UNL     1      44.027 -17.180   6.169  1.00  0.00    -0.076 N 
HETATM   10  C   UNL     1      42.811 -18.019   5.892  1.00  0.00     0.269 C 
HETATM   11  H   UNL     1      44.278 -16.705   5.291  1.00  0.00     0.279 HD
HETATM   12  C   UNL     1      45.203 -18.038   6.543  1.00  0.00     0.269 C 
ENDBRANCH   8   9
ENDBRANCH   7   8
BRANCH   7  13
HETATM   13  C   UNL     1      43.188 -14.255   5.572  1.00  0.00    -0.034 A 
HETATM   14  C   UNL     1      41.788 -14.323   5.670  1.00  0.00     0.009 A 
HETATM   15  C   UNL     1      40.978 -14.001   4.580  1.00  0.00     0.001 A 
HETATM   16  C   UNL     1      41.553 -13.610   3.374  1.00  0.00     0.000 A 
HETATM   17  C   UNL     1      42.939 -13.537   3.257  1.00  0.00     0.001 A 
HETATM   18  C   UNL     1      43.750 -13.854   4.347  1.00  0.00     0.009 A 
ENDBRANCH   7  13
ENDBRANCH   1   7
BRANCH   3  19
HETATM   19  C   UNL     1      44.042 -11.545   9.634  1.00  0.00     0.175 A 
HETATM   20  S   UNL     1      44.222 -11.981  11.268  1.00  0.00    -0.061 SA
HETATM   21  C   UNL     1      42.632 -11.402  11.572  1.00  0.00     0.086 A 
HETATM   22  C   UNL     1      42.071 -10.932  10.398  1.00  0.00     0.078 A 
HETATM   23  N   UNL     1      42.898 -11.010   9.282  1.00  0.00    -0.223 NA
BRANCH  22  24
HETATM   24  C   UNL     1      40.714 -10.428  10.284  1.00  0.00     0.011 A 
HETATM   25  C   UNL     1      39.940 -10.777   9.180  1.00  0.00     0.130 A 
HETATM   26  N   UNL     1      38.670 -10.361   8.962  1.00  0.00    -0.272 NA
HETATM   27  C   UNL     1      38.134  -9.557   9.907  1.00  0.00     0.116 A 
HETATM   28  C   UNL     1      38.814  -9.151  11.045  1.00  0.00     0.020 A 
HETATM   29  C   UNL     1      40.125  -9.592  11.233  1.00  0.00     0.017 A 
ENDBRANCH  22  24
ENDBRANCH   3  19
TORSDOF 6
ENDMDL
MODEL 9
REMARK VINA RESULT:      -6.8      2.295      7.065
REMARK  6 active torsions:
REMARK  status: ('A' for Active; 'I' for Inactive)
REMARK    1  A    between atoms: N_2  and  C_4 
REMARK    2  A    between atoms: C_4  and  C_5 
REMARK    3  A    between atoms: C_5  and  N_6 
REMARK    4  A    between atoms: C_5  and  C_21 
REMARK       I    between atoms: N_6  and  C_7 
REMARK       I    between atoms: C_7  and  N_8 
REMARK    5  A    between atoms: N_8  and  C_9 
REMARK    6  A    between atoms: C_12  and  C_13 
ROOT
HETATM    1  N   UNL     1      41.302 -14.626   1.572  1.00  0.00    -0.333 N 
HETATM    2  C   UNL     1      42.360 -13.832   1.910  1.00  0.00     0.322 C 
HETATM    3  N   UNL     1      43.241 -14.308   2.826  1.00  0.00    -0.287 N 
HETATM    4  O   UNL     1      42.528 -12.732   1.390  1.00  0.00    -0.247 OA
HETATM    5  H   UNL     1      41.076 -15.319   2.282  1.00  0.00     0.165 HD
HETATM    6  H   UNL     1      43.975 -13.677   3.118  1.00  0.00     0.172 HD
ENDROOT
BRANCH   1   7
HETATM    7  C   UNL     1      40.210 -14.104   0.762  1.00  0.00     0.145 C 
BRANCH   7   8
HETATM    8  C   UNL     1      39.725 -12.682   1.199  1.00  0.00     0.263 C 
BRANCH   8   9
HETATM    9  N   UNL     1      38.280 -12.645   1.719  1.00  0.00    -0.076 N 
HETATM   10  C   UNL     1      37.266 -13.097   0.706  1.00  0.00     0.269 C 
HETATM   11  H   UNL     1      38.229 -13.296   2.514  1.00  0.00     0.279 HD
HETATM   12  C   UNL     1      37.939 -11.284   2.257  1.00  0.00     0.269 C 
ENDBRANCH   8   9
ENDBRANCH   7   8
BRANCH   7  13
HETATM   13  C   UNL     1      40.523 -14.124  -0.729  1.00  0.00    -0.034 A 
HETATM   14  C   UNL     1      40.385 -12.991  -1.549  1.00  0.00     0.009 A 
HETATM   15  C   UNL     1      40.644 -13.063  -2.918  1.00  0.00     0.001 A 
HETATM   16  C   UNL     1      41.038 -14.269  -3.492  1.00  0.00     0.000 A 
HETATM   17  C   UNL     1      41.180 -15.403  -2.696  1.00  0.00     0.001 A 
HETATM   18  C   UNL     1      40.927 -15.332  -1.326  1.00  0.00     0.009 A 
ENDBRANCH   7  13
ENDBRANCH   1   7
BRANCH   3  19
HETATM   19  C   UNL     1      43.240 -15.563   3.362  1.00  0.00     0.175 A 
HETATM   20  S   UNL     1      42.842 -15.643   5.013  1.00  0.00    -0.061 SA
HETATM   21  C   UNL     1      43.043 -17.349   4.953  1.00  0.00     0.086 A 
HETATM   22  C   UNL     1      43.418 -17.733   3.678  1.00  0.00     0.078 A 
HETATM   23  N   UNL     1      43.520 -16.692   2.760  1.00  0.00    -0.223 NA
BRANCH  22  24
HETATM   24  C   UNL     1      43.732 -19.098   3.293  1.00  0.00     0.011 A 
HETATM   25  C   UNL     1      44.503 -19.892   4.137  1.00  0.00     0.130 A 
HETATM   26  N   UNL     1      44.867 -21.170   3.880  1.00  0.00    -0.272 NA
HETATM   27  C   UNL     1      44.425 -21.695   2.715  1.00  0.00     0.116 A 
HETATM   28  C   UNL     1      43.649 -20.994   1.804  1.00  0.00     0.020 A 
HETATM   29  C   UNL     1      43.300 -19.675   2.098  1.00  0.00     0.017 A 
ENDBRANCH  22  24
ENDBRANCH   3  19
TORSDOF 6
ENDMDL
MODEL 10
REMARK VINA RESULT:      -6.6      4.824      9.542
REMARK  6 active torsions:
REMARK  status: ('A' for Active; 'I' for Inactive)
REMARK    1  A    between atoms: N_2  and  C_4 
REMARK    2  A    between atoms: C_4  and  C_5 
REMARK    3  A    between atoms: C_5  and  N_6 
REMARK    4  A    between atoms: C_5  and  C_21 
REMARK       I    between atoms: N_6  and  C_7 
REMARK       I    between atoms: C_7  and  N_8 
REMARK    5  A    between atoms: N_8  and  C_9 
REMARK    6  A    between atoms: C_12  and  C_13 
ROOT
HETATM    1  N   UNL     1      42.723 -13.677   6.458  1.00  0.00    -0.333 N 
HETATM    2  C   UNL     1      43.827 -14.477   6.398  1.00  0.00     0.322 C 
HETATM    3  N   UNL     1      44.910 -14.118   7.133  1.00  0.00    -0.287 N 
HETATM    4  O   UNL     1      43.840 -15.502   5.721  1.00  0.00    -0.247 OA
HETATM    5  H   UNL     1      42.932 -12.723   6.747  1.00  0.00     0.165 HD
HETATM    6  H   UNL     1      45.741 -14.682   7.019  1.00  0.00     0.172 HD
ENDROOT
BRANCH   1   7
HETATM    7  C   UNL     1      41.608 -13.878   5.543  1.00  0.00     0.145 C 
BRANCH   7   8
HETATM    8  C   UNL     1      40.701 -15.098   5.912  1.00  0.00     0.263 C 
BRANCH   8   9
HETATM    9  N   UNL     1      40.650 -16.191   4.834  1.00  0.00    -0.076 N 
HETATM   10  C   UNL     1      41.188 -17.516   5.297  1.00  0.00     0.269 C 
HETATM   11  H   UNL     1      39.659 -16.330   4.592  1.00  0.00     0.279 HD
HETATM   12  C   UNL     1      41.338 -15.737   3.577  1.00  0.00     0.269 C 
ENDBRANCH   8   9
ENDBRANCH   7   8
BRANCH   7  13
HETATM   13  C   UNL     1      40.763 -12.623   5.362  1.00  0.00    -0.034 A 
HETATM   14  C   UNL     1      41.011 -11.434   6.067  1.00  0.00     0.009 A 
HETATM   15  C   UNL     1      40.187 -10.320   5.902  1.00  0.00     0.001 A 
HETATM   16  C   UNL     1      39.100 -10.377   5.035  1.00  0.00     0.000 A 
HETATM   17  C   UNL     1      38.838 -11.547   4.327  1.00  0.00     0.001 A 
HETATM   18  C   UNL     1      39.663 -12.661   4.486  1.00  0.00     0.009 A 
ENDBRANCH   7  13
ENDBRANCH   1   7
BRANCH   3  19
HETATM   19  C   UNL     1      44.965 -13.090   8.029  1.00  0.00     0.175 A 
HETATM   20  S   UNL     1      46.452 -12.268   8.095  1.00  0.00    -0.061 SA
HETATM   21  C   UNL     1      45.805 -11.245   9.314  1.00  0.00     0.086 A 
HETATM   22  C   UNL     1      44.502 -11.616   9.596  1.00  0.00     0.078 A 
HETATM   23  N   UNL     1      44.021 -12.680   8.840  1.00  0.00    -0.223 NA
BRANCH  22  24
HETATM   24  C   UNL     1      43.679 -11.000  10.622  1.00  0.00     0.011 A 
HETATM   25  C   UNL     1      42.294 -11.000  10.485  1.00  0.00     0.130 A 
HETATM   26  N   UNL     1      41.428 -10.449  11.370  1.00  0.00    -0.272 NA
HETATM   27  C   UNL     1      41.976  -9.874  12.463  1.00  0.00     0.116 A 
HETATM   28  C   UNL     1      43.342  -9.821  12.698  1.00  0.00     0.020 A 
HETATM   29  C   UNL     1      44.205 -10.391  11.762  1.00  0.00     0.017 A 
ENDBRANCH  22  24
ENDBRANCH   3  19
TORSDOF 6
ENDMDL
