MODEL 1
REMARK VINA RESULT:      -7.6      0.000      0.000
REMARK  9 active torsions:
REMARK  status: ('A' for Active; 'I' for Inactive)
REMARK    1  A    between atoms: O_2  and  C_3 
REMARK    2  A    between atoms: C_4  and  S_5 
REMARK    3  A    between atoms: S_5  and  N_6 
REMARK    4  A    between atoms: N_6  and  C_7 
REMARK    5  A    between atoms: C_7  and  C_8 
REMARK    6  A    between atoms: C_7  and  C_21 
REMARK       I    between atoms: C_8  and  N_9 
REMARK    7  A    between atoms: N_9  and  C_10 
REMARK    8  A    between atoms: C_21  and  C_22 
REMARK    9  A    between atoms: C_22  and  S_23 
ROOT
HETATM    1  C   UNL     1      42.123 -14.711   4.480  1.00  0.00     0.165 C 
ENDROOT
BRANCH   1   2
HETATM    2  N   UNL     1      42.737 -16.069   4.426  1.00  0.00    -0.202 NA
HETATM    3  H   UNL     1      43.622 -16.079   3.899  1.00  0.00     0.141 HD
BRANCH   2   4
HETATM    4  S   UNL     1      41.778 -17.361   3.904  1.00  0.00     0.245 S 
HETATM    5  O   UNL     1      41.134 -16.939   2.678  1.00  0.00    -0.206 OA
HETATM    6  O   UNL     1      40.997 -17.807   5.036  1.00  0.00    -0.206 OA
BRANCH   4   7
HETATM    7  C   UNL     1      42.930 -18.651   3.510  1.00  0.00     0.107 A 
HETATM    8  C   UNL     1      43.866 -19.086   4.458  1.00  0.00     0.091 A 
HETATM    9  C   UNL     1      44.725 -20.137   4.114  1.00  0.00     0.038 A 
HETATM   10  C   UNL     1      44.654 -20.730   2.849  1.00  0.00     0.003 A 
HETATM   11  C   UNL     1      43.724 -20.283   1.914  1.00  0.00     0.002 A 
HETATM   12  C   UNL     1      42.859 -19.243   2.242  1.00  0.00     0.028 A 
BRANCH   8  13
HETATM   13  O   UNL     1      43.883 -18.445   5.668  1.00  0.00    -0.354 OA
HETATM   14  C   UNL     1      45.151 -18.234   6.281  1.00  0.00     0.210 C 
ENDBRANCH   8  13
ENDBRANCH   4   7
ENDBRANCH   2   4
ENDBRANCH   1   2
BRANCH   1  15
HETATM   15  C   UNL     1      42.566 -13.901   3.258  1.00  0.00     0.254 C 
HETATM   16  N   UNL     1      41.640 -13.839   2.241  1.00  0.00    -0.156 N 
HETATM   17  H   UNL     1      40.693 -14.194   2.346  1.00  0.00     0.187 HD
HETATM   18  O   UNL     1      43.663 -13.339   3.226  1.00  0.00    -0.271 OA
BRANCH  16  19
HETATM   19  C   UNL     1      41.896 -13.181   1.065  1.00  0.00     0.708 A 
HETATM   20  N   UNL     1      41.797 -13.715  -0.128  1.00  0.00    -0.062 NA
HETATM   21  C   UNL     1      42.130 -12.708  -1.006  1.00  0.00     0.103 A 
HETATM   22  C   UNL     1      42.479 -11.547  -0.324  1.00  0.00     0.078 A 
HETATM   23  C   UNL     1      42.160 -12.708  -2.409  1.00  0.00     0.034 A 
HETATM   24  N   UNL     1      42.303 -11.873   0.994  1.00  0.00    -0.188 N 
HETATM   25  C   UNL     1      42.893 -10.374  -0.958  1.00  0.00     0.032 A 
HETATM   26  H   UNL     1      42.434 -11.274   1.798  1.00  0.00     0.184 HD
HETATM   27  C   UNL     1      42.926 -10.398  -2.356  1.00  0.00     0.002 A 
HETATM   28  C   UNL     1      42.558 -11.541  -3.072  1.00  0.00     0.002 A 
ENDBRANCH  16  19
ENDBRANCH   1  15
BRANCH   1  29
HETATM   29  C   UNL     1      42.614 -14.066   5.788  1.00  0.00     0.040 C 
BRANCH  29  30
HETATM   30  C   UNL     1      43.707 -14.811   6.556  1.00  0.00     0.075 C 
BRANCH  30  31
HETATM   31  S   UNL     1      45.230 -13.856   6.851  1.00  0.00    -0.173 SA
HETATM   32  C   UNL     1      44.720 -12.917   8.317  1.00  0.00     0.089 C 
ENDBRANCH  30  31
ENDBRANCH  29  30
ENDBRANCH   1  29
TORSDOF 9
ENDMDL
MODEL 2
REMARK VINA RESULT:      -7.6      3.383      6.880
REMARK  9 active torsions:
REMARK  status: ('A' for Active; 'I' for Inactive)
REMARK    1  A    between atoms: O_2  and  C_3 
REMARK    2  A    between atoms: C_4  and  S_5 
REMARK    3  A    between atoms: S_5  and  N_6 
REMARK    4  A    between atoms: N_6  and  C_7 
REMARK    5  A    between atoms: C_7  and  C_8 
REMARK    6  A    between atoms: C_7  and  C_21 
REMARK       I    between atoms: C_8  and  N_9 
REMARK    7  A    between atoms: N_9  and  C_10 
REMARK    8  A    between atoms: C_21  and  C_22 
REMARK    9  A    between atoms: C_22  and  S_23 
ROOT
HETATM    1  C   UNL     1      43.630 -14.753   4.692  1.00  0.00     0.165 C 
ENDROOT
BRANCH   1   2
HETATM    2  N   UNL     1      42.767 -15.961   4.843  1.00  0.00    -0.202 NA
HETATM    3  H   UNL     1      41.814 -15.726   5.154  1.00  0.00     0.141 HD
BRANCH   2   4
HETATM    4  S   UNL     1      43.346 -17.246   5.779  1.00  0.00     0.245 S 
HETATM    5  O   UNL     1      42.218 -17.764   6.523  1.00  0.00    -0.206 OA
HETATM    6  O   UNL     1      44.536 -16.785   6.460  1.00  0.00    -0.206 OA
BRANCH   4   7
HETATM    7  C   UNL     1      43.846 -18.474   4.602  1.00  0.00     0.107 A 
HETATM    8  C   UNL     1      44.319 -19.723   5.030  1.00  0.00     0.091 A 
HETATM    9  C   UNL     1      44.660 -20.674   4.062  1.00  0.00     0.038 A 
HETATM   10  C   UNL     1      44.540 -20.380   2.700  1.00  0.00     0.003 A 
HETATM   11  C   UNL     1      44.077 -19.133   2.288  1.00  0.00     0.002 A 
HETATM   12  C   UNL     1      43.727 -18.177   3.238  1.00  0.00     0.028 A 
BRANCH   8  13
HETATM   13  O   UNL     1      44.421 -19.929   6.380  1.00  0.00    -0.354 OA
HETATM   14  C   UNL     1      43.698 -21.023   6.934  1.00  0.00     0.210 C 
ENDBRANCH   8  13
ENDBRANCH   4   7
ENDBRANCH   2   4
ENDBRANCH   1   2
BRANCH   1  15
HETATM   15  C   UNL     1      43.329 -13.767   5.825  1.00  0.00     0.254 C 
HETATM   16  N   UNL     1      44.305 -13.684   6.792  1.00  0.00    -0.156 N 
HETATM   17  H   UNL     1      45.207 -14.145   6.695  1.00  0.00     0.187 HD
HETATM   18  O   UNL     1      42.295 -13.094   5.831  1.00  0.00    -0.271 OA
BRANCH  16  19
HETATM   19  C   UNL     1      44.174 -12.873   7.890  1.00  0.00     0.708 A 
HETATM   20  N   UNL     1      44.923 -12.939   8.963  1.00  0.00    -0.062 NA
HETATM   21  C   UNL     1      44.455 -11.946   9.796  1.00  0.00     0.103 A 
HETATM   22  C   UNL     1      43.368 -11.290   9.227  1.00  0.00     0.078 A 
HETATM   23  C   UNL     1      44.908 -11.543  11.061  1.00  0.00     0.034 A 
HETATM   24  N   UNL     1      43.224 -11.890   8.005  1.00  0.00    -0.188 N 
HETATM   25  C   UNL     1      42.671 -10.260   9.860  1.00  0.00     0.032 A 
HETATM   26  H   UNL     1      42.549 -11.665   7.286  1.00  0.00     0.184 HD
HETATM   27  C   UNL     1      43.131  -9.880  11.125  1.00  0.00     0.002 A 
HETATM   28  C   UNL     1      44.235 -10.502  11.714  1.00  0.00     0.002 A 
ENDBRANCH  16  19
ENDBRANCH   1  15
BRANCH   1  29
HETATM   29  C   UNL     1      43.292 -14.148   3.318  1.00  0.00     0.040 C 
BRANCH  29  30
HETATM   30  C   UNL     1      41.926 -14.501   2.727  1.00  0.00     0.075 C 
BRANCH  30  31
HETATM   31  S   UNL     1      41.980 -15.503   1.207  1.00  0.00    -0.173 SA
HETATM   32  C   UNL     1      40.714 -16.738   1.611  1.00  0.00     0.089 C 
ENDBRANCH  30  31
ENDBRANCH  29  30
ENDBRANCH   1  29
TORSDOF 9
ENDMDL
MODEL 3
REMARK VINA RESULT:      -7.5      1.595      2.361
REMARK  9 active torsions:
REMARK  status: ('A' for Active; 'I' for Inactive)
REMARK    1  A    between atoms: O_2  and  C_3 
REMARK    2  A    between atoms: C_4  and  S_5 
REMARK    3  A    between atoms: S_5  and  N_6 
REMARK    4  A    between atoms: N_6  and  C_7 
REMARK    5  A    between atoms: C_7  and  C_8 
REMARK    6  A    between atoms: C_7  and  C_21 
REMARK       I    between atoms: C_8  and  N_9 
REMARK    7  A    between atoms: N_9  and  C_10 
REMARK    8  A    between atoms: C_21  and  C_22 
REMARK    9  A    between atoms: C_22  and  S_23 
ROOT
HETATM    1  C   UNL     1      42.602 -14.811   4.945  1.00  0.00     0.165 C 
ENDROOT
BRANCH   1   2
HETATM    2  N   UNL     1      43.390 -16.048   5.217  1.00  0.00    -0.202 NA
HETATM    3  H   UNL     1      43.960 -16.337   4.410  1.00  0.00     0.141 HD
BRANCH   2   4
HETATM    4  S   UNL     1      42.573 -17.402   5.819  1.00  0.00     0.245 S 
HETATM    5  O   UNL     1      41.242 -17.377   5.251  1.00  0.00    -0.206 OA
HETATM    6  O   UNL     1      42.769 -17.425   7.252  1.00  0.00    -0.206 OA
BRANCH   4   7
HETATM    7  C   UNL     1      43.440 -18.792   5.140  1.00  0.00     0.107 A 
HETATM    8  C   UNL     1      43.769 -18.833   3.778  1.00  0.00     0.091 A 
HETATM    9  C   UNL     1      44.492 -19.932   3.300  1.00  0.00     0.038 A 
HETATM   10  C   UNL     1      44.867 -20.968   4.160  1.00  0.00     0.003 A 
HETATM   11  C   UNL     1      44.528 -20.919   5.510  1.00  0.00     0.002 A 
HETATM   12  C   UNL     1      43.813 -19.830   6.004  1.00  0.00     0.028 A 
BRANCH   8  13
HETATM   13  O   UNL     1      43.353 -17.788   2.997  1.00  0.00    -0.354 OA
HETATM   14  C   UNL     1      44.103 -17.509   1.819  1.00  0.00     0.210 C 
ENDBRANCH   8  13
ENDBRANCH   4   7
ENDBRANCH   2   4
ENDBRANCH   1   2
BRANCH   1  15
HETATM   15  C   UNL     1      42.674 -14.479   3.452  1.00  0.00     0.254 C 
HETATM   16  N   UNL     1      41.648 -14.997   2.695  1.00  0.00    -0.156 N 
HETATM   17  H   UNL     1      40.842 -15.455   3.113  1.00  0.00     0.187 HD
HETATM   18  O   UNL     1      43.581 -13.778   2.995  1.00  0.00    -0.271 OA
BRANCH  16  19
HETATM   19  C   UNL     1      41.584 -14.819   1.337  1.00  0.00     0.708 A 
HETATM   20  N   UNL     1      41.233 -15.742   0.476  1.00  0.00    -0.062 NA
HETATM   21  C   UNL     1      41.298 -15.134  -0.758  1.00  0.00     0.103 A 
HETATM   22  C   UNL     1      41.740 -13.820  -0.644  1.00  0.00     0.078 A 
HETATM   23  C   UNL     1      40.995 -15.642  -2.030  1.00  0.00     0.034 A 
HETATM   24  N   UNL     1      41.897 -13.642   0.704  1.00  0.00    -0.188 N 
HETATM   25  C   UNL     1      41.932 -12.973  -1.736  1.00  0.00     0.032 A 
HETATM   26  H   UNL     1      42.184 -12.799   1.184  1.00  0.00     0.184 HD
HETATM   27  C   UNL     1      41.635 -13.501  -2.997  1.00  0.00     0.002 A 
HETATM   28  C   UNL     1      41.166 -14.810  -3.144  1.00  0.00     0.002 A 
ENDBRANCH  16  19
ENDBRANCH   1  15
BRANCH   1  29
HETATM   29  C   UNL     1      43.234 -13.698   5.798  1.00  0.00     0.040 C 
BRANCH  29  30
HETATM   30  C   UNL     1      44.531 -14.044   6.531  1.00  0.00     0.075 C 
BRANCH  30  31
HETATM   31  S   UNL     1      44.802 -13.138   8.088  1.00  0.00    -0.173 SA
HETATM   32  C   UNL     1      46.477 -12.510   7.786  1.00  0.00     0.089 C 
ENDBRANCH  30  31
ENDBRANCH  29  30
ENDBRANCH   1  29
TORSDOF 9
ENDMDL
MODEL 4
REMARK VINA RESULT:      -7.4      1.958      2.293
REMARK  9 active torsions:
REMARK  status: ('A' for Active; 'I' for Inactive)
REMARK    1  A    between atoms: O_2  and  C_3 
REMARK    2  A    between atoms: C_4  and  S_5 
REMARK    3  A    between atoms: S_5  and  N_6 
REMARK    4  A    between atoms: N_6  and  C_7 
REMARK    5  A    between atoms: C_7  and  C_8 
REMARK    6  A    between atoms: C_7  and  C_21 
REMARK       I    between atoms: C_8  and  N_9 
REMARK    7  A    between atoms: N_9  and  C_10 
REMARK    8  A    between atoms: C_21  and  C_22 
REMARK    9  A    between atoms: C_22  and  S_23 
ROOT
HETATM    1  C   UNL     1      41.171 -16.400   3.243  1.00  0.00     0.165 C 
ENDROOT
BRANCH   1   2
HETATM    2  N   UNL     1      42.393 -17.240   3.406  1.00  0.00    -0.202 NA
HETATM    3  H   UNL     1      43.155 -16.737   3.883  1.00  0.00     0.141 HD
BRANCH   2   4
HETATM    4  S   UNL     1      43.023 -18.012   2.039  1.00  0.00     0.245 S 
HETATM    5  O   UNL     1      44.112 -17.189   1.556  1.00  0.00    -0.206 OA
HETATM    6  O   UNL     1      41.910 -18.348   1.179  1.00  0.00    -0.206 OA
BRANCH   4   7
HETATM    7  C   UNL     1      43.703 -19.531   2.649  1.00  0.00     0.107 A 
HETATM    8  C   UNL     1      44.333 -19.580   3.901  1.00  0.00     0.091 A 
HETATM    9  C   UNL     1      44.814 -20.813   4.357  1.00  0.00     0.038 A 
HETATM   10  C   UNL     1      44.678 -21.965   3.576  1.00  0.00     0.003 A 
HETATM   11  C   UNL     1      44.057 -21.901   2.332  1.00  0.00     0.002 A 
HETATM   12  C   UNL     1      43.567 -20.684   1.864  1.00  0.00     0.028 A 
BRANCH   8  13
HETATM   13  O   UNL     1      44.441 -18.407   4.598  1.00  0.00    -0.354 OA
HETATM   14  C   UNL     1      44.947 -18.478   5.928  1.00  0.00     0.210 C 
ENDBRANCH   8  13
ENDBRANCH   4   7
ENDBRANCH   2   4
ENDBRANCH   1   2
BRANCH   1  15
HETATM   15  C   UNL     1      41.391 -15.394   2.110  1.00  0.00     0.254 C 
HETATM   16  N   UNL     1      40.613 -15.603   0.993  1.00  0.00    -0.156 N 
HETATM   17  H   UNL     1      39.865 -16.292   0.974  1.00  0.00     0.187 HD
HETATM   18  O   UNL     1      42.193 -14.464   2.225  1.00  0.00    -0.271 OA
BRANCH  16  19
HETATM   19  C   UNL     1      40.714 -14.811  -0.122  1.00  0.00     0.708 A 
HETATM   20  N   UNL     1      39.697 -14.296  -0.768  1.00  0.00    -0.062 NA
HETATM   21  C   UNL     1      40.250 -13.572  -1.801  1.00  0.00     0.103 A 
HETATM   22  C   UNL     1      41.637 -13.686  -1.802  1.00  0.00     0.078 A 
HETATM   23  C   UNL     1      39.630 -12.788  -2.785  1.00  0.00     0.034 A 
HETATM   24  N   UNL     1      41.904 -14.466  -0.710  1.00  0.00    -0.188 N 
HETATM   25  C   UNL     1      42.459 -13.083  -2.756  1.00  0.00     0.032 A 
HETATM   26  H   UNL     1      42.811 -14.751  -0.365  1.00  0.00     0.184 HD
HETATM   27  C   UNL     1      41.821 -12.315  -3.735  1.00  0.00     0.002 A 
HETATM   28  C   UNL     1      40.432 -12.160  -3.747  1.00  0.00     0.002 A 
ENDBRANCH  16  19
ENDBRANCH   1  15
BRANCH   1  29
HETATM   29  C   UNL     1      40.952 -15.689   4.589  1.00  0.00     0.040 C 
BRANCH  29  30
HETATM   30  C   UNL     1      42.084 -15.788   5.613  1.00  0.00     0.075 C 
BRANCH  30  31
HETATM   31  S   UNL     1      43.119 -14.296   5.765  1.00  0.00    -0.173 SA
HETATM   32  C   UNL     1      44.309 -14.877   7.006  1.00  0.00     0.089 C 
ENDBRANCH  30  31
ENDBRANCH  29  30
ENDBRANCH   1  29
TORSDOF 9
ENDMDL
MODEL 5
REMARK VINA RESULT:      -7.4      2.561      7.015
REMARK  9 active torsions:
REMARK  status: ('A' for Active; 'I' for Inactive)
REMARK    1  A    between atoms: O_2  and  C_3 
REMARK    2  A    between atoms: C_4  and  S_5 
REMARK    3  A    between atoms: S_5  and  N_6 
REMARK    4  A    between atoms: N_6  and  C_7 
REMARK    5  A    between atoms: C_7  and  C_8 
REMARK    6  A    between atoms: C_7  and  C_21 
REMARK       I    between atoms: C_8  and  N_9 
REMARK    7  A    between atoms: N_9  and  C_10 
REMARK    8  A    between atoms: C_21  and  C_22 
REMARK    9  A    between atoms: C_22  and  S_23 
ROOT
HETATM    1  C   UNL     1      41.401 -14.525   2.460  1.00  0.00     0.165 C 
ENDROOT
BRANCH   1   2
HETATM    2  N   UNL     1      42.091 -13.803   3.568  1.00  0.00    -0.202 NA
HETATM    3  H   UNL     1      43.077 -14.083   3.665  1.00  0.00     0.141 HD
BRANCH   2   4
HETATM    4  S   UNL     1      41.370 -13.809   5.099  1.00  0.00     0.245 S 
HETATM    5  O   UNL     1      39.966 -14.101   4.901  1.00  0.00    -0.206 OA
HETATM    6  O   UNL     1      41.788 -12.604   5.780  1.00  0.00    -0.206 OA
BRANCH   4   7
HETATM    7  C   UNL     1      42.110 -15.182   5.942  1.00  0.00     0.107 A 
HETATM    8  C   UNL     1      43.472 -15.167   6.274  1.00  0.00     0.091 A 
HETATM    9  C   UNL     1      43.998 -16.256   6.979  1.00  0.00     0.038 A 
HETATM   10  C   UNL     1      43.184 -17.336   7.334  1.00  0.00     0.003 A 
HETATM   11  C   UNL     1      41.835 -17.342   6.992  1.00  0.00     0.002 A 
HETATM   12  C   UNL     1      41.293 -16.265   6.296  1.00  0.00     0.028 A 
BRANCH   8  13
HETATM   13  O   UNL     1      44.205 -14.081   5.878  1.00  0.00    -0.354 OA
HETATM   14  C   UNL     1      45.309 -13.701   6.694  1.00  0.00     0.210 C 
ENDBRANCH   8  13
ENDBRANCH   4   7
ENDBRANCH   2   4
ENDBRANCH   1   2
BRANCH   1  15
HETATM   15  C   UNL     1      41.641 -16.030   2.604  1.00  0.00     0.254 C 
HETATM   16  N   UNL     1      42.958 -16.389   2.785  1.00  0.00    -0.156 N 
HETATM   17  H   UNL     1      43.692 -15.702   2.937  1.00  0.00     0.187 HD
HETATM   18  O   UNL     1      40.706 -16.833   2.580  1.00  0.00    -0.271 OA
BRANCH  16  19
HETATM   19  C   UNL     1      43.345 -17.700   2.897  1.00  0.00     0.708 A 
HETATM   20  N   UNL     1      43.987 -18.206   3.921  1.00  0.00    -0.062 NA
HETATM   21  C   UNL     1      44.159 -19.539   3.621  1.00  0.00     0.103 A 
HETATM   22  C   UNL     1      43.644 -19.837   2.363  1.00  0.00     0.078 A 
HETATM   23  C   UNL     1      44.751 -20.564   4.374  1.00  0.00     0.034 A 
HETATM   24  N   UNL     1      43.115 -18.650   1.933  1.00  0.00    -0.188 N 
HETATM   25  C   UNL     1      43.708 -21.106   1.784  1.00  0.00     0.032 A 
HETATM   26  H   UNL     1      42.627 -18.473   1.066  1.00  0.00     0.184 HD
HETATM   27  C   UNL     1      44.311 -22.111   2.547  1.00  0.00     0.002 A 
HETATM   28  C   UNL     1      44.817 -21.850   3.824  1.00  0.00     0.002 A 
ENDBRANCH  16  19
ENDBRANCH   1  15
BRANCH   1  29
HETATM   29  C   UNL     1      42.002 -13.984   1.151  1.00  0.00     0.040 C 
BRANCH  29  30
HETATM   30  C   UNL     1      41.645 -14.734  -0.133  1.00  0.00     0.075 C 
BRANCH  30  31
HETATM   31  S   UNL     1      40.150 -14.135  -0.985  1.00  0.00    -0.173 SA
HETATM   32  C   UNL     1      40.618 -14.486  -2.702  1.00  0.00     0.089 C 
ENDBRANCH  30  31
ENDBRANCH  29  30
ENDBRANCH   1  29
TORSDOF 9
ENDMDL
MODEL 6
REMARK VINA RESULT:      -7.2      2.642      3.219
REMARK  9 active torsions:
REMARK  status: ('A' for Active; 'I' for Inactive)
REMARK    1  A    between atoms: O_2  and  C_3 
REMARK    2  A    between atoms: C_4  and  S_5 
REMARK    3  A    between atoms: S_5  and  N_6 
REMARK    4  A    between atoms: N_6  and  C_7 
REMARK    5  A    between atoms: C_7  and  C_8 
REMARK    6  A    between atoms: C_7  and  C_21 
REMARK       I    between atoms: C_8  and  N_9 
REMARK    7  A    between atoms: N_9  and  C_10 
REMARK    8  A    between atoms: C_21  and  C_22 
REMARK    9  A    between atoms: C_22  and  S_23 
ROOT
HETATM    1  C   UNL     1      42.366 -15.707   3.124  1.00  0.00     0.165 C 
ENDROOT
BRANCH   1   2
HETATM    2  N   UNL     1      43.331 -16.844   3.082  1.00  0.00    -0.202 NA
HETATM    3  H   UNL     1      43.260 -17.386   2.209  1.00  0.00     0.141 HD
BRANCH   2   4
HETATM    4  S   UNL     1      43.361 -17.917   4.389  1.00  0.00     0.245 S 
HETATM    5  O   UNL     1      42.004 -18.017   4.882  1.00  0.00    -0.206 OA
HETATM    6  O   UNL     1      44.439 -17.509   5.261  1.00  0.00    -0.206 OA
BRANCH   4   7
HETATM    7  C   UNL     1      43.810 -19.480   3.682  1.00  0.00     0.107 A 
HETATM    8  C   UNL     1      44.354 -20.496   4.481  1.00  0.00     0.091 A 
HETATM    9  C   UNL     1      44.652 -21.726   3.883  1.00  0.00     0.038 A 
HETATM   10  C   UNL     1      44.420 -21.932   2.520  1.00  0.00     0.003 A 
HETATM   11  C   UNL     1      43.886 -20.913   1.736  1.00  0.00     0.002 A 
HETATM   12  C   UNL     1      43.579 -19.684   2.315  1.00  0.00     0.028 A 
BRANCH   8  13
HETATM   13  O   UNL     1      44.566 -20.212   5.803  1.00  0.00    -0.354 OA
HETATM   14  C   UNL     1      43.807 -20.943   6.761  1.00  0.00     0.210 C 
ENDBRANCH   8  13
ENDBRANCH   4   7
ENDBRANCH   2   4
ENDBRANCH   1   2
BRANCH   1  15
HETATM   15  C   UNL     1      41.376 -15.834   1.963  1.00  0.00     0.254 C 
HETATM   16  N   UNL     1      41.725 -15.137   0.828  1.00  0.00    -0.156 N 
HETATM   17  H   UNL     1      42.629 -14.680   0.728  1.00  0.00     0.187 HD
HETATM   18  O   UNL     1      40.364 -16.533   2.057  1.00  0.00    -0.271 OA
BRANCH  16  19
HETATM   19  C   UNL     1      40.929 -15.120  -0.288  1.00  0.00     0.708 A 
HETATM   20  N   UNL     1      41.196 -15.746  -1.408  1.00  0.00    -0.062 NA
HETATM   21  C   UNL     1      40.137 -15.468  -2.243  1.00  0.00     0.103 A 
HETATM   22  C   UNL     1      39.226 -14.617  -1.626  1.00  0.00     0.078 A 
HETATM   23  C   UNL     1      39.882 -15.906  -3.551  1.00  0.00     0.034 A 
HETATM   24  N   UNL     1      39.748 -14.427  -0.375  1.00  0.00    -0.188 N 
HETATM   25  C   UNL     1      38.071 -14.141  -2.249  1.00  0.00     0.032 A 
HETATM   26  H   UNL     1      39.352 -13.883   0.380  1.00  0.00     0.184 HD
HETATM   27  C   UNL     1      37.839 -14.580  -3.556  1.00  0.00     0.002 A 
HETATM   28  C   UNL     1      38.723 -15.454  -4.196  1.00  0.00     0.002 A 
ENDBRANCH  16  19
ENDBRANCH   1  15
BRANCH   1  29
HETATM   29  C   UNL     1      43.206 -14.423   3.006  1.00  0.00     0.040 C 
BRANCH  29  30
HETATM   30  C   UNL     1      43.956 -13.973   4.261  1.00  0.00     0.075 C 
BRANCH  30  31
HETATM   31  S   UNL     1      43.054 -14.210   5.826  1.00  0.00    -0.173 SA
HETATM   32  C   UNL     1      44.449 -14.196   6.986  1.00  0.00     0.089 C 
ENDBRANCH  30  31
ENDBRANCH  29  30
ENDBRANCH   1  29
TORSDOF 9
ENDMDL
MODEL 7
REMARK VINA RESULT:      -7.1      1.536      2.414
REMARK  9 active torsions:
REMARK  status: ('A' for Active; 'I' for Inactive)
REMARK    1  A    between atoms: O_2  and  C_3 
REMARK    2  A    between atoms: C_4  and  S_5 
REMARK    3  A    between atoms: S_5  and  N_6 
REMARK    4  A    between atoms: N_6  and  C_7 
REMARK    5  A    between atoms: C_7  and  C_8 
REMARK    6  A    between atoms: C_7  and  C_21 
REMARK       I    between atoms: C_8  and  N_9 
REMARK    7  A    between atoms: N_9  and  C_10 
REMARK    8  A    between atoms: C_21  and  C_22 
REMARK    9  A    between atoms: C_22  and  S_23 
ROOT
HETATM    1  C   UNL     1      41.882 -15.064   4.038  1.00  0.00     0.165 C 
ENDROOT
BRANCH   1   2
HETATM    2  N   UNL     1      42.946 -16.051   4.384  1.00  0.00    -0.202 NA
HETATM    3  H   UNL     1      43.557 -16.265   3.583  1.00  0.00     0.141 HD
BRANCH   2   4
HETATM    4  S   UNL     1      42.484 -17.502   5.119  1.00  0.00     0.245 S 
HETATM    5  O   UNL     1      41.062 -17.654   4.894  1.00  0.00    -0.206 OA
HETATM    6  O   UNL     1      43.026 -17.501   6.460  1.00  0.00    -0.206 OA
BRANCH   4   7
HETATM    7  C   UNL     1      43.329 -18.764   4.204  1.00  0.00     0.107 A 
HETATM    8  C   UNL     1      43.182 -18.857   2.813  1.00  0.00     0.091 A 
HETATM    9  C   UNL     1      43.904 -19.843   2.131  1.00  0.00     0.038 A 
HETATM   10  C   UNL     1      44.746 -20.719   2.824  1.00  0.00     0.003 A 
HETATM   11  C   UNL     1      44.878 -20.620   4.206  1.00  0.00     0.002 A 
HETATM   12  C   UNL     1      44.171 -19.642   4.901  1.00  0.00     0.028 A 
BRANCH   8  13
HETATM   13  O   UNL     1      42.328 -17.974   2.209  1.00  0.00    -0.354 OA
HETATM   14  C   UNL     1      42.755 -17.378   0.988  1.00  0.00     0.210 C 
ENDBRANCH   8  13
ENDBRANCH   4   7
ENDBRANCH   2   4
ENDBRANCH   1   2
BRANCH   1  15
HETATM   15  C   UNL     1      42.345 -14.206   2.857  1.00  0.00     0.254 C 
HETATM   16  N   UNL     1      41.467 -14.160   1.798  1.00  0.00    -0.156 N 
HETATM   17  H   UNL     1      40.533 -14.559   1.850  1.00  0.00     0.187 HD
HETATM   18  O   UNL     1      43.417 -13.596   2.890  1.00  0.00    -0.271 OA
BRANCH  16  19
HETATM   19  C   UNL     1      41.748 -13.463   0.651  1.00  0.00     0.708 A 
HETATM   20  N   UNL     1      41.726 -13.971  -0.557  1.00  0.00    -0.062 NA
HETATM   21  C   UNL     1      42.056 -12.930  -1.396  1.00  0.00     0.103 A 
HETATM   22  C   UNL     1      42.325 -11.772  -0.672  1.00  0.00     0.078 A 
HETATM   23  C   UNL     1      42.150 -12.894  -2.795  1.00  0.00     0.034 A 
HETATM   24  N   UNL     1      42.102 -12.138   0.629  1.00  0.00    -0.188 N 
HETATM   25  C   UNL     1      42.717 -10.568  -1.259  1.00  0.00     0.032 A 
HETATM   26  H   UNL     1      42.170 -11.555   1.452  1.00  0.00     0.184 HD
HETATM   27  C   UNL     1      42.815 -10.556  -2.654  1.00  0.00     0.002 A 
HETATM   28  C   UNL     1      42.528 -11.695  -3.413  1.00  0.00     0.002 A 
ENDBRANCH  16  19
ENDBRANCH   1  15
BRANCH   1  29
HETATM   29  C   UNL     1      41.659 -14.210   5.298  1.00  0.00     0.040 C 
BRANCH  29  30
HETATM   30  C   UNL     1      40.232 -14.147   5.845  1.00  0.00     0.075 C 
BRANCH  30  31
HETATM   31  S   UNL     1      39.550 -12.468   6.029  1.00  0.00    -0.173 SA
HETATM   32  C   UNL     1      40.662 -11.564   4.917  1.00  0.00     0.089 C 
ENDBRANCH  30  31
ENDBRANCH  29  30
ENDBRANCH   1  29
TORSDOF 9
ENDMDL
MODEL 8
REMARK VINA RESULT:      -7.1      4.588      8.722
REMARK  9 active torsions:
REMARK  status: ('A' for Active; 'I' for Inactive)
REMARK    1  A    between atoms: O_2  and  C_3 
REMARK    2  A    between atoms: C_4  and  S_5 
REMARK    3  A    between atoms: S_5  and  N_6 
REMARK    4  A    between atoms: N_6  and  C_7 
REMARK    5  A    between atoms: C_7  and  C_8 
REMARK    6  A    between atoms: C_7  and  C_21 
REMARK       I    between atoms: C_8  and  N_9 
REMARK    7  A    between atoms: N_9  and  C_10 
REMARK    8  A    between atoms: C_21  and  C_22 
REMARK    9  A    between atoms: C_22  and  S_23 
ROOT
HETATM    1  C   UNL     1      41.962 -11.812   6.340  1.00  0.00     0.165 C 
ENDROOT
BRANCH   1   2
HETATM    2  N   UNL     1      42.101 -13.297   6.350  1.00  0.00    -0.202 NA
HETATM    3  H   UNL     1      41.745 -13.719   7.219  1.00  0.00     0.141 HD
BRANCH   2   4
HETATM    4  S   UNL     1      43.617 -13.962   6.003  1.00  0.00     0.245 S 
HETATM    5  O   UNL     1      44.470 -13.681   7.139  1.00  0.00    -0.206 OA
HETATM    6  O   UNL     1      43.986 -13.530   4.673  1.00  0.00    -0.206 OA
BRANCH   4   7
HETATM    7  C   UNL     1      43.340 -15.712   5.937  1.00  0.00     0.107 A 
HETATM    8  C   UNL     1      42.250 -16.237   5.228  1.00  0.00     0.091 A 
HETATM    9  C   UNL     1      42.100 -17.627   5.170  1.00  0.00     0.038 A 
HETATM   10  C   UNL     1      43.012 -18.471   5.812  1.00  0.00     0.003 A 
HETATM   11  C   UNL     1      44.086 -17.937   6.519  1.00  0.00     0.002 A 
HETATM   12  C   UNL     1      44.254 -16.556   6.583  1.00  0.00     0.028 A 
BRANCH   8  13
HETATM   13  O   UNL     1      41.394 -15.346   4.640  1.00  0.00    -0.354 OA
HETATM   14  C   UNL     1      40.995 -15.607   3.298  1.00  0.00     0.210 C 
ENDBRANCH   8  13
ENDBRANCH   4   7
ENDBRANCH   2   4
ENDBRANCH   1   2
BRANCH   1  15
HETATM   15  C   UNL     1      41.705 -11.313   7.764  1.00  0.00     0.254 C 
HETATM   16  N   UNL     1      42.783 -11.414   8.614  1.00  0.00    -0.156 N 
HETATM   17  H   UNL     1      43.709 -11.679   8.288  1.00  0.00     0.187 HD
HETATM   18  O   UNL     1      40.613 -10.841   8.090  1.00  0.00    -0.271 OA
BRANCH  16  19
HETATM   19  C   UNL     1      42.707 -11.042   9.932  1.00  0.00     0.708 A 
HETATM   20  N   UNL     1      43.587 -10.293  10.551  1.00  0.00    -0.062 NA
HETATM   21  C   UNL     1      43.115 -10.165  11.838  1.00  0.00     0.103 A 
HETATM   22  C   UNL     1      41.941 -10.890  12.013  1.00  0.00     0.078 A 
HETATM   23  C   UNL     1      43.638  -9.444  12.922  1.00  0.00     0.034 A 
HETATM   24  N   UNL     1      41.695 -11.423  10.777  1.00  0.00    -0.188 N 
HETATM   25  C   UNL     1      41.257 -10.969  13.228  1.00  0.00     0.032 A 
HETATM   26  H   UNL     1      40.909 -11.996  10.500  1.00  0.00     0.184 HD
HETATM   27  C   UNL     1      41.800 -10.252  14.299  1.00  0.00     0.002 A 
HETATM   28  C   UNL     1      42.965  -9.495  14.149  1.00  0.00     0.002 A 
ENDBRANCH  16  19
ENDBRANCH   1  15
BRANCH   1  29
HETATM   29  C   UNL     1      40.776 -11.495   5.412  1.00  0.00     0.040 C 
BRANCH  29  30
HETATM   30  C   UNL     1      41.038 -11.576   3.907  1.00  0.00     0.075 C 
BRANCH  30  31
HETATM   31  S   UNL     1      39.560 -11.394   2.857  1.00  0.00    -0.173 SA
HETATM   32  C   UNL     1      38.385 -10.771   4.091  1.00  0.00     0.089 C 
ENDBRANCH  30  31
ENDBRANCH  29  30
ENDBRANCH   1  29
TORSDOF 9
ENDMDL
MODEL 9
REMARK VINA RESULT:      -7.0      2.218      7.560
REMARK  9 active torsions:
REMARK  status: ('A' for Active; 'I' for Inactive)
REMARK    1  A    between atoms: O_2  and  C_3 
REMARK    2  A    between atoms: C_4  and  S_5 
REMARK    3  A    between atoms: S_5  and  N_6 
REMARK    4  A    between atoms: N_6  and  C_7 
REMARK    5  A    between atoms: C_7  and  C_8 
REMARK    6  A    between atoms: C_7  and  C_21 
REMARK       I    between atoms: C_8  and  N_9 
REMARK    7  A    between atoms: N_9  and  C_10 
REMARK    8  A    between atoms: C_21  and  C_22 
REMARK    9  A    between atoms: C_22  and  S_23 
ROOT
HETATM    1  C   UNL     1      41.109 -14.626   3.229  1.00  0.00     0.165 C 
ENDROOT
BRANCH   1   2
HETATM    2  N   UNL     1      40.599 -14.112   1.924  1.00  0.00    -0.202 NA
HETATM    3  H   UNL     1      40.458 -14.864   1.235  1.00  0.00     0.141 HD
BRANCH   2   4
HETATM    4  S   UNL     1      41.434 -12.842   1.182  1.00  0.00     0.245 S 
HETATM    5  O   UNL     1      42.769 -12.833   1.741  1.00  0.00    -0.206 OA
HETATM    6  O   UNL     1      40.591 -11.669   1.254  1.00  0.00    -0.206 OA
BRANCH   4   7
HETATM    7  C   UNL     1      41.550 -13.311  -0.524  1.00  0.00     0.107 A 
HETATM    8  C   UNL     1      42.406 -12.625  -1.397  1.00  0.00     0.091 A 
HETATM    9  C   UNL     1      42.494 -13.062  -2.724  1.00  0.00     0.038 A 
HETATM   10  C   UNL     1      41.739 -14.151  -3.168  1.00  0.00     0.003 A 
HETATM   11  C   UNL     1      40.887 -14.819  -2.293  1.00  0.00     0.002 A 
HETATM   12  C   UNL     1      40.790 -14.402  -0.968  1.00  0.00     0.028 A 
BRANCH   8  13
HETATM   13  O   UNL     1      43.101 -11.559  -0.890  1.00  0.00    -0.354 OA
HETATM   14  C   UNL     1      43.182 -10.387  -1.694  1.00  0.00     0.210 C 
ENDBRANCH   8  13
ENDBRANCH   4   7
ENDBRANCH   2   4
ENDBRANCH   1   2
BRANCH   1  15
HETATM   15  C   UNL     1      41.425 -16.119   3.101  1.00  0.00     0.254 C 
HETATM   16  N   UNL     1      42.704 -16.472   3.467  1.00  0.00    -0.156 N 
HETATM   17  H   UNL     1      43.344 -15.814   3.905  1.00  0.00     0.187 HD
HETATM   18  O   UNL     1      40.571 -16.924   2.720  1.00  0.00    -0.271 OA
BRANCH  16  19
HETATM   19  C   UNL     1      43.155 -17.764   3.379  1.00  0.00     0.708 A 
HETATM   20  N   UNL     1      43.868 -18.372   4.295  1.00  0.00    -0.062 NA
HETATM   21  C   UNL     1      44.086 -19.640   3.805  1.00  0.00     0.103 A 
HETATM   22  C   UNL     1      43.525 -19.790   2.541  1.00  0.00     0.078 A 
HETATM   23  C   UNL     1      44.760 -20.726   4.384  1.00  0.00     0.034 A 
HETATM   24  N   UNL     1      42.923 -18.584   2.303  1.00  0.00    -0.188 N 
HETATM   25  C   UNL     1      43.618 -20.962   1.789  1.00  0.00     0.032 A 
HETATM   26  H   UNL     1      42.385 -18.314   1.490  1.00  0.00     0.184 HD
HETATM   27  C   UNL     1      44.303 -22.030   2.379  1.00  0.00     0.002 A 
HETATM   28  C   UNL     1      44.857 -21.920   3.657  1.00  0.00     0.002 A 
ENDBRANCH  16  19
ENDBRANCH   1  15
BRANCH   1  29
HETATM   29  C   UNL     1      39.994 -14.375   4.259  1.00  0.00     0.040 C 
BRANCH  29  30
HETATM   30  C   UNL     1      40.432 -13.916   5.650  1.00  0.00     0.075 C 
BRANCH  30  31
HETATM   31  S   UNL     1      41.750 -12.658   5.668  1.00  0.00    -0.173 SA
HETATM   32  C   UNL     1      43.177 -13.717   6.034  1.00  0.00     0.089 C 
ENDBRANCH  30  31
ENDBRANCH  29  30
ENDBRANCH   1  29
TORSDOF 9
ENDMDL
MODEL 10
REMARK VINA RESULT:      -7.0      2.880      7.822
REMARK  9 active torsions:
REMARK  status: ('A' for Active; 'I' for Inactive)
REMARK    1  A    between atoms: O_2  and  C_3 
REMARK    2  A    between atoms: C_4  and  S_5 
REMARK    3  A    between atoms: S_5  and  N_6 
REMARK    4  A    between atoms: N_6  and  C_7 
REMARK    5  A    between atoms: C_7  and  C_8 
REMARK    6  A    between atoms: C_7  and  C_21 
REMARK       I    between atoms: C_8  and  N_9 
REMARK    7  A    between atoms: N_9  and  C_10 
REMARK    8  A    between atoms: C_21  and  C_22 
REMARK    9  A    between atoms: C_22  and  S_23 
ROOT
HETATM    1  C   UNL     1      42.969 -14.575   3.305  1.00  0.00     0.165 C 
ENDROOT
BRANCH   1   2
HETATM    2  N   UNL     1      41.681 -14.507   2.556  1.00  0.00    -0.202 NA
HETATM    3  H   UNL     1      41.063 -15.304   2.765  1.00  0.00     0.141 HD
BRANCH   2   4
HETATM    4  S   UNL     1      41.740 -14.289   0.880  1.00  0.00     0.245 S 
HETATM    5  O   UNL     1      42.238 -15.524   0.312  1.00  0.00    -0.206 OA
HETATM    6  O   UNL     1      42.413 -13.033   0.630  1.00  0.00    -0.206 OA
BRANCH   4   7
HETATM    7  C   UNL     1      40.048 -14.094   0.388  1.00  0.00     0.107 A 
HETATM    8  C   UNL     1      39.716 -13.865  -0.955  1.00  0.00     0.091 A 
HETATM    9  C   UNL     1      38.363 -13.762  -1.299  1.00  0.00     0.038 A 
HETATM   10  C   UNL     1      37.369 -13.876  -0.323  1.00  0.00     0.003 A 
HETATM   11  C   UNL     1      37.711 -14.097   1.008  1.00  0.00     0.002 A 
HETATM   12  C   UNL     1      39.052 -14.207   1.368  1.00  0.00     0.028 A 
BRANCH   8  13
HETATM   13  O   UNL     1      40.747 -13.750  -1.848  1.00  0.00    -0.354 OA
HETATM   14  C   UNL     1      40.601 -14.400  -3.107  1.00  0.00     0.210 C 
ENDBRANCH   8  13
ENDBRANCH   4   7
ENDBRANCH   2   4
ENDBRANCH   1   2
BRANCH   1  15
HETATM   15  C   UNL     1      43.208 -16.011   3.781  1.00  0.00     0.254 C 
HETATM   16  N   UNL     1      43.699 -16.864   2.817  1.00  0.00    -0.156 N 
HETATM   17  H   UNL     1      43.998 -16.535   1.903  1.00  0.00     0.187 HD
HETATM   18  O   UNL     1      42.990 -16.344   4.948  1.00  0.00    -0.271 OA
BRANCH  16  19
HETATM   19  C   UNL     1      43.935 -18.190   3.073  1.00  0.00     0.708 A 
HETATM   20  N   UNL     1      43.835 -19.152   2.188  1.00  0.00    -0.062 NA
HETATM   21  C   UNL     1      44.166 -20.305   2.865  1.00  0.00     0.103 A 
HETATM   22  C   UNL     1      44.434 -20.038   4.204  1.00  0.00     0.078 A 
HETATM   23  C   UNL     1      44.261 -21.626   2.402  1.00  0.00     0.034 A 
HETATM   24  N   UNL     1      44.297 -18.680   4.303  1.00  0.00    -0.188 N 
HETATM   25  C   UNL     1      44.766 -21.023   5.135  1.00  0.00     0.032 A 
HETATM   26  H   UNL     1      44.438 -18.106   5.123  1.00  0.00     0.184 HD
HETATM   27  C   UNL     1      44.844 -22.335   4.657  1.00  0.00     0.002 A 
HETATM   28  C   UNL     1      44.605 -22.633   3.312  1.00  0.00     0.002 A 
ENDBRANCH  16  19
ENDBRANCH   1  15
BRANCH   1  29
HETATM   29  C   UNL     1      42.830 -13.608   4.493  1.00  0.00     0.040 C 
BRANCH  29  30
HETATM   30  C   UNL     1      41.854 -12.443   4.323  1.00  0.00     0.075 C 
BRANCH  30  31
HETATM   31  S   UNL     1      40.540 -12.347   5.581  1.00  0.00    -0.173 SA
HETATM   32  C   UNL     1      40.200 -14.115   5.801  1.00  0.00     0.089 C 
ENDBRANCH  30  31
ENDBRANCH  29  30
ENDBRANCH   1  29
TORSDOF 9
ENDMDL
