MODEL 1
REMARK VINA RESULT:      -8.4      0.000      0.000
REMARK  10 active torsions:
REMARK  status: ('A' for Active; 'I' for Inactive)
REMARK    1  A    between atoms: C_2  and  N_3 
REMARK    2  A    between atoms: N_3  and  C_4 
REMARK    3  A    between atoms: N_3  and  C_37 
REMARK    4  A    between atoms: C_7  and  C_8 
REMARK    5  A    between atoms: N_9  and  C_11 
REMARK    6  A    between atoms: C_11  and  C_12 
REMARK       I    between atoms: C_12  and  N_13 
REMARK    7  A    between atoms: N_13  and  C_14 
REMARK    8  A    between atoms: C_20  and  C_21 
REMARK    9  A    between atoms: C_21  and  O_22 
REMARK   10  A    between atoms: C_28  and  O_29 
ROOT
HETATM    1  C   UNL     1      39.860 -13.437   3.304  1.00  0.00     0.228 C 
HETATM    2  N   UNL     1      40.385 -14.420   4.352  1.00  0.00    -0.054 N 
HETATM    3  H   UNL     1      39.789 -15.236   4.171  1.00  0.00     0.281 HD
HETATM    4  C   UNL     1      40.021 -14.037   5.765  1.00  0.00     0.239 C 
HETATM    5  C   UNL     1      40.300 -12.583   6.109  1.00  0.00     0.066 C 
HETATM    6  C   UNL     1      39.735 -11.620   5.067  1.00  0.00     0.065 C 
HETATM    7  C   UNL     1      40.234 -11.978   3.650  1.00  0.00     0.055 C 
HETATM    8  C   UNL     1      40.092 -10.164   5.420  1.00  0.00     0.038 C 
HETATM    9  C   UNL     1      39.551  -9.174   4.388  1.00  0.00     0.003 C 
HETATM   10  C   UNL     1      40.001  -9.534   2.980  1.00  0.00     0.001 C 
HETATM   11  C   UNL     1      39.653 -10.976   2.622  1.00  0.00     0.010 C 
ENDROOT
BRANCH   2  12
HETATM   12  C   UNL     1      41.782 -15.028   4.186  1.00  0.00     0.338 C 
BRANCH  12  13
HETATM   13  C   UNL     1      41.962 -16.547   4.271  1.00  0.00     0.248 C 
HETATM   14  N   UNL     1      43.107 -16.978   3.627  1.00  0.00    -0.319 N 
HETATM   15  H   UNL     1      43.511 -16.420   2.882  1.00  0.00     0.169 HD
HETATM   16  O   UNL     1      41.127 -17.276   4.794  1.00  0.00    -0.271 OA
BRANCH  14  17
HETATM   17  C   UNL     1      43.595 -18.268   3.689  1.00  0.00     0.094 A 
HETATM   18  S   UNL     1      43.506 -19.015   2.166  1.00  0.00    -0.076 SA
HETATM   19  C   UNL     1      44.105 -20.490   2.772  1.00  0.00    -0.012 A 
HETATM   20  C   UNL     1      44.237 -21.660   1.849  1.00  0.00     0.057 C 
HETATM   21  C   UNL     1      44.466 -20.394   4.107  1.00  0.00    -0.030 A 
HETATM   22  C   UNL     1      45.139 -21.493   4.875  1.00  0.00     0.050 C 
HETATM   23  C   UNL     1      44.155 -19.075   4.660  1.00  0.00     0.080 A 
BRANCH  23  24
HETATM   24  C   UNL     1      44.498 -18.636   6.014  1.00  0.00     0.296 C 
HETATM   25  O   UNL     1      45.579 -18.133   6.301  1.00  0.00    -0.259 OA
BRANCH  24  26
HETATM   26  O   UNL     1      43.514 -18.900   6.919  1.00  0.00    -0.322 OA
HETATM   27  C   UNL     1      43.166 -17.786   7.740  1.00  0.00     0.213 C 
ENDBRANCH  24  26
ENDBRANCH  23  24
ENDBRANCH  14  17
ENDBRANCH  12  13
ENDBRANCH   2  12
BRANCH   1  28
HETATM   28  C   UNL     1      40.123 -13.857   1.867  1.00  0.00    -0.027 A 
HETATM   29  C   UNL     1      39.057 -14.191   1.026  1.00  0.00     0.011 A 
HETATM   30  C   UNL     1      39.259 -14.396  -0.350  1.00  0.00     0.030 A 
HETATM   31  C   UNL     1      40.521 -14.287  -0.955  1.00  0.00     0.030 A 
HETATM   32  C   UNL     1      41.587 -14.059  -0.073  1.00  0.00     0.030 A 
HETATM   33  C   UNL     1      41.394 -13.825   1.296  1.00  0.00     0.011 A 
BRANCH  31  34
HETATM   34  N   UNL     1      40.714 -14.388  -2.330  1.00  0.00    -0.382 N 
BRANCH  34  35
HETATM   35  C   UNL     1      40.531 -13.208  -3.197  1.00  0.00     0.118 C 
HETATM   36  C   UNL     1      41.871 -12.557  -3.498  1.00  0.00     0.026 C 
ENDBRANCH  34  35
BRANCH  34  37
HETATM   37  C   UNL     1      40.706 -15.685  -3.026  1.00  0.00     0.118 C 
HETATM   38  C   UNL     1      39.463 -15.843  -3.888  1.00  0.00     0.026 C 
ENDBRANCH  34  37
ENDBRANCH  31  34
ENDBRANCH   1  28
BRANCH   6  39
HETATM   39  O   UNL     1      38.309 -11.785   5.097  1.00  0.00    -0.389 OA
HETATM   40  H   UNL     1      37.928 -11.136   5.720  1.00  0.00     0.210 HD
ENDBRANCH   6  39
TORSDOF 10
ENDMDL
MODEL 2
REMARK VINA RESULT:      -8.2      2.332      7.541
REMARK  10 active torsions:
REMARK  status: ('A' for Active; 'I' for Inactive)
REMARK    1  A    between atoms: C_2  and  N_3 
REMARK    2  A    between atoms: N_3  and  C_4 
REMARK    3  A    between atoms: N_3  and  C_37 
REMARK    4  A    between atoms: C_7  and  C_8 
REMARK    5  A    between atoms: N_9  and  C_11 
REMARK    6  A    between atoms: C_11  and  C_12 
REMARK       I    between atoms: C_12  and  N_13 
REMARK    7  A    between atoms: N_13  and  C_14 
REMARK    8  A    between atoms: C_20  and  C_21 
REMARK    9  A    between atoms: C_21  and  O_22 
REMARK   10  A    between atoms: C_28  and  O_29 
ROOT
HETATM    1  C   UNL     1      43.205 -16.652   4.697  1.00  0.00     0.228 C 
HETATM    2  N   UNL     1      42.548 -16.060   5.946  1.00  0.00    -0.054 N 
HETATM    3  H   UNL     1      42.860 -15.084   5.886  1.00  0.00     0.281 HD
HETATM    4  C   UNL     1      43.170 -16.541   7.233  1.00  0.00     0.239 C 
HETATM    5  C   UNL     1      43.361 -18.047   7.309  1.00  0.00     0.066 C 
HETATM    6  C   UNL     1      44.052 -18.609   6.068  1.00  0.00     0.065 C 
HETATM    7  C   UNL     1      43.308 -18.192   4.781  1.00  0.00     0.055 C 
HETATM    8  C   UNL     1      44.170 -20.142   6.158  1.00  0.00     0.038 C 
HETATM    9  C   UNL     1      44.845 -20.739   4.923  1.00  0.00     0.003 C 
HETATM   10  C   UNL     1      44.149 -20.306   3.641  1.00  0.00     0.001 C 
HETATM   11  C   UNL     1      44.025 -18.788   3.545  1.00  0.00     0.010 C 
ENDROOT
BRANCH   2  12
HETATM   12  C   UNL     1      41.026 -15.884   5.989  1.00  0.00     0.338 C 
BRANCH  12  13
HETATM   13  C   UNL     1      40.419 -14.492   5.792  1.00  0.00     0.248 C 
HETATM   14  N   UNL     1      41.199 -13.495   6.348  1.00  0.00    -0.319 N 
HETATM   15  H   UNL     1      41.835 -13.712   7.108  1.00  0.00     0.169 HD
HETATM   16  O   UNL     1      39.327 -14.323   5.263  1.00  0.00    -0.271 OA
BRANCH  14  17
HETATM   17  C   UNL     1      40.975 -12.144   6.175  1.00  0.00     0.094 A 
HETATM   18  S   UNL     1      41.361 -11.672   4.589  1.00  0.00    -0.076 SA
HETATM   19  C   UNL     1      41.012 -10.036   4.911  1.00  0.00    -0.012 A 
HETATM   20  C   UNL     1      41.207  -9.020   3.830  1.00  0.00     0.057 C 
HETATM   21  C   UNL     1      40.510  -9.855   6.191  1.00  0.00    -0.030 A 
HETATM   22  C   UNL     1      39.998  -8.546   6.713  1.00  0.00     0.050 C 
HETATM   23  C   UNL     1      40.495 -11.106   6.950  1.00  0.00     0.080 A 
BRANCH  23  24
HETATM   24  C   UNL     1      39.940 -11.259   8.297  1.00  0.00     0.296 C 
HETATM   25  O   UNL     1      38.801 -11.660   8.510  1.00  0.00    -0.259 OA
BRANCH  24  26
HETATM   26  O   UNL     1      40.801 -10.853   9.271  1.00  0.00    -0.322 OA
HETATM   27  C   UNL     1      40.257 -10.912  10.589  1.00  0.00     0.213 C 
ENDBRANCH  24  26
ENDBRANCH  23  24
ENDBRANCH  14  17
ENDBRANCH  12  13
ENDBRANCH   2  12
BRANCH   1  28
HETATM   28  C   UNL     1      42.666 -16.102   3.388  1.00  0.00    -0.027 A 
HETATM   29  C   UNL     1      41.785 -16.864   2.613  1.00  0.00     0.011 A 
HETATM   30  C   UNL     1      41.129 -16.305   1.503  1.00  0.00     0.030 A 
HETATM   31  C   UNL     1      41.318 -14.973   1.103  1.00  0.00     0.030 A 
HETATM   32  C   UNL     1      42.286 -14.265   1.829  1.00  0.00     0.030 A 
HETATM   33  C   UNL     1      42.926 -14.802   2.954  1.00  0.00     0.011 A 
BRANCH  31  34
HETATM   34  N   UNL     1      40.597 -14.382   0.069  1.00  0.00    -0.382 N 
BRANCH  34  35
HETATM   35  C   UNL     1      41.189 -14.259  -1.276  1.00  0.00     0.118 C 
HETATM   36  C   UNL     1      40.926 -15.516  -2.090  1.00  0.00     0.026 C 
ENDBRANCH  34  35
BRANCH  34  37
HETATM   37  C   UNL     1      39.434 -13.517   0.324  1.00  0.00     0.118 C 
HETATM   38  C   UNL     1      38.342 -14.264   1.075  1.00  0.00     0.026 C 
ENDBRANCH  34  37
ENDBRANCH  31  34
ENDBRANCH   1  28
BRANCH   6  39
HETATM   39  O   UNL     1      45.364 -18.027   6.038  1.00  0.00    -0.389 OA
HETATM   40  H   UNL     1      45.789 -18.162   6.906  1.00  0.00     0.210 HD
ENDBRANCH   6  39
TORSDOF 10
ENDMDL
MODEL 3
REMARK VINA RESULT:      -7.9      3.296      8.588
REMARK  10 active torsions:
REMARK  status: ('A' for Active; 'I' for Inactive)
REMARK    1  A    between atoms: C_2  and  N_3 
REMARK    2  A    between atoms: N_3  and  C_4 
REMARK    3  A    between atoms: N_3  and  C_37 
REMARK    4  A    between atoms: C_7  and  C_8 
REMARK    5  A    between atoms: N_9  and  C_11 
REMARK    6  A    between atoms: C_11  and  C_12 
REMARK       I    between atoms: C_12  and  N_13 
REMARK    7  A    between atoms: N_13  and  C_14 
REMARK    8  A    between atoms: C_20  and  C_21 
REMARK    9  A    between atoms: C_21  and  O_22 
REMARK   10  A    between atoms: C_28  and  O_29 
ROOT
HETATM    1  C   UNL     1      42.255 -14.924   2.140  1.00  0.00     0.228 C 
HETATM    2  N   UNL     1      42.059 -14.512   0.678  1.00  0.00    -0.054 N 
HETATM    3  H   UNL     1      43.019 -14.589   0.324  1.00  0.00     0.281 HD
HETATM    4  C   UNL     1      41.747 -13.046   0.509  1.00  0.00     0.239 C 
HETATM    5  C   UNL     1      40.657 -12.529   1.433  1.00  0.00     0.066 C 
HETATM    6  C   UNL     1      40.894 -12.922   2.890  1.00  0.00     0.065 C 
HETATM    7  C   UNL     1      41.085 -14.447   3.030  1.00  0.00     0.055 C 
HETATM    8  C   UNL     1      39.737 -12.433   3.781  1.00  0.00     0.038 C 
HETATM    9  C   UNL     1      39.937 -12.822   5.245  1.00  0.00     0.003 C 
HETATM   10  C   UNL     1      40.167 -14.318   5.400  1.00  0.00     0.001 C 
HETATM   11  C   UNL     1      41.310 -14.812   4.518  1.00  0.00     0.010 C 
ENDROOT
BRANCH   2  12
HETATM   12  C   UNL     1      41.311 -15.448  -0.277  1.00  0.00     0.338 C 
BRANCH  12  13
HETATM   13  C   UNL     1      40.651 -14.875  -1.535  1.00  0.00     0.248 C 
HETATM   14  N   UNL     1      39.312 -14.590  -1.341  1.00  0.00    -0.319 N 
HETATM   15  H   UNL     1      38.787 -15.075  -0.621  1.00  0.00     0.169 HD
HETATM   16  O   UNL     1      41.251 -14.764  -2.597  1.00  0.00    -0.271 OA
BRANCH  14  17
HETATM   17  C   UNL     1      38.521 -13.915  -2.250  1.00  0.00     0.094 A 
HETATM   18  S   UNL     1      37.563 -15.004  -3.134  1.00  0.00    -0.076 SA
HETATM   19  C   UNL     1      36.899 -13.760  -4.090  1.00  0.00    -0.012 A 
HETATM   20  C   UNL     1      35.929 -14.110  -5.174  1.00  0.00     0.057 C 
HETATM   21  C   UNL     1      37.328 -12.507  -3.680  1.00  0.00    -0.030 A 
HETATM   22  C   UNL     1      36.815 -11.217  -4.252  1.00  0.00     0.050 C 
HETATM   23  C   UNL     1      38.300 -12.594  -2.591  1.00  0.00     0.080 A 
BRANCH  23  24
HETATM   24  C   UNL     1      38.868 -11.444  -1.884  1.00  0.00     0.296 C 
HETATM   25  O   UNL     1      38.382 -10.983  -0.857  1.00  0.00    -0.259 OA
BRANCH  24  26
HETATM   26  O   UNL     1      39.949 -10.914  -2.522  1.00  0.00    -0.322 OA
HETATM   27  C   UNL     1      40.811 -10.157  -1.672  1.00  0.00     0.213 C 
ENDBRANCH  24  26
ENDBRANCH  23  24
ENDBRANCH  14  17
ENDBRANCH  12  13
ENDBRANCH   2  12
BRANCH   1  28
HETATM   28  C   UNL     1      42.674 -16.372   2.329  1.00  0.00    -0.027 A 
HETATM   29  C   UNL     1      43.838 -16.853   1.720  1.00  0.00     0.011 A 
HETATM   30  C   UNL     1      44.344 -18.127   2.033  1.00  0.00     0.030 A 
HETATM   31  C   UNL     1      43.722 -18.984   2.954  1.00  0.00     0.030 A 
HETATM   32  C   UNL     1      42.502 -18.522   3.467  1.00  0.00     0.030 A 
HETATM   33  C   UNL     1      42.001 -17.244   3.184  1.00  0.00     0.011 A 
BRANCH  31  34
HETATM   34  N   UNL     1      44.270 -20.202   3.346  1.00  0.00    -0.382 N 
BRANCH  34  35
HETATM   35  C   UNL     1      44.794 -20.378   4.714  1.00  0.00     0.118 C 
HETATM   36  C   UNL     1      44.798 -21.850   5.095  1.00  0.00     0.026 C 
ENDBRANCH  34  35
BRANCH  34  37
HETATM   37  C   UNL     1      44.720 -21.206   2.368  1.00  0.00     0.118 C 
HETATM   38  C   UNL     1      43.548 -21.788   1.592  1.00  0.00     0.026 C 
ENDBRANCH  34  37
ENDBRANCH  31  34
ENDBRANCH   1  28
BRANCH   6  39
HETATM   39  O   UNL     1      42.113 -12.277   3.288  1.00  0.00    -0.389 OA
HETATM   40  H   UNL     1      42.511 -11.844   2.508  1.00  0.00     0.210 HD
ENDBRANCH   6  39
TORSDOF 10
ENDMDL
MODEL 4
REMARK VINA RESULT:      -7.9      4.781      8.358
REMARK  10 active torsions:
REMARK  status: ('A' for Active; 'I' for Inactive)
REMARK    1  A    between atoms: C_2  and  N_3 
REMARK    2  A    between atoms: N_3  and  C_4 
REMARK    3  A    between atoms: N_3  and  C_37 
REMARK    4  A    between atoms: C_7  and  C_8 
REMARK    5  A    between atoms: N_9  and  C_11 
REMARK    6  A    between atoms: C_11  and  C_12 
REMARK       I    between atoms: C_12  and  N_13 
REMARK    7  A    between atoms: N_13  and  C_14 
REMARK    8  A    between atoms: C_20  and  C_21 
REMARK    9  A    between atoms: C_21  and  O_22 
REMARK   10  A    between atoms: C_28  and  O_29 
ROOT
HETATM    1  C   UNL     1      40.159 -12.677   5.228  1.00  0.00     0.228 C 
HETATM    2  N   UNL     1      40.359 -11.794   6.462  1.00  0.00    -0.054 N 
HETATM    3  H   UNL     1      39.985 -12.402   7.199  1.00  0.00     0.281 HD
HETATM    4  C   UNL     1      39.436 -10.602   6.499  1.00  0.00     0.239 C 
HETATM    5  C   UNL     1      39.379  -9.817   5.199  1.00  0.00     0.066 C 
HETATM    6  C   UNL     1      39.141 -10.715   3.987  1.00  0.00     0.065 C 
HETATM    7  C   UNL     1      40.186 -11.850   3.922  1.00  0.00     0.055 C 
HETATM    8  C   UNL     1      39.151  -9.890   2.686  1.00  0.00     0.038 C 
HETATM    9  C   UNL     1      38.930 -10.762   1.451  1.00  0.00     0.003 C 
HETATM   10  C   UNL     1      39.926 -11.911   1.392  1.00  0.00     0.001 C 
HETATM   11  C   UNL     1      39.925 -12.732   2.677  1.00  0.00     0.010 C 
ENDROOT
BRANCH   2  12
HETATM   12  C   UNL     1      41.777 -11.532   6.982  1.00  0.00     0.338 C 
BRANCH  12  13
HETATM   13  C   UNL     1      41.986 -10.575   8.159  1.00  0.00     0.248 C 
HETATM   14  N   UNL     1      41.556 -11.114   9.357  1.00  0.00    -0.319 N 
HETATM   15  H   UNL     1      40.848 -11.841   9.363  1.00  0.00     0.169 HD
HETATM   16  O   UNL     1      42.420  -9.439   8.009  1.00  0.00    -0.271 OA
BRANCH  14  17
HETATM   17  C   UNL     1      41.776 -10.538  10.593  1.00  0.00     0.094 A 
HETATM   18  S   UNL     1      40.428  -9.621  11.073  1.00  0.00    -0.076 SA
HETATM   19  C   UNL     1      41.197  -9.104  12.503  1.00  0.00    -0.012 A 
HETATM   20  C   UNL     1      40.480  -8.163  13.420  1.00  0.00     0.057 C 
HETATM   21  C   UNL     1      42.439  -9.699  12.669  1.00  0.00    -0.030 A 
HETATM   22  C   UNL     1      43.291  -9.533  13.892  1.00  0.00     0.050 C 
HETATM   23  C   UNL     1      42.791 -10.546  11.530  1.00  0.00     0.080 A 
BRANCH  23  24
HETATM   24  C   UNL     1      43.994 -11.378  11.448  1.00  0.00     0.296 C 
HETATM   25  O   UNL     1      44.036 -12.535  11.851  1.00  0.00    -0.259 OA
BRANCH  24  26
HETATM   26  O   UNL     1      45.064 -10.708  10.935  1.00  0.00    -0.322 OA
HETATM   27  C   UNL     1      45.422 -11.111   9.614  1.00  0.00     0.213 C 
ENDBRANCH  24  26
ENDBRANCH  23  24
ENDBRANCH  14  17
ENDBRANCH  12  13
ENDBRANCH   2  12
BRANCH   1  28
HETATM   28  C   UNL     1      41.003 -13.941   5.220  1.00  0.00    -0.027 A 
HETATM   29  C   UNL     1      40.454 -15.156   5.644  1.00  0.00     0.011 A 
HETATM   30  C   UNL     1      41.151 -16.364   5.467  1.00  0.00     0.030 A 
HETATM   31  C   UNL     1      42.421 -16.426   4.872  1.00  0.00     0.030 A 
HETATM   32  C   UNL     1      42.992 -15.185   4.556  1.00  0.00     0.030 A 
HETATM   33  C   UNL     1      42.297 -13.977   4.702  1.00  0.00     0.011 A 
BRANCH  31  34
HETATM   34  N   UNL     1      43.073 -17.625   4.600  1.00  0.00    -0.382 N 
BRANCH  34  35
HETATM   35  C   UNL     1      42.957 -18.253   3.270  1.00  0.00     0.118 C 
HETATM   36  C   UNL     1      43.864 -19.468   3.175  1.00  0.00     0.026 C 
ENDBRANCH  34  35
BRANCH  34  37
HETATM   37  C   UNL     1      43.553 -18.513   5.672  1.00  0.00     0.118 C 
HETATM   38  C   UNL     1      44.760 -17.920   6.382  1.00  0.00     0.026 C 
ENDBRANCH  34  37
ENDBRANCH  31  34
ENDBRANCH   1  28
BRANCH   6  39
HETATM   39  O   UNL     1      37.846 -11.306   4.170  1.00  0.00    -0.389 OA
HETATM   40  H   UNL     1      37.263 -10.660   4.614  1.00  0.00     0.210 HD
ENDBRANCH   6  39
TORSDOF 10
ENDMDL
MODEL 5
REMARK VINA RESULT:      -7.8      3.047      8.092
REMARK  10 active torsions:
REMARK  status: ('A' for Active; 'I' for Inactive)
REMARK    1  A    between atoms: C_2  and  N_3 
REMARK    2  A    between atoms: N_3  and  C_4 
REMARK    3  A    between atoms: N_3  and  C_37 
REMARK    4  A    between atoms: C_7  and  C_8 
REMARK    5  A    between atoms: N_9  and  C_11 
REMARK    6  A    between atoms: C_11  and  C_12 
REMARK       I    between atoms: C_12  and  N_13 
REMARK    7  A    between atoms: N_13  and  C_14 
REMARK    8  A    between atoms: C_20  and  C_21 
REMARK    9  A    between atoms: C_21  and  O_22 
REMARK   10  A    between atoms: C_28  and  O_29 
ROOT
HETATM    1  C   UNL     1      42.094 -16.462   3.896  1.00  0.00     0.228 C 
HETATM    2  N   UNL     1      42.153 -17.005   2.466  1.00  0.00    -0.054 N 
HETATM    3  H   UNL     1      41.157 -17.012   2.220  1.00  0.00     0.281 HD
HETATM    4  C   UNL     1      42.534 -18.463   2.398  1.00  0.00     0.239 C 
HETATM    5  C   UNL     1      43.750 -18.830   3.233  1.00  0.00     0.066 C 
HETATM    6  C   UNL     1      43.651 -18.308   4.665  1.00  0.00     0.065 C 
HETATM    7  C   UNL     1      43.382 -16.788   4.685  1.00  0.00     0.055 C 
HETATM    8  C   UNL     1      44.927 -18.648   5.457  1.00  0.00     0.038 C 
HETATM    9  C   UNL     1      44.866 -18.126   6.893  1.00  0.00     0.003 C 
HETATM   10  C   UNL     1      44.563 -16.636   6.934  1.00  0.00     0.001 C 
HETATM   11  C   UNL     1      43.301 -16.290   6.149  1.00  0.00     0.010 C 
ENDROOT
BRANCH   2  12
HETATM   12  C   UNL     1      42.731 -16.131   1.348  1.00  0.00     0.338 C 
BRANCH  12  13
HETATM   13  C   UNL     1      41.795 -15.536   0.292  1.00  0.00     0.248 C 
HETATM   14  N   UNL     1      41.512 -14.203   0.531  1.00  0.00    -0.319 N 
HETATM   15  H   UNL     1      41.584 -13.830   1.471  1.00  0.00     0.169 HD
HETATM   16  O   UNL     1      41.310 -16.211  -0.608  1.00  0.00    -0.271 OA
BRANCH  14  17
HETATM   17  C   UNL     1      40.833 -13.383  -0.348  1.00  0.00     0.094 A 
HETATM   18  S   UNL     1      39.175 -13.353   0.021  1.00  0.00    -0.076 SA
HETATM   19  C   UNL     1      38.822 -12.345  -1.306  1.00  0.00    -0.012 A 
HETATM   20  C   UNL     1      37.402 -11.955  -1.570  1.00  0.00     0.057 C 
HETATM   21  C   UNL     1      39.970 -11.949  -1.976  1.00  0.00    -0.030 A 
HETATM   22  C   UNL     1      39.982 -10.963  -3.106  1.00  0.00     0.050 C 
HETATM   23  C   UNL     1      41.169 -12.572  -1.415  1.00  0.00     0.080 A 
BRANCH  23  24
HETATM   24  C   UNL     1      42.538 -12.284  -1.846  1.00  0.00     0.296 C 
HETATM   25  O   UNL     1      43.009 -12.695  -2.901  1.00  0.00    -0.259 OA
BRANCH  24  26
HETATM   26  O   UNL     1      43.241 -11.566  -0.925  1.00  0.00    -0.322 OA
HETATM   27  C   UNL     1      43.485 -10.213  -1.307  1.00  0.00     0.213 C 
ENDBRANCH  24  26
ENDBRANCH  23  24
ENDBRANCH  14  17
ENDBRANCH  12  13
ENDBRANCH   2  12
BRANCH   1  28
HETATM   28  C   UNL     1      41.610 -15.025   3.998  1.00  0.00    -0.027 A 
HETATM   29  C   UNL     1      42.532 -13.975   4.067  1.00  0.00     0.011 A 
HETATM   30  C   UNL     1      42.111 -12.637   3.971  1.00  0.00     0.030 A 
HETATM   31  C   UNL     1      40.765 -12.275   3.808  1.00  0.00     0.030 A 
HETATM   32  C   UNL     1      39.853 -13.339   3.850  1.00  0.00     0.030 A 
HETATM   33  C   UNL     1      40.261 -14.678   3.919  1.00  0.00     0.011 A 
BRANCH  31  34
HETATM   34  N   UNL     1      40.352 -10.961   3.609  1.00  0.00    -0.382 N 
BRANCH  34  35
HETATM   35  C   UNL     1      40.125 -10.068   4.762  1.00  0.00     0.118 C 
HETATM   36  C   UNL     1      38.719  -9.491   4.718  1.00  0.00     0.026 C 
ENDBRANCH  34  35
BRANCH  34  37
HETATM   37  C   UNL     1      39.745 -10.517   2.343  1.00  0.00     0.118 C 
HETATM   38  C   UNL     1      40.805 -10.067   1.350  1.00  0.00     0.026 C 
ENDBRANCH  34  37
ENDBRANCH  31  34
ENDBRANCH   1  28
BRANCH   6  39
HETATM   39  O   UNL     1      42.525 -18.972   5.259  1.00  0.00    -0.389 OA
HETATM   40  H   UNL     1      42.065 -18.346   5.851  1.00  0.00     0.210 HD
ENDBRANCH   6  39
TORSDOF 10
ENDMDL
MODEL 6
REMARK VINA RESULT:      -7.7      2.147      5.909
REMARK  10 active torsions:
REMARK  status: ('A' for Active; 'I' for Inactive)
REMARK    1  A    between atoms: C_2  and  N_3 
REMARK    2  A    between atoms: N_3  and  C_4 
REMARK    3  A    between atoms: N_3  and  C_37 
REMARK    4  A    between atoms: C_7  and  C_8 
REMARK    5  A    between atoms: N_9  and  C_11 
REMARK    6  A    between atoms: C_11  and  C_12 
REMARK       I    between atoms: C_12  and  N_13 
REMARK    7  A    between atoms: N_13  and  C_14 
REMARK    8  A    between atoms: C_20  and  C_21 
REMARK    9  A    between atoms: C_21  and  O_22 
REMARK   10  A    between atoms: C_28  and  O_29 
ROOT
HETATM    1  C   UNL     1      40.722 -12.889   2.769  1.00  0.00     0.228 C 
HETATM    2  N   UNL     1      41.625 -14.123   2.833  1.00  0.00    -0.054 N 
HETATM    3  H   UNL     1      42.529 -13.691   3.057  1.00  0.00     0.281 HD
HETATM    4  C   UNL     1      41.870 -14.752   1.484  1.00  0.00     0.239 C 
HETATM    5  C   UNL     1      40.613 -14.967   0.658  1.00  0.00     0.066 C 
HETATM    6  C   UNL     1      39.747 -13.712   0.579  1.00  0.00     0.065 C 
HETATM    7  C   UNL     1      39.419 -13.174   1.988  1.00  0.00     0.055 C 
HETATM    8  C   UNL     1      38.456 -13.990  -0.214  1.00  0.00     0.038 C 
HETATM    9  C   UNL     1      37.558 -12.755  -0.299  1.00  0.00     0.003 C 
HETATM   10  C   UNL     1      37.256 -12.187   1.079  1.00  0.00     0.001 C 
HETATM   11  C   UNL     1      38.530 -11.911   1.873  1.00  0.00     0.010 C 
ENDROOT
BRANCH   2  12
HETATM   12  C   UNL     1      41.471 -15.114   3.992  1.00  0.00     0.338 C 
BRANCH  12  13
HETATM   13  C   UNL     1      41.735 -16.604   3.753  1.00  0.00     0.248 C 
HETATM   14  N   UNL     1      43.081 -16.916   3.813  1.00  0.00    -0.319 N 
HETATM   15  H   UNL     1      43.777 -16.201   3.629  1.00  0.00     0.169 HD
HETATM   16  O   UNL     1      40.839 -17.389   3.470  1.00  0.00    -0.271 OA
BRANCH  14  17
HETATM   17  C   UNL     1      43.582 -18.202   3.800  1.00  0.00     0.094 A 
HETATM   18  S   UNL     1      43.460 -18.875   2.244  1.00  0.00    -0.076 SA
HETATM   19  C   UNL     1      44.088 -20.372   2.762  1.00  0.00    -0.012 A 
HETATM   20  C   UNL     1      44.207 -21.494   1.780  1.00  0.00     0.057 C 
HETATM   21  C   UNL     1      44.482 -20.337   4.091  1.00  0.00    -0.030 A 
HETATM   22  C   UNL     1      45.185 -21.465   4.787  1.00  0.00     0.050 C 
HETATM   23  C   UNL     1      44.174 -19.051   4.716  1.00  0.00     0.080 A 
BRANCH  23  24
HETATM   24  C   UNL     1      44.548 -18.674   6.080  1.00  0.00     0.296 C 
HETATM   25  O   UNL     1      45.651 -18.227   6.373  1.00  0.00    -0.259 OA
BRANCH  24  26
HETATM   26  O   UNL     1      43.563 -18.930   6.987  1.00  0.00    -0.322 OA
HETATM   27  C   UNL     1      42.936 -17.759   7.509  1.00  0.00     0.213 C 
ENDBRANCH  24  26
ENDBRANCH  23  24
ENDBRANCH  14  17
ENDBRANCH  12  13
ENDBRANCH   2  12
BRANCH   1  28
HETATM   28  C   UNL     1      40.546 -12.175   4.099  1.00  0.00    -0.027 A 
HETATM   29  C   UNL     1      39.538 -12.574   4.984  1.00  0.00     0.011 A 
HETATM   30  C   UNL     1      39.478 -12.059   6.290  1.00  0.00     0.030 A 
HETATM   31  C   UNL     1      40.403 -11.124   6.779  1.00  0.00     0.030 A 
HETATM   32  C   UNL     1      41.335 -10.661   5.840  1.00  0.00     0.030 A 
HETATM   33  C   UNL     1      41.423 -11.187   4.544  1.00  0.00     0.011 A 
BRANCH  31  34
HETATM   34  N   UNL     1      40.413 -10.686   8.101  1.00  0.00    -0.382 N 
BRANCH  34  35
HETATM   35  C   UNL     1      39.146 -10.383   8.795  1.00  0.00     0.118 C 
HETATM   36  C   UNL     1      38.744  -8.937   8.556  1.00  0.00     0.026 C 
ENDBRANCH  34  35
BRANCH  34  37
HETATM   37  C   UNL     1      41.621 -10.129   8.729  1.00  0.00     0.118 C 
HETATM   38  C   UNL     1      41.742 -10.566  10.181  1.00  0.00     0.026 C 
ENDBRANCH  34  37
ENDBRANCH  31  34
ENDBRANCH   1  28
BRANCH   6  39
HETATM   39  O   UNL     1      40.529 -12.724  -0.109  1.00  0.00    -0.389 OA
HETATM   40  H   UNL     1      40.829 -12.054   0.535  1.00  0.00     0.210 HD
ENDBRANCH   6  39
TORSDOF 10
ENDMDL
MODEL 7
REMARK VINA RESULT:      -7.6      2.590      8.185
REMARK  10 active torsions:
REMARK  status: ('A' for Active; 'I' for Inactive)
REMARK    1  A    between atoms: C_2  and  N_3 
REMARK    2  A    between atoms: N_3  and  C_4 
REMARK    3  A    between atoms: N_3  and  C_37 
REMARK    4  A    between atoms: C_7  and  C_8 
REMARK    5  A    between atoms: N_9  and  C_11 
REMARK    6  A    between atoms: C_11  and  C_12 
REMARK       I    between atoms: C_12  and  N_13 
REMARK    7  A    between atoms: N_13  and  C_14 
REMARK    8  A    between atoms: C_20  and  C_21 
REMARK    9  A    between atoms: C_21  and  O_22 
REMARK   10  A    between atoms: C_28  and  O_29 
ROOT
HETATM    1  C   UNL     1      42.033 -16.264   3.820  1.00  0.00     0.228 C 
HETATM    2  N   UNL     1      42.114 -16.784   2.383  1.00  0.00    -0.054 N 
HETATM    3  H   UNL     1      41.123 -16.776   2.117  1.00  0.00     0.281 HD
HETATM    4  C   UNL     1      42.481 -18.244   2.297  1.00  0.00     0.239 C 
HETATM    5  C   UNL     1      43.676 -18.638   3.149  1.00  0.00     0.066 C 
HETATM    6  C   UNL     1      43.555 -18.140   4.588  1.00  0.00     0.065 C 
HETATM    7  C   UNL     1      43.302 -16.617   4.629  1.00  0.00     0.055 C 
HETATM    8  C   UNL     1      44.811 -18.507   5.400  1.00  0.00     0.038 C 
HETATM    9  C   UNL     1      44.728 -18.009   6.842  1.00  0.00     0.003 C 
HETATM   10  C   UNL     1      44.439 -16.516   6.903  1.00  0.00     0.001 C 
HETATM   11  C   UNL     1      43.197 -16.144   6.099  1.00  0.00     0.010 C 
ENDROOT
BRANCH   2  12
HETATM   12  C   UNL     1      42.724 -15.897   1.292  1.00  0.00     0.338 C 
BRANCH  12  13
HETATM   13  C   UNL     1      41.856 -15.442   0.114  1.00  0.00     0.248 C 
HETATM   14  N   UNL     1      41.868 -14.068  -0.046  1.00  0.00    -0.319 N 
HETATM   15  H   UNL     1      42.079 -13.466   0.742  1.00  0.00     0.169 HD
HETATM   16  O   UNL     1      41.182 -16.225  -0.543  1.00  0.00    -0.271 OA
BRANCH  14  17
HETATM   17  C   UNL     1      41.309 -13.407  -1.122  1.00  0.00     0.094 A 
HETATM   18  S   UNL     1      42.519 -12.860  -2.182  1.00  0.00    -0.076 SA
HETATM   19  C   UNL     1      41.386 -12.103  -3.204  1.00  0.00    -0.012 A 
HETATM   20  C   UNL     1      41.871 -11.351  -4.403  1.00  0.00     0.057 C 
HETATM   21  C   UNL     1      40.081 -12.343  -2.799  1.00  0.00    -0.030 A 
HETATM   22  C   UNL     1      38.871 -11.910  -3.573  1.00  0.00     0.050 C 
HETATM   23  C   UNL     1      40.031 -13.110  -1.555  1.00  0.00     0.080 A 
BRANCH  23  24
HETATM   24  C   UNL     1      38.803 -13.597  -0.924  1.00  0.00     0.296 C 
HETATM   25  O   UNL     1      37.904 -14.152  -1.547  1.00  0.00    -0.259 OA
BRANCH  24  26
HETATM   26  O   UNL     1      38.746 -13.315   0.408  1.00  0.00    -0.322 OA
HETATM   27  C   UNL     1      38.339 -14.416   1.219  1.00  0.00     0.213 C 
ENDBRANCH  24  26
ENDBRANCH  23  24
ENDBRANCH  14  17
ENDBRANCH  12  13
ENDBRANCH   2  12
BRANCH   1  28
HETATM   28  C   UNL     1      41.562 -14.824   3.938  1.00  0.00    -0.027 A 
HETATM   29  C   UNL     1      40.269 -14.541   4.392  1.00  0.00     0.011 A 
HETATM   30  C   UNL     1      39.880 -13.223   4.687  1.00  0.00     0.030 A 
HETATM   31  C   UNL     1      40.744 -12.127   4.542  1.00  0.00     0.030 A 
HETATM   32  C   UNL     1      41.995 -12.424   3.984  1.00  0.00     0.030 A 
HETATM   33  C   UNL     1      42.405 -13.736   3.711  1.00  0.00     0.011 A 
BRANCH  31  34
HETATM   34  N   UNL     1      40.401 -10.834   4.929  1.00  0.00    -0.382 N 
BRANCH  34  35
HETATM   35  C   UNL     1      41.383  -9.977   5.619  1.00  0.00     0.118 C 
HETATM   36  C   UNL     1      41.361 -10.243   7.115  1.00  0.00     0.026 C 
ENDBRANCH  34  35
BRANCH  34  37
HETATM   37  C   UNL     1      38.999 -10.401   5.047  1.00  0.00     0.118 C 
HETATM   38  C   UNL     1      38.441  -9.958   3.703  1.00  0.00     0.026 C 
ENDBRANCH  34  37
ENDBRANCH  31  34
ENDBRANCH   1  28
BRANCH   6  39
HETATM   39  O   UNL     1      42.410 -18.802   5.149  1.00  0.00    -0.389 OA
HETATM   40  H   UNL     1      42.717 -19.535   5.716  1.00  0.00     0.210 HD
ENDBRANCH   6  39
TORSDOF 10
ENDMDL
MODEL 8
REMARK VINA RESULT:      -7.6      2.346      8.243
REMARK  10 active torsions:
REMARK  status: ('A' for Active; 'I' for Inactive)
REMARK    1  A    between atoms: C_2  and  N_3 
REMARK    2  A    between atoms: N_3  and  C_4 
REMARK    3  A    between atoms: N_3  and  C_37 
REMARK    4  A    between atoms: C_7  and  C_8 
REMARK    5  A    between atoms: N_9  and  C_11 
REMARK    6  A    between atoms: C_11  and  C_12 
REMARK       I    between atoms: C_12  and  N_13 
REMARK    7  A    between atoms: N_13  and  C_14 
REMARK    8  A    between atoms: C_20  and  C_21 
REMARK    9  A    between atoms: C_21  and  O_22 
REMARK   10  A    between atoms: C_28  and  O_29 
ROOT
HETATM    1  C   UNL     1      41.926 -15.963   4.778  1.00  0.00     0.228 C 
HETATM    2  N   UNL     1      42.316 -15.922   3.298  1.00  0.00    -0.054 N 
HETATM    3  H   UNL     1      41.395 -15.826   2.856  1.00  0.00     0.281 HD
HETATM    4  C   UNL     1      42.812 -17.247   2.776  1.00  0.00     0.239 C 
HETATM    5  C   UNL     1      43.855 -17.915   3.656  1.00  0.00     0.066 C 
HETATM    6  C   UNL     1      43.426 -17.976   5.121  1.00  0.00     0.065 C 
HETATM    7  C   UNL     1      43.046 -16.576   5.648  1.00  0.00     0.055 C 
HETATM    8  C   UNL     1      44.535 -18.603   5.987  1.00  0.00     0.038 C 
HETATM    9  C   UNL     1      44.143 -18.667   7.463  1.00  0.00     0.003 C 
HETATM   10  C   UNL     1      43.726 -17.302   7.990  1.00  0.00     0.001 C 
HETATM   11  C   UNL     1      42.630 -16.672   7.136  1.00  0.00     0.010 C 
ENDROOT
BRANCH   2  12
HETATM   12  C   UNL     1      43.044 -14.693   2.742  1.00  0.00     0.338 C 
BRANCH  12  13
HETATM   13  C   UNL     1      42.317 -13.757   1.771  1.00  0.00     0.248 C 
HETATM   14  N   UNL     1      41.620 -14.449   0.798  1.00  0.00    -0.319 N 
HETATM   15  H   UNL     1      41.902 -15.390   0.543  1.00  0.00     0.169 HD
HETATM   16  O   UNL     1      42.422 -12.539   1.835  1.00  0.00    -0.271 OA
BRANCH  14  17
HETATM   17  C   UNL     1      40.749 -13.864  -0.099  1.00  0.00     0.094 A 
HETATM   18  S   UNL     1      41.492 -13.668  -1.614  1.00  0.00    -0.076 SA
HETATM   19  C   UNL     1      40.124 -12.890  -2.268  1.00  0.00    -0.012 A 
HETATM   20  C   UNL     1      40.167 -12.398  -3.679  1.00  0.00     0.057 C 
HETATM   21  C   UNL     1      39.066 -12.863  -1.371  1.00  0.00    -0.030 A 
HETATM   22  C   UNL     1      37.695 -12.356  -1.709  1.00  0.00     0.050 C 
HETATM   23  C   UNL     1      39.436 -13.433  -0.076  1.00  0.00     0.080 A 
BRANCH  23  24
HETATM   24  C   UNL     1      38.514 -13.627   1.045  1.00  0.00     0.296 C 
HETATM   25  O   UNL     1      37.644 -14.491   1.054  1.00  0.00    -0.259 OA
BRANCH  24  26
HETATM   26  O   UNL     1      38.692 -12.713   2.039  1.00  0.00    -0.322 OA
HETATM   27  C   UNL     1      37.859 -11.560   1.925  1.00  0.00     0.213 C 
ENDBRANCH  24  26
ENDBRANCH  23  24
ENDBRANCH  14  17
ENDBRANCH  12  13
ENDBRANCH   2  12
BRANCH   1  28
HETATM   28  C   UNL     1      41.325 -14.669   5.300  1.00  0.00    -0.027 A 
HETATM   29  C   UNL     1      42.156 -13.637   5.749  1.00  0.00     0.011 A 
HETATM   30  C   UNL     1      41.633 -12.369   6.056  1.00  0.00     0.030 A 
HETATM   31  C   UNL     1      40.268 -12.065   5.941  1.00  0.00     0.030 A 
HETATM   32  C   UNL     1      39.443 -13.144   5.594  1.00  0.00     0.030 A 
HETATM   33  C   UNL     1      39.956 -14.405   5.259  1.00  0.00     0.011 A 
BRANCH  31  34
HETATM   34  N   UNL     1      39.756 -10.786   6.144  1.00  0.00    -0.382 N 
BRANCH  34  35
HETATM   35  C   UNL     1      39.252  -9.995   5.005  1.00  0.00     0.118 C 
HETATM   36  C   UNL     1      40.363  -9.745   3.998  1.00  0.00     0.026 C 
ENDBRANCH  34  35
BRANCH  34  37
HETATM   37  C   UNL     1      40.046 -10.014   7.363  1.00  0.00     0.118 C 
HETATM   38  C   UNL     1      39.006  -8.927   7.591  1.00  0.00     0.026 C 
ENDBRANCH  34  37
ENDBRANCH  31  34
ENDBRANCH   1  28
BRANCH   6  39
HETATM   39  O   UNL     1      42.256 -18.807   5.164  1.00  0.00    -0.389 OA
HETATM   40  H   UNL     1      41.536 -18.315   5.604  1.00  0.00     0.210 HD
ENDBRANCH   6  39
TORSDOF 10
ENDMDL
MODEL 9
REMARK VINA RESULT:      -7.6      3.662      8.311
REMARK  10 active torsions:
REMARK  status: ('A' for Active; 'I' for Inactive)
REMARK    1  A    between atoms: C_2  and  N_3 
REMARK    2  A    between atoms: N_3  and  C_4 
REMARK    3  A    between atoms: N_3  and  C_37 
REMARK    4  A    between atoms: C_7  and  C_8 
REMARK    5  A    between atoms: N_9  and  C_11 
REMARK    6  A    between atoms: C_11  and  C_12 
REMARK       I    between atoms: C_12  and  N_13 
REMARK    7  A    between atoms: N_13  and  C_14 
REMARK    8  A    between atoms: C_20  and  C_21 
REMARK    9  A    between atoms: C_21  and  O_22 
REMARK   10  A    between atoms: C_28  and  O_29 
ROOT
HETATM    1  C   UNL     1      40.531 -14.762   3.642  1.00  0.00     0.228 C 
HETATM    2  N   UNL     1      40.328 -13.592   4.608  1.00  0.00    -0.054 N 
HETATM    3  H   UNL     1      39.804 -14.050   5.362  1.00  0.00     0.281 HD
HETATM    4  C   UNL     1      39.359 -12.557   4.095  1.00  0.00     0.239 C 
HETATM    5  C   UNL     1      39.613 -12.119   2.662  1.00  0.00     0.066 C 
HETATM    6  C   UNL     1      39.775 -13.304   1.712  1.00  0.00     0.065 C 
HETATM    7  C   UNL     1      40.865 -14.275   2.214  1.00  0.00     0.055 C 
HETATM    8  C   UNL     1      40.091 -12.819   0.285  1.00  0.00     0.038 C 
HETATM    9  C   UNL     1      40.273 -13.982  -0.690  1.00  0.00     0.003 C 
HETATM   10  C   UNL     1      41.317 -14.971  -0.191  1.00  0.00     0.001 C 
HETATM   11  C   UNL     1      41.013 -15.455   1.224  1.00  0.00     0.010 C 
ENDROOT
BRANCH   2  12
HETATM   12  C   UNL     1      41.529 -13.030   5.377  1.00  0.00     0.338 C 
BRANCH  12  13
HETATM   13  C   UNL     1      41.414 -11.668   6.069  1.00  0.00     0.248 C 
HETATM   14  N   UNL     1      40.845 -11.764   7.326  1.00  0.00    -0.319 N 
HETATM   15  H   UNL     1      40.238 -12.545   7.551  1.00  0.00     0.169 HD
HETATM   16  O   UNL     1      41.730 -10.623   5.514  1.00  0.00    -0.271 OA
BRANCH  14  17
HETATM   17  C   UNL     1      40.775 -10.722   8.229  1.00  0.00     0.094 A 
HETATM   18  S   UNL     1      39.327  -9.855   8.030  1.00  0.00    -0.076 SA
HETATM   19  C   UNL     1      39.752  -8.724   9.232  1.00  0.00    -0.012 A 
HETATM   20  C   UNL     1      38.825  -7.588   9.528  1.00  0.00     0.057 C 
HETATM   21  C   UNL     1      40.947  -9.054   9.854  1.00  0.00    -0.030 A 
HETATM   22  C   UNL     1      41.509  -8.316  11.033  1.00  0.00     0.050 C 
HETATM   23  C   UNL     1      41.564 -10.237   9.254  1.00  0.00     0.080 A 
BRANCH  23  24
HETATM   24  C   UNL     1      42.781 -10.885   9.747  1.00  0.00     0.296 C 
HETATM   25  O   UNL     1      42.898 -11.309  10.892  1.00  0.00    -0.259 OA
BRANCH  24  26
HETATM   26  O   UNL     1      43.778 -10.909   8.819  1.00  0.00    -0.322 OA
HETATM   27  C   UNL     1      44.560 -12.103   8.837  1.00  0.00     0.213 C 
ENDBRANCH  24  26
ENDBRANCH  23  24
ENDBRANCH  14  17
ENDBRANCH  12  13
ENDBRANCH   2  12
BRANCH   1  28
HETATM   28  C   UNL     1      41.421 -15.869   4.182  1.00  0.00    -0.027 A 
HETATM   29  C   UNL     1      40.856 -16.980   4.817  1.00  0.00     0.011 A 
HETATM   30  C   UNL     1      41.640 -18.098   5.151  1.00  0.00     0.030 A 
HETATM   31  C   UNL     1      43.016 -18.166   4.880  1.00  0.00     0.030 A 
HETATM   32  C   UNL     1      43.576 -16.999   4.343  1.00  0.00     0.030 A 
HETATM   33  C   UNL     1      42.801 -15.889   3.980  1.00  0.00     0.011 A 
BRANCH  31  34
HETATM   34  N   UNL     1      43.779 -19.307   5.114  1.00  0.00    -0.382 N 
BRANCH  34  35
HETATM   35  C   UNL     1      43.958 -19.816   6.488  1.00  0.00     0.118 C 
HETATM   36  C   UNL     1      44.336 -18.683   7.428  1.00  0.00     0.026 C 
ENDBRANCH  34  35
BRANCH  34  37
HETATM   37  C   UNL     1      44.745 -19.816   4.127  1.00  0.00     0.118 C 
HETATM   38  C   UNL     1      44.051 -20.241   2.842  1.00  0.00     0.026 C 
ENDBRANCH  34  37
ENDBRANCH  31  34
ENDBRANCH   1  28
BRANCH   6  39
HETATM   39  O   UNL     1      38.518 -13.999   1.715  1.00  0.00    -0.389 OA
HETATM   40  H   UNL     1      37.837 -13.422   1.319  1.00  0.00     0.210 HD
ENDBRANCH   6  39
TORSDOF 10
ENDMDL
MODEL 10
REMARK VINA RESULT:      -7.6      2.944      8.268
REMARK  10 active torsions:
REMARK  status: ('A' for Active; 'I' for Inactive)
REMARK    1  A    between atoms: C_2  and  N_3 
REMARK    2  A    between atoms: N_3  and  C_4 
REMARK    3  A    between atoms: N_3  and  C_37 
REMARK    4  A    between atoms: C_7  and  C_8 
REMARK    5  A    between atoms: N_9  and  C_11 
REMARK    6  A    between atoms: C_11  and  C_12 
REMARK       I    between atoms: C_12  and  N_13 
REMARK    7  A    between atoms: N_13  and  C_14 
REMARK    8  A    between atoms: C_20  and  C_21 
REMARK    9  A    between atoms: C_21  and  O_22 
REMARK   10  A    between atoms: C_28  and  O_29 
ROOT
HETATM    1  C   UNL     1      42.078 -16.461   3.834  1.00  0.00     0.228 C 
HETATM    2  N   UNL     1      42.045 -16.980   2.394  1.00  0.00    -0.054 N 
HETATM    3  H   UNL     1      41.038 -16.956   2.201  1.00  0.00     0.281 HD
HETATM    4  C   UNL     1      42.382 -18.445   2.280  1.00  0.00     0.239 C 
HETATM    5  C   UNL     1      43.630 -18.860   3.043  1.00  0.00     0.066 C 
HETATM    6  C   UNL     1      43.622 -18.362   4.486  1.00  0.00     0.065 C 
HETATM    7  C   UNL     1      43.396 -16.836   4.547  1.00  0.00     0.055 C 
HETATM    8  C   UNL     1      44.929 -18.750   5.204  1.00  0.00     0.038 C 
HETATM    9  C   UNL     1      44.959 -18.254   6.649  1.00  0.00     0.003 C 
HETATM   10  C   UNL     1      44.699 -16.757   6.732  1.00  0.00     0.001 C 
HETATM   11  C   UNL     1      43.407 -16.363   6.021  1.00  0.00     0.010 C 
ENDROOT
BRANCH   2  12
HETATM   12  C   UNL     1      42.587 -16.101   1.261  1.00  0.00     0.338 C 
BRANCH  12  13
HETATM   13  C   UNL     1      41.644 -15.138   0.533  1.00  0.00     0.248 C 
HETATM   14  N   UNL     1      42.328 -14.204  -0.223  1.00  0.00    -0.319 N 
HETATM   15  H   UNL     1      43.283 -13.958   0.015  1.00  0.00     0.169 HD
HETATM   16  O   UNL     1      40.429 -15.173   0.684  1.00  0.00    -0.271 OA
BRANCH  14  17
HETATM   17  C   UNL     1      41.728 -13.327  -1.104  1.00  0.00     0.094 A 
HETATM   18  S   UNL     1      42.005 -11.719  -0.632  1.00  0.00    -0.076 SA
HETATM   19  C   UNL     1      41.057 -11.102  -1.905  1.00  0.00    -0.012 A 
HETATM   20  C   UNL     1      40.863  -9.624  -2.023  1.00  0.00     0.057 C 
HETATM   21  C   UNL     1      40.606 -12.106  -2.749  1.00  0.00    -0.030 A 
HETATM   22  C   UNL     1      39.854 -11.856  -4.023  1.00  0.00     0.050 C 
HETATM   23  C   UNL     1      40.995 -13.433  -2.271  1.00  0.00     0.080 A 
BRANCH  23  24
HETATM   24  C   UNL     1      40.746 -14.685  -2.989  1.00  0.00     0.296 C 
HETATM   25  O   UNL     1      41.617 -15.286  -3.608  1.00  0.00    -0.259 OA
BRANCH  24  26
HETATM   26  O   UNL     1      39.440 -15.071  -2.940  1.00  0.00    -0.322 OA
HETATM   27  C   UNL     1      39.024 -15.857  -4.055  1.00  0.00     0.213 C 
ENDBRANCH  24  26
ENDBRANCH  23  24
ENDBRANCH  14  17
ENDBRANCH  12  13
ENDBRANCH   2  12
BRANCH   1  28
HETATM   28  C   UNL     1      41.639 -15.014   3.986  1.00  0.00    -0.027 A 
HETATM   29  C   UNL     1      42.560 -13.977   3.804  1.00  0.00     0.011 A 
HETATM   30  C   UNL     1      42.138 -12.637   3.753  1.00  0.00     0.030 A 
HETATM   31  C   UNL     1      40.793 -12.261   3.884  1.00  0.00     0.030 A 
HETATM   32  C   UNL     1      39.907 -13.308   4.172  1.00  0.00     0.030 A 
HETATM   33  C   UNL     1      40.310 -14.650   4.199  1.00  0.00     0.011 A 
BRANCH  31  34
HETATM   34  N   UNL     1      40.354 -10.948   3.732  1.00  0.00    -0.382 N 
BRANCH  34  35
HETATM   35  C   UNL     1      40.407 -10.292   2.411  1.00  0.00     0.118 C 
HETATM   36  C   UNL     1      39.157 -10.613   1.609  1.00  0.00     0.026 C 
ENDBRANCH  34  35
BRANCH  34  37
HETATM   37  C   UNL     1      40.207 -10.037   4.879  1.00  0.00     0.118 C 
HETATM   38  C   UNL     1      41.461  -9.202   5.087  1.00  0.00     0.026 C 
ENDBRANCH  34  37
ENDBRANCH  31  34
ENDBRANCH   1  28
BRANCH   6  39
HETATM   39  O   UNL     1      42.511 -19.007   5.129  1.00  0.00    -0.389 OA
HETATM   40  H   UNL     1      41.682 -18.621   4.789  1.00  0.00     0.210 HD
ENDBRANCH   6  39
TORSDOF 10
ENDMDL
