MODEL 1
REMARK VINA RESULT:     -10.7      0.000      0.000
REMARK  6 active torsions:
REMARK  status: ('A' for Active; 'I' for Inactive)
REMARK    1  A    between atoms: C_8  and  N_9 
REMARK       I    between atoms: N_9  and  C_10 
REMARK    2  A    between atoms: C_10  and  C_12 
REMARK    3  A    between atoms: C_16  and  C_17 
REMARK    4  A    between atoms: C_17  and  N_18 
REMARK       I    between atoms: N_18  and  C_19 
REMARK    5  A    between atoms: C_19  and  C_21 
REMARK    6  A    between atoms: C_25  and  C_31 
REMARK       I    between atoms: C_31  and  N_33 
ROOT
HETATM    1  C   UNL     1      40.764 -11.069   5.881  1.00  0.00     0.032 A 
HETATM    2  C   UNL     1      39.371 -11.178   5.804  1.00  0.00     0.017 A 
HETATM    3  C   UNL     1      38.782 -11.794   4.698  1.00  0.00     0.002 A 
HETATM    4  C   UNL     1      39.578 -12.295   3.665  1.00  0.00     0.009 A 
HETATM    5  C   UNL     1      40.975 -12.193   3.728  1.00  0.00    -0.040 A 
HETATM    6  C   UNL     1      41.559 -11.566   4.837  1.00  0.00     0.026 A 
ENDROOT
BRANCH   5   7
HETATM    7  C   UNL     1      41.833 -12.704   2.601  1.00  0.00     0.161 C 
BRANCH   7   8
HETATM    8  N   UNL     1      42.155 -14.098   2.787  1.00  0.00    -0.351 N 
HETATM    9  C   UNL     1      43.391 -14.516   3.225  1.00  0.00     0.268 C 
HETATM   10  O   UNL     1      44.288 -13.714   3.472  1.00  0.00    -0.266 OA
HETATM   11  H   UNL     1      41.403 -14.764   2.715  1.00  0.00     0.163 HD
BRANCH   9  12
HETATM   12  C   UNL     1      43.547 -15.960   3.353  1.00  0.00     0.103 A 
HETATM   13  C   UNL     1      43.638 -16.934   2.369  1.00  0.00     0.049 A 
HETATM   14  C   UNL     1      43.848 -18.197   2.981  1.00  0.00    -0.006 A 
HETATM   15  C   UNL     1      44.039 -19.498   2.477  1.00  0.00     0.030 A 
HETATM   16  C   UNL     1      43.871 -17.988   4.359  1.00  0.00     0.045 A 
HETATM   17  C   UNL     1      44.255 -20.568   3.361  1.00  0.00     0.032 A 
HETATM   18  C   UNL     1      44.288 -20.333   4.737  1.00  0.00     0.019 A 
HETATM   19  C   UNL     1      44.090 -19.045   5.257  1.00  0.00     0.031 A 
HETATM   20  N   UNL     1      43.662 -16.635   4.563  1.00  0.00    -0.346 N 
HETATM   21  C   UNL     1      43.588 -15.999   5.866  1.00  0.00     0.156 C 
BRANCH  17  22
HETATM   22  C   UNL     1      44.475 -21.919   2.771  1.00  0.00     0.249 C 
HETATM   23  O   UNL     1      44.391 -22.115   1.564  1.00  0.00    -0.268 OA
HETATM   24  N   UNL     1      44.753 -22.957   3.616  1.00  0.00    -0.366 N 
HETATM   25  H   UNL     1      44.639 -22.912   4.616  1.00  0.00     0.159 HD
HETATM   26  H   UNL     1      44.817 -23.873   3.189  1.00  0.00     0.159 HD
ENDBRANCH  17  22
ENDBRANCH   9  12
ENDBRANCH   7   8
ENDBRANCH   5   7
BRANCH   1  27
HETATM   27  C   UNL     1      41.450 -10.397   7.022  1.00  0.00     0.256 C 
HETATM   28  N   UNL     1      41.461 -11.112   8.206  1.00  0.00    -0.323 N 
HETATM   29  H   UNL     1      41.089 -12.050   8.184  1.00  0.00     0.169 HD
HETATM   30  O   UNL     1      41.969  -9.307   6.813  1.00  0.00    -0.267 OA
BRANCH  28  31
HETATM   31  C   UNL     1      42.029 -10.712   9.438  1.00  0.00     0.035 A 
HETATM   32  C   UNL     1      43.372 -10.887   9.768  1.00  0.00     0.030 A 
HETATM   33  C   UNL     1      43.859 -10.470  11.010  1.00  0.00     0.010 A 
HETATM   34  C   UNL     1      43.010  -9.859  11.939  1.00  0.00    -0.048 A 
HETATM   35  C   UNL     1      43.532  -9.458  13.294  1.00  0.00     0.069 C 
HETATM   36  C   UNL     1      41.653  -9.684  11.626  1.00  0.00    -0.022 A 
HETATM   37  C   UNL     1      42.597  -8.485  14.021  1.00  0.00     0.277 C 
HETATM   38  N   UNL     1      41.211  -8.972  13.983  1.00  0.00     0.088 N 
HETATM   39  C   UNL     1      40.345  -8.145  14.821  1.00  0.00     0.310 C 
HETATM   40  C   UNL     1      40.720  -8.985  12.594  1.00  0.00     0.311 C 
HETATM   41  C   UNL     1      41.178 -10.101  10.370  1.00  0.00     0.039 A 
ENDBRANCH  28  31
ENDBRANCH   1  27
TORSDOF 6
ENDMDL
MODEL 2
REMARK VINA RESULT:     -10.0      1.424      1.876
REMARK  6 active torsions:
REMARK  status: ('A' for Active; 'I' for Inactive)
REMARK    1  A    between atoms: C_8  and  N_9 
REMARK       I    between atoms: N_9  and  C_10 
REMARK    2  A    between atoms: C_10  and  C_12 
REMARK    3  A    between atoms: C_16  and  C_17 
REMARK    4  A    between atoms: C_17  and  N_18 
REMARK       I    between atoms: N_18  and  C_19 
REMARK    5  A    between atoms: C_19  and  C_21 
REMARK    6  A    between atoms: C_25  and  C_31 
REMARK       I    between atoms: C_31  and  N_33 
ROOT
HETATM    1  C   UNL     1      40.971 -11.316   6.608  1.00  0.00     0.032 A 
HETATM    2  C   UNL     1      39.596 -11.569   6.537  1.00  0.00     0.017 A 
HETATM    3  C   UNL     1      39.070 -12.244   5.433  1.00  0.00     0.002 A 
HETATM    4  C   UNL     1      39.910 -12.660   4.397  1.00  0.00     0.009 A 
HETATM    5  C   UNL     1      41.289 -12.413   4.454  1.00  0.00    -0.040 A 
HETATM    6  C   UNL     1      41.809 -11.728   5.562  1.00  0.00     0.026 A 
ENDROOT
BRANCH   5   7
HETATM    7  C   UNL     1      42.191 -12.832   3.324  1.00  0.00     0.161 C 
BRANCH   7   8
HETATM    8  N   UNL     1      42.673 -14.178   3.518  1.00  0.00    -0.351 N 
HETATM    9  C   UNL     1      42.069 -15.267   2.935  1.00  0.00     0.268 C 
HETATM   10  O   UNL     1      41.077 -15.143   2.219  1.00  0.00    -0.266 OA
HETATM   11  H   UNL     1      43.553 -14.293   3.994  1.00  0.00     0.163 HD
BRANCH   9  12
HETATM   12  C   UNL     1      42.681 -16.554   3.242  1.00  0.00     0.103 A 
HETATM   13  C   UNL     1      42.838 -17.194   4.463  1.00  0.00     0.049 A 
HETATM   14  C   UNL     1      43.439 -18.462   4.251  1.00  0.00    -0.006 A 
HETATM   15  C   UNL     1      43.794 -19.521   5.109  1.00  0.00     0.030 A 
HETATM   16  C   UNL     1      43.662 -18.588   2.881  1.00  0.00     0.045 A 
HETATM   17  C   UNL     1      44.362 -20.691   4.580  1.00  0.00     0.032 A 
HETATM   18  C   UNL     1      44.564 -20.802   3.203  1.00  0.00     0.019 A 
HETATM   19  C   UNL     1      44.225 -19.753   2.335  1.00  0.00     0.031 A 
HETATM   20  N   UNL     1      43.221 -17.415   2.293  1.00  0.00    -0.346 N 
HETATM   21  C   UNL     1      43.297 -17.126   0.873  1.00  0.00     0.156 C 
BRANCH  17  22
HETATM   22  C   UNL     1      44.695 -21.789   5.532  1.00  0.00     0.249 C 
HETATM   23  O   UNL     1      44.259 -21.802   6.677  1.00  0.00    -0.268 OA
HETATM   24  N   UNL     1      45.530 -22.785   5.105  1.00  0.00    -0.366 N 
HETATM   25  H   UNL     1      46.078 -22.734   4.261  1.00  0.00     0.159 HD
HETATM   26  H   UNL     1      45.799 -23.468   5.801  1.00  0.00     0.159 HD
ENDBRANCH  17  22
ENDBRANCH   9  12
ENDBRANCH   7   8
ENDBRANCH   5   7
BRANCH   1  27
HETATM   27  C   UNL     1      41.587 -10.576   7.747  1.00  0.00     0.256 C 
HETATM   28  N   UNL     1      41.501 -11.207   8.975  1.00  0.00    -0.323 N 
HETATM   29  H   UNL     1      41.113 -12.139   8.990  1.00  0.00     0.169 HD
HETATM   30  O   UNL     1      42.140  -9.511   7.502  1.00  0.00    -0.267 OA
BRANCH  28  31
HETATM   31  C   UNL     1      41.988 -10.730  10.214  1.00  0.00     0.035 A 
HETATM   32  C   UNL     1      43.304 -10.887  10.644  1.00  0.00     0.030 A 
HETATM   33  C   UNL     1      43.711 -10.392  11.887  1.00  0.00     0.010 A 
HETATM   34  C   UNL     1      42.806  -9.722  12.716  1.00  0.00    -0.048 A 
HETATM   35  C   UNL     1      43.239  -9.236  14.075  1.00  0.00     0.069 C 
HETATM   36  C   UNL     1      41.474  -9.564  12.302  1.00  0.00    -0.022 A 
HETATM   37  C   UNL     1      42.264  -8.216  14.675  1.00  0.00     0.277 C 
HETATM   38  N   UNL     1      40.880  -8.703  14.575  1.00  0.00     0.088 N 
HETATM   39  C   UNL     1      39.966  -7.822  15.299  1.00  0.00     0.310 C 
HETATM   40  C   UNL     1      40.483  -8.803  13.160  1.00  0.00     0.311 C 
HETATM   41  C   UNL     1      41.081 -10.060  11.047  1.00  0.00     0.039 A 
ENDBRANCH  28  31
ENDBRANCH   1  27
TORSDOF 6
ENDMDL
MODEL 3
REMARK VINA RESULT:      -9.6      1.477      1.681
REMARK  6 active torsions:
REMARK  status: ('A' for Active; 'I' for Inactive)
REMARK    1  A    between atoms: C_8  and  N_9 
REMARK       I    between atoms: N_9  and  C_10 
REMARK    2  A    between atoms: C_10  and  C_12 
REMARK    3  A    between atoms: C_16  and  C_17 
REMARK    4  A    between atoms: C_17  and  N_18 
REMARK       I    between atoms: N_18  and  C_19 
REMARK    5  A    between atoms: C_19  and  C_21 
REMARK    6  A    between atoms: C_25  and  C_31 
REMARK       I    between atoms: C_31  and  N_33 
ROOT
HETATM    1  C   UNL     1      40.200 -11.706   5.065  1.00  0.00     0.032 A 
HETATM    2  C   UNL     1      39.153 -10.778   5.090  1.00  0.00     0.017 A 
HETATM    3  C   UNL     1      38.286 -10.679   4.000  1.00  0.00     0.002 A 
HETATM    4  C   UNL     1      38.464 -11.498   2.882  1.00  0.00     0.009 A 
HETATM    5  C   UNL     1      39.509 -12.432   2.843  1.00  0.00    -0.040 A 
HETATM    6  C   UNL     1      40.381 -12.520   3.937  1.00  0.00     0.026 A 
ENDROOT
BRANCH   5   7
HETATM    7  C   UNL     1      39.723 -13.293   1.626  1.00  0.00     0.161 C 
BRANCH   7   8
HETATM    8  N   UNL     1      40.409 -14.514   1.972  1.00  0.00    -0.351 N 
HETATM    9  C   UNL     1      41.560 -14.917   1.335  1.00  0.00     0.268 C 
HETATM   10  O   UNL     1      42.058 -14.253   0.430  1.00  0.00    -0.266 OA
HETATM   11  H   UNL     1      40.095 -15.009   2.791  1.00  0.00     0.163 HD
BRANCH   9  12
HETATM   12  C   UNL     1      42.120 -16.178   1.806  1.00  0.00     0.103 A 
HETATM   13  C   UNL     1      42.116 -17.430   1.206  1.00  0.00     0.049 A 
HETATM   14  C   UNL     1      42.843 -18.338   2.019  1.00  0.00    -0.006 A 
HETATM   15  C   UNL     1      43.179 -19.700   1.888  1.00  0.00     0.030 A 
HETATM   16  C   UNL     1      43.283 -17.630   3.135  1.00  0.00     0.045 A 
HETATM   17  C   UNL     1      43.955 -20.329   2.875  1.00  0.00     0.032 A 
HETATM   18  C   UNL     1      44.397 -19.596   3.979  1.00  0.00     0.019 A 
HETATM   19  C   UNL     1      44.064 -18.242   4.130  1.00  0.00     0.031 A 
HETATM   20  N   UNL     1      42.814 -16.335   3.000  1.00  0.00    -0.346 N 
HETATM   21  C   UNL     1      43.030 -15.275   3.967  1.00  0.00     0.156 C 
BRANCH  17  22
HETATM   22  C   UNL     1      44.301 -21.764   2.672  1.00  0.00     0.249 C 
HETATM   23  O   UNL     1      44.227 -22.294   1.569  1.00  0.00    -0.268 OA
HETATM   24  N   UNL     1      44.685 -22.498   3.760  1.00  0.00    -0.366 N 
HETATM   25  H   UNL     1      44.574 -22.188   4.713  1.00  0.00     0.159 HD
HETATM   26  H   UNL     1      44.833 -23.486   3.600  1.00  0.00     0.159 HD
ENDBRANCH  17  22
ENDBRANCH   9  12
ENDBRANCH   7   8
ENDBRANCH   5   7
BRANCH   1  27
HETATM   27  C   UNL     1      41.174 -11.839   6.186  1.00  0.00     0.256 C 
HETATM   28  N   UNL     1      41.009 -10.937   7.222  1.00  0.00    -0.323 N 
HETATM   29  H   UNL     1      40.204 -10.328   7.180  1.00  0.00     0.169 HD
HETATM   30  O   UNL     1      42.002 -12.740   6.118  1.00  0.00    -0.267 OA
BRANCH  28  31
HETATM   31  C   UNL     1      41.791 -10.833   8.395  1.00  0.00     0.035 A 
HETATM   32  C   UNL     1      43.147 -11.150   8.455  1.00  0.00     0.030 A 
HETATM   33  C   UNL     1      43.854 -11.027   9.655  1.00  0.00     0.010 A 
HETATM   34  C   UNL     1      43.215 -10.573  10.813  1.00  0.00    -0.048 A 
HETATM   35  C   UNL     1      43.971 -10.490  12.114  1.00  0.00     0.069 C 
HETATM   36  C   UNL     1      41.847 -10.259  10.772  1.00  0.00    -0.022 A 
HETATM   37  C   UNL     1      43.249  -9.636  13.163  1.00  0.00     0.277 C 
HETATM   38  N   UNL     1      41.835 -10.025  13.263  1.00  0.00     0.088 N 
HETATM   39  C   UNL     1      41.185  -9.340  14.379  1.00  0.00     0.310 C 
HETATM   40  C   UNL     1      41.139  -9.722  12.000  1.00  0.00     0.311 C 
HETATM   41  C   UNL     1      41.151 -10.380   9.557  1.00  0.00     0.039 A 
ENDBRANCH  28  31
ENDBRANCH   1  27
TORSDOF 6
ENDMDL
MODEL 4
REMARK VINA RESULT:      -9.5      1.159      1.996
REMARK  6 active torsions:
REMARK  status: ('A' for Active; 'I' for Inactive)
REMARK    1  A    between atoms: C_8  and  N_9 
REMARK       I    between atoms: N_9  and  C_10 
REMARK    2  A    between atoms: C_10  and  C_12 
REMARK    3  A    between atoms: C_16  and  C_17 
REMARK    4  A    between atoms: C_17  and  N_18 
REMARK       I    between atoms: N_18  and  C_19 
REMARK    5  A    between atoms: C_19  and  C_21 
REMARK    6  A    between atoms: C_25  and  C_31 
REMARK       I    between atoms: C_31  and  N_33 
ROOT
HETATM    1  C   UNL     1      40.029 -11.201   4.623  1.00  0.00     0.032 A 
HETATM    2  C   UNL     1      38.732 -11.318   4.111  1.00  0.00     0.017 A 
HETATM    3  C   UNL     1      38.527 -11.929   2.872  1.00  0.00     0.002 A 
HETATM    4  C   UNL     1      39.612 -12.416   2.139  1.00  0.00     0.009 A 
HETATM    5  C   UNL     1      40.917 -12.305   2.639  1.00  0.00    -0.040 A 
HETATM    6  C   UNL     1      41.116 -11.684   3.881  1.00  0.00     0.026 A 
ENDROOT
BRANCH   5   7
HETATM    7  C   UNL     1      42.091 -12.801   1.837  1.00  0.00     0.161 C 
BRANCH   7   8
HETATM    8  N   UNL     1      42.373 -14.184   2.134  1.00  0.00    -0.351 N 
HETATM    9  C   UNL     1      43.415 -14.565   2.948  1.00  0.00     0.268 C 
HETATM   10  O   UNL     1      44.165 -13.736   3.459  1.00  0.00    -0.266 OA
HETATM   11  H   UNL     1      41.701 -14.872   1.834  1.00  0.00     0.163 HD
BRANCH   9  12
HETATM   12  C   UNL     1      43.559 -16.003   3.138  1.00  0.00     0.103 A 
HETATM   13  C   UNL     1      43.705 -17.013   2.196  1.00  0.00     0.049 A 
HETATM   14  C   UNL     1      43.876 -18.252   2.866  1.00  0.00    -0.006 A 
HETATM   15  C   UNL     1      44.092 -19.572   2.420  1.00  0.00     0.030 A 
HETATM   16  C   UNL     1      43.819 -17.993   4.234  1.00  0.00     0.045 A 
HETATM   17  C   UNL     1      44.254 -20.608   3.354  1.00  0.00     0.032 A 
HETATM   18  C   UNL     1      44.207 -20.324   4.721  1.00  0.00     0.019 A 
HETATM   19  C   UNL     1      43.983 -19.018   5.181  1.00  0.00     0.031 A 
HETATM   20  N   UNL     1      43.602 -16.634   4.376  1.00  0.00    -0.346 N 
HETATM   21  C   UNL     1      43.453 -15.951   5.648  1.00  0.00     0.156 C 
BRANCH  17  22
HETATM   22  C   UNL     1      44.504 -21.980   2.827  1.00  0.00     0.249 C 
HETATM   23  O   UNL     1      44.438 -22.231   1.629  1.00  0.00    -0.268 OA
HETATM   24  N   UNL     1      44.791 -22.974   3.720  1.00  0.00    -0.366 N 
HETATM   25  H   UNL     1      44.664 -22.887   4.716  1.00  0.00     0.159 HD
HETATM   26  H   UNL     1      44.875 -23.907   3.336  1.00  0.00     0.159 HD
ENDBRANCH  17  22
ENDBRANCH   9  12
ENDBRANCH   7   8
ENDBRANCH   5   7
BRANCH   1  27
HETATM   27  C   UNL     1      40.314 -10.535   5.927  1.00  0.00     0.256 C 
HETATM   28  N   UNL     1      39.535 -10.958   6.988  1.00  0.00    -0.323 N 
HETATM   29  H   UNL     1      38.907 -11.731   6.822  1.00  0.00     0.169 HD
HETATM   30  O   UNL     1      41.221  -9.712   5.960  1.00  0.00    -0.267 OA
BRANCH  28  31
HETATM   31  C   UNL     1      39.586 -10.493   8.322  1.00  0.00     0.035 A 
HETATM   32  C   UNL     1      38.501  -9.928   8.991  1.00  0.00     0.030 A 
HETATM   33  C   UNL     1      38.631  -9.485  10.310  1.00  0.00     0.010 A 
HETATM   34  C   UNL     1      39.849  -9.610  10.986  1.00  0.00    -0.048 A 
HETATM   35  C   UNL     1      39.994  -9.084  12.391  1.00  0.00     0.069 C 
HETATM   36  C   UNL     1      40.954 -10.167  10.324  1.00  0.00    -0.022 A 
HETATM   37  C   UNL     1      41.239  -9.631  13.099  1.00  0.00     0.277 C 
HETATM   38  N   UNL     1      42.423  -9.502  12.237  1.00  0.00     0.088 N 
HETATM   39  C   UNL     1      43.639  -9.856  12.968  1.00  0.00     0.310 C 
HETATM   40  C   UNL     1      42.273 -10.356  11.046  1.00  0.00     0.311 C 
HETATM   41  C   UNL     1      40.807 -10.616   9.000  1.00  0.00     0.039 A 
ENDBRANCH  28  31
ENDBRANCH   1  27
TORSDOF 6
ENDMDL
MODEL 5
REMARK VINA RESULT:      -9.5      2.829     10.781
REMARK  6 active torsions:
REMARK  status: ('A' for Active; 'I' for Inactive)
REMARK    1  A    between atoms: C_8  and  N_9 
REMARK       I    between atoms: N_9  and  C_10 
REMARK    2  A    between atoms: C_10  and  C_12 
REMARK    3  A    between atoms: C_16  and  C_17 
REMARK    4  A    between atoms: C_17  and  N_18 
REMARK       I    between atoms: N_18  and  C_19 
REMARK    5  A    between atoms: C_19  and  C_21 
REMARK    6  A    between atoms: C_25  and  C_31 
REMARK       I    between atoms: C_31  and  N_33 
ROOT
HETATM    1  C   UNL     1      39.509 -14.019   2.719  1.00  0.00     0.032 A 
HETATM    2  C   UNL     1      38.896 -14.380   1.513  1.00  0.00     0.017 A 
HETATM    3  C   UNL     1      38.124 -13.446   0.820  1.00  0.00     0.002 A 
HETATM    4  C   UNL     1      37.957 -12.155   1.328  1.00  0.00     0.009 A 
HETATM    5  C   UNL     1      38.564 -11.779   2.534  1.00  0.00    -0.040 A 
HETATM    6  C   UNL     1      39.330 -12.725   3.230  1.00  0.00     0.026 A 
ENDROOT
BRANCH   5   7
HETATM    7  C   UNL     1      38.358 -10.399   3.099  1.00  0.00     0.161 C 
BRANCH   7   8
HETATM    8  N   UNL     1      38.483 -10.406   4.537  1.00  0.00    -0.351 N 
HETATM    9  C   UNL     1      39.509  -9.762   5.189  1.00  0.00     0.268 C 
HETATM   10  O   UNL     1      40.378  -9.152   4.571  1.00  0.00    -0.266 OA
HETATM   11  H   UNL     1      37.718 -10.788   5.069  1.00  0.00     0.163 HD
BRANCH   9  12
HETATM   12  C   UNL     1      39.487  -9.875   6.642  1.00  0.00     0.103 A 
HETATM   13  C   UNL     1      39.988 -10.876   7.463  1.00  0.00     0.049 A 
HETATM   14  C   UNL     1      39.785 -10.511   8.819  1.00  0.00    -0.006 A 
HETATM   15  C   UNL     1      40.114 -11.121  10.046  1.00  0.00     0.030 A 
HETATM   16  C   UNL     1      39.138  -9.277   8.822  1.00  0.00     0.045 A 
HETATM   17  C   UNL     1      39.795 -10.481  11.255  1.00  0.00     0.032 A 
HETATM   18  C   UNL     1      39.159  -9.238  11.233  1.00  0.00     0.019 A 
HETATM   19  C   UNL     1      38.815  -8.621  10.022  1.00  0.00     0.031 A 
HETATM   20  N   UNL     1      38.944  -8.923   7.498  1.00  0.00    -0.346 N 
HETATM   21  C   UNL     1      38.278  -7.711   7.058  1.00  0.00     0.156 C 
BRANCH  17  22
HETATM   22  C   UNL     1      40.189 -11.161  12.521  1.00  0.00     0.249 C 
HETATM   23  O   UNL     1      40.877 -10.598  13.366  1.00  0.00    -0.268 OA
HETATM   24  N   UNL     1      39.785 -12.452  12.717  1.00  0.00    -0.366 N 
HETATM   25  H   UNL     1      39.398 -13.034  11.991  1.00  0.00     0.159 HD
HETATM   26  H   UNL     1      40.138 -12.907  13.549  1.00  0.00     0.159 HD
ENDBRANCH  17  22
ENDBRANCH   9  12
ENDBRANCH   7   8
ENDBRANCH   5   7
BRANCH   1  27
HETATM   27  C   UNL     1      40.322 -14.980   3.519  1.00  0.00     0.256 C 
HETATM   28  N   UNL     1      41.298 -15.659   2.813  1.00  0.00    -0.323 N 
HETATM   29  H   UNL     1      41.440 -15.393   1.849  1.00  0.00     0.169 HD
HETATM   30  O   UNL     1      40.089 -15.061   4.720  1.00  0.00    -0.267 OA
BRANCH  28  31
HETATM   31  C   UNL     1      42.197 -16.626   3.316  1.00  0.00     0.035 A 
HETATM   32  C   UNL     1      42.919 -16.475   4.499  1.00  0.00     0.030 A 
HETATM   33  C   UNL     1      43.796 -17.476   4.929  1.00  0.00     0.010 A 
HETATM   34  C   UNL     1      43.955 -18.650   4.187  1.00  0.00    -0.048 A 
HETATM   35  C   UNL     1      44.939 -19.701   4.632  1.00  0.00     0.069 C 
HETATM   36  C   UNL     1      43.243 -18.813   2.988  1.00  0.00    -0.022 A 
HETATM   37  C   UNL     1      44.715 -21.050   3.938  1.00  0.00     0.277 C 
HETATM   38  N   UNL     1      44.579 -20.868   2.485  1.00  0.00     0.088 N 
HETATM   39  C   UNL     1      44.543 -22.159   1.801  1.00  0.00     0.310 C 
HETATM   40  C   UNL     1      43.361 -20.094   2.186  1.00  0.00     0.311 C 
HETATM   41  C   UNL     1      42.359 -17.803   2.571  1.00  0.00     0.039 A 
ENDBRANCH  28  31
ENDBRANCH   1  27
TORSDOF 6
ENDMDL
MODEL 6
REMARK VINA RESULT:      -9.5      3.179      9.473
REMARK  6 active torsions:
REMARK  status: ('A' for Active; 'I' for Inactive)
REMARK    1  A    between atoms: C_8  and  N_9 
REMARK       I    between atoms: N_9  and  C_10 
REMARK    2  A    between atoms: C_10  and  C_12 
REMARK    3  A    between atoms: C_16  and  C_17 
REMARK    4  A    between atoms: C_17  and  N_18 
REMARK       I    between atoms: N_18  and  C_19 
REMARK    5  A    between atoms: C_19  and  C_21 
REMARK    6  A    between atoms: C_25  and  C_31 
REMARK       I    between atoms: C_31  and  N_33 
ROOT
HETATM    1  C   UNL     1      44.656 -12.504   8.683  1.00  0.00     0.032 A 
HETATM    2  C   UNL     1      45.522 -12.265   9.756  1.00  0.00     0.017 A 
HETATM    3  C   UNL     1      45.227 -11.256  10.675  1.00  0.00     0.002 A 
HETATM    4  C   UNL     1      44.076 -10.479  10.523  1.00  0.00     0.009 A 
HETATM    5  C   UNL     1      43.200 -10.706   9.453  1.00  0.00    -0.040 A 
HETATM    6  C   UNL     1      43.506 -11.715   8.529  1.00  0.00     0.026 A 
ENDROOT
BRANCH   5   7
HETATM    7  C   UNL     1      41.976  -9.849   9.268  1.00  0.00     0.161 C 
BRANCH   7   8
HETATM    8  N   UNL     1      41.379 -10.071   7.973  1.00  0.00    -0.351 N 
HETATM    9  C   UNL     1      40.155 -10.680   7.822  1.00  0.00     0.268 C 
HETATM   10  O   UNL     1      39.510 -11.072   8.791  1.00  0.00    -0.266 OA
HETATM   11  H   UNL     1      41.826  -9.648   7.176  1.00  0.00     0.163 HD
BRANCH   9  12
HETATM   12  C   UNL     1      39.704 -10.830   6.444  1.00  0.00     0.103 A 
HETATM   13  C   UNL     1      39.823 -11.913   5.584  1.00  0.00     0.049 A 
HETATM   14  C   UNL     1      39.171 -11.610   4.360  1.00  0.00    -0.006 A 
HETATM   15  C   UNL     1      38.957 -12.335   3.171  1.00  0.00     0.030 A 
HETATM   16  C   UNL     1      38.660 -10.319   4.474  1.00  0.00     0.045 A 
HETATM   17  C   UNL     1      38.230 -11.756   2.119  1.00  0.00     0.032 A 
HETATM   18  C   UNL     1      37.715 -10.466   2.260  1.00  0.00     0.019 A 
HETATM   19  C   UNL     1      37.927  -9.726   3.433  1.00  0.00     0.031 A 
HETATM   20  N   UNL     1      39.015  -9.856   5.730  1.00  0.00    -0.346 N 
HETATM   21  C   UNL     1      38.698  -8.536   6.242  1.00  0.00     0.156 C 
BRANCH  17  22
HETATM   22  C   UNL     1      38.013 -12.578   0.894  1.00  0.00     0.249 C 
HETATM   23  O   UNL     1      38.443 -12.229  -0.199  1.00  0.00    -0.268 OA
HETATM   24  N   UNL     1      37.294 -13.735   1.010  1.00  0.00    -0.366 N 
HETATM   25  H   UNL     1      36.747 -13.977   1.821  1.00  0.00     0.159 HD
HETATM   26  H   UNL     1      37.098 -14.225   0.146  1.00  0.00     0.159 HD
ENDBRANCH  17  22
ENDBRANCH   9  12
ENDBRANCH   7   8
ENDBRANCH   5   7
BRANCH   1  27
HETATM   27  C   UNL     1      44.930 -13.547   7.654  1.00  0.00     0.256 C 
HETATM   28  N   UNL     1      43.951 -14.515   7.519  1.00  0.00    -0.323 N 
HETATM   29  H   UNL     1      43.104 -14.392   8.055  1.00  0.00     0.169 HD
HETATM   30  O   UNL     1      45.961 -13.446   6.999  1.00  0.00    -0.267 OA
BRANCH  28  31
HETATM   31  C   UNL     1      43.957 -15.617   6.634  1.00  0.00     0.035 A 
HETATM   32  C   UNL     1      44.647 -16.804   6.875  1.00  0.00     0.030 A 
HETATM   33  C   UNL     1      44.611 -17.849   5.948  1.00  0.00     0.010 A 
HETATM   34  C   UNL     1      43.872 -17.727   4.767  1.00  0.00    -0.048 A 
HETATM   35  C   UNL     1      43.879 -18.839   3.750  1.00  0.00     0.069 C 
HETATM   36  C   UNL     1      43.180 -16.535   4.503  1.00  0.00    -0.022 A 
HETATM   37  C   UNL     1      42.746 -18.707   2.725  1.00  0.00     0.277 C 
HETATM   38  N   UNL     1      42.694 -17.340   2.185  1.00  0.00     0.088 N 
HETATM   39  C   UNL     1      41.737 -17.252   1.084  1.00  0.00     0.310 C 
HETATM   40  C   UNL     1      42.335 -16.391   3.253  1.00  0.00     0.311 C 
HETATM   41  C   UNL     1      43.219 -15.494   5.448  1.00  0.00     0.039 A 
ENDBRANCH  28  31
ENDBRANCH   1  27
TORSDOF 6
ENDMDL
MODEL 7
REMARK VINA RESULT:      -9.5      4.226      9.153
REMARK  6 active torsions:
REMARK  status: ('A' for Active; 'I' for Inactive)
REMARK    1  A    between atoms: C_8  and  N_9 
REMARK       I    between atoms: N_9  and  C_10 
REMARK    2  A    between atoms: C_10  and  C_12 
REMARK    3  A    between atoms: C_16  and  C_17 
REMARK    4  A    between atoms: C_17  and  N_18 
REMARK       I    between atoms: N_18  and  C_19 
REMARK    5  A    between atoms: C_19  and  C_21 
REMARK    6  A    between atoms: C_25  and  C_31 
REMARK       I    between atoms: C_31  and  N_33 
ROOT
HETATM    1  C   UNL     1      41.073 -11.634   2.962  1.00  0.00     0.032 A 
HETATM    2  C   UNL     1      40.866 -10.319   3.395  1.00  0.00     0.017 A 
HETATM    3  C   UNL     1      40.894 -10.024   4.759  1.00  0.00     0.002 A 
HETATM    4  C   UNL     1      41.121 -11.038   5.694  1.00  0.00     0.009 A 
HETATM    5  C   UNL     1      41.329 -12.359   5.276  1.00  0.00    -0.040 A 
HETATM    6  C   UNL     1      41.291 -12.650   3.905  1.00  0.00     0.026 A 
ENDROOT
BRANCH   5   7
HETATM    7  C   UNL     1      41.542 -13.458   6.283  1.00  0.00     0.161 C 
BRANCH   7   8
HETATM    8  N   UNL     1      41.972 -14.675   5.637  1.00  0.00    -0.351 N 
HETATM    9  C   UNL     1      43.281 -15.097   5.659  1.00  0.00     0.268 C 
HETATM   10  O   UNL     1      44.154 -14.447   6.229  1.00  0.00    -0.266 OA
HETATM   11  H   UNL     1      41.259 -15.287   5.275  1.00  0.00     0.163 HD
BRANCH   9  12
HETATM   12  C   UNL     1      43.541 -16.344   4.952  1.00  0.00     0.103 A 
HETATM   13  C   UNL     1      43.885 -17.593   5.451  1.00  0.00     0.049 A 
HETATM   14  C   UNL     1      43.972 -18.517   4.377  1.00  0.00    -0.006 A 
HETATM   15  C   UNL     1      44.250 -19.896   4.306  1.00  0.00     0.030 A 
HETATM   16  C   UNL     1      43.690 -17.815   3.207  1.00  0.00     0.045 A 
HETATM   17  C   UNL     1      44.234 -20.551   3.064  1.00  0.00     0.032 A 
HETATM   18  C   UNL     1      43.934 -19.831   1.905  1.00  0.00     0.019 A 
HETATM   19  C   UNL     1      43.666 -18.455   1.956  1.00  0.00     0.031 A 
HETATM   20  N   UNL     1      43.458 -16.500   3.573  1.00  0.00    -0.346 N 
HETATM   21  C   UNL     1      43.152 -15.428   2.645  1.00  0.00     0.156 C 
BRANCH  17  22
HETATM   22  C   UNL     1      44.510 -22.015   3.051  1.00  0.00     0.249 C 
HETATM   23  O   UNL     1      44.519 -22.659   2.007  1.00  0.00    -0.268 OA
HETATM   24  N   UNL     1      44.734 -22.643   4.245  1.00  0.00    -0.366 N 
HETATM   25  H   UNL     1      44.544 -22.225   5.142  1.00  0.00     0.159 HD
HETATM   26  H   UNL     1      44.837 -23.649   4.206  1.00  0.00     0.159 HD
ENDBRANCH  17  22
ENDBRANCH   9  12
ENDBRANCH   7   8
ENDBRANCH   5   7
BRANCH   1  27
HETATM   27  C   UNL     1      41.027 -12.017   1.522  1.00  0.00     0.256 C 
HETATM   28  N   UNL     1      40.509 -13.272   1.261  1.00  0.00    -0.323 N 
HETATM   29  H   UNL     1      40.129 -13.787   2.042  1.00  0.00     0.169 HD
HETATM   30  O   UNL     1      41.409 -11.191   0.700  1.00  0.00    -0.267 OA
BRANCH  28  31
HETATM   31  C   UNL     1      40.359 -13.887  -0.004  1.00  0.00     0.035 A 
HETATM   32  C   UNL     1      41.345 -14.659  -0.614  1.00  0.00     0.030 A 
HETATM   33  C   UNL     1      41.125 -15.230  -1.871  1.00  0.00     0.010 A 
HETATM   34  C   UNL     1      39.907 -15.046  -2.533  1.00  0.00    -0.048 A 
HETATM   35  C   UNL     1      39.696 -15.623  -3.909  1.00  0.00     0.069 C 
HETATM   36  C   UNL     1      38.907 -14.262  -1.936  1.00  0.00    -0.022 A 
HETATM   37  C   UNL     1      38.218 -15.655  -4.315  1.00  0.00     0.277 C 
HETATM   38  N   UNL     1      37.583 -14.354  -4.058  1.00  0.00     0.088 N 
HETATM   39  C   UNL     1      36.228 -14.320  -4.603  1.00  0.00     0.310 C 
HETATM   40  C   UNL     1      37.561 -14.082  -2.610  1.00  0.00     0.311 C 
HETATM   41  C   UNL     1      39.139 -13.700  -0.669  1.00  0.00     0.039 A 
ENDBRANCH  28  31
ENDBRANCH   1  27
TORSDOF 6
ENDMDL
MODEL 8
REMARK VINA RESULT:      -9.4      2.249     10.900
REMARK  6 active torsions:
REMARK  status: ('A' for Active; 'I' for Inactive)
REMARK    1  A    between atoms: C_8  and  N_9 
REMARK       I    between atoms: N_9  and  C_10 
REMARK    2  A    between atoms: C_10  and  C_12 
REMARK    3  A    between atoms: C_16  and  C_17 
REMARK    4  A    between atoms: C_17  and  N_18 
REMARK       I    between atoms: N_18  and  C_19 
REMARK    5  A    between atoms: C_19  and  C_21 
REMARK    6  A    between atoms: C_25  and  C_31 
REMARK       I    between atoms: C_31  and  N_33 
ROOT
HETATM    1  C   UNL     1      40.510 -13.567   3.934  1.00  0.00     0.032 A 
HETATM    2  C   UNL     1      39.521 -13.501   2.945  1.00  0.00     0.017 A 
HETATM    3  C   UNL     1      39.051 -12.258   2.515  1.00  0.00     0.002 A 
HETATM    4  C   UNL     1      39.558 -11.082   3.073  1.00  0.00     0.009 A 
HETATM    5  C   UNL     1      40.547 -11.133   4.064  1.00  0.00    -0.040 A 
HETATM    6  C   UNL     1      41.009 -12.384   4.497  1.00  0.00     0.026 A 
ENDROOT
BRANCH   5   7
HETATM    7  C   UNL     1      41.072  -9.867   4.690  1.00  0.00     0.161 C 
BRANCH   7   8
HETATM    8  N   UNL     1      41.246 -10.028   6.113  1.00  0.00    -0.351 N 
HETATM    9  C   UNL     1      40.393  -9.457   7.028  1.00  0.00     0.268 C 
HETATM   10  O   UNL     1      39.438  -8.770   6.672  1.00  0.00    -0.266 OA
HETATM   11  H   UNL     1      41.941 -10.687   6.426  1.00  0.00     0.163 HD
BRANCH   9  12
HETATM   12  C   UNL     1      40.718  -9.717   8.425  1.00  0.00     0.103 A 
HETATM   13  C   UNL     1      41.614  -9.068   9.264  1.00  0.00     0.049 A 
HETATM   14  C   UNL     1      41.537  -9.640  10.560  1.00  0.00    -0.006 A 
HETATM   15  C   UNL     1      42.182  -9.362  11.781  1.00  0.00     0.030 A 
HETATM   16  C   UNL     1      40.589 -10.660  10.504  1.00  0.00     0.045 A 
HETATM   17  C   UNL     1      41.862 -10.107  12.928  1.00  0.00     0.032 A 
HETATM   18  C   UNL     1      40.898 -11.115  12.853  1.00  0.00     0.019 A 
HETATM   19  C   UNL     1      40.254 -11.412  11.643  1.00  0.00     0.031 A 
HETATM   20  N   UNL     1      40.126 -10.707   9.201  1.00  0.00    -0.346 N 
HETATM   21  C   UNL     1      39.141 -11.652   8.709  1.00  0.00     0.156 C 
BRANCH  17  22
HETATM   22  C   UNL     1      42.557  -9.753  14.198  1.00  0.00     0.249 C 
HETATM   23  O   UNL     1      43.607  -9.120  14.202  1.00  0.00    -0.268 OA
HETATM   24  N   UNL     1      42.006 -10.174  15.377  1.00  0.00    -0.366 N 
HETATM   25  H   UNL     1      41.269 -10.859  15.438  1.00  0.00     0.159 HD
HETATM   26  H   UNL     1      42.546  -9.986  16.212  1.00  0.00     0.159 HD
ENDBRANCH  17  22
ENDBRANCH   9  12
ENDBRANCH   7   8
ENDBRANCH   5   7
BRANCH   1  27
HETATM   27  C   UNL     1      41.032 -14.863   4.454  1.00  0.00     0.256 C 
HETATM   28  N   UNL     1      42.183 -15.324   3.841  1.00  0.00    -0.323 N 
HETATM   29  H   UNL     1      42.620 -14.717   3.163  1.00  0.00     0.169 HD
HETATM   30  O   UNL     1      40.433 -15.386   5.387  1.00  0.00    -0.267 OA
BRANCH  28  31
HETATM   31  C   UNL     1      42.881 -16.520   4.127  1.00  0.00     0.035 A 
HETATM   32  C   UNL     1      43.588 -16.743   5.307  1.00  0.00     0.030 A 
HETATM   33  C   UNL     1      44.260 -17.951   5.516  1.00  0.00     0.010 A 
HETATM   34  C   UNL     1      44.225 -18.961   4.549  1.00  0.00    -0.048 A 
HETATM   35  C   UNL     1      44.993 -20.240   4.761  1.00  0.00     0.069 C 
HETATM   36  C   UNL     1      43.526 -18.748   3.351  1.00  0.00    -0.022 A 
HETATM   37  C   UNL     1      44.549 -21.358   3.810  1.00  0.00     0.277 C 
HETATM   38  N   UNL     1      44.485 -20.866   2.426  1.00  0.00     0.088 N 
HETATM   39  C   UNL     1      44.235 -21.964   1.495  1.00  0.00     0.310 C 
HETATM   40  C   UNL     1      43.433 -19.841   2.305  1.00  0.00     0.311 C 
HETATM   41  C   UNL     1      42.849 -17.531   3.157  1.00  0.00     0.039 A 
ENDBRANCH  28  31
ENDBRANCH   1  27
TORSDOF 6
ENDMDL
MODEL 9
REMARK VINA RESULT:      -9.3      5.170     10.236
REMARK  6 active torsions:
REMARK  status: ('A' for Active; 'I' for Inactive)
REMARK    1  A    between atoms: C_8  and  N_9 
REMARK       I    between atoms: N_9  and  C_10 
REMARK    2  A    between atoms: C_10  and  C_12 
REMARK    3  A    between atoms: C_16  and  C_17 
REMARK    4  A    between atoms: C_17  and  N_18 
REMARK       I    between atoms: N_18  and  C_19 
REMARK    5  A    between atoms: C_19  and  C_21 
REMARK    6  A    between atoms: C_25  and  C_31 
REMARK       I    between atoms: C_31  and  N_33 
ROOT
HETATM    1  C   UNL     1      40.744 -13.750   4.836  1.00  0.00     0.032 A 
HETATM    2  C   UNL     1      40.080 -12.984   5.801  1.00  0.00     0.017 A 
HETATM    3  C   UNL     1      39.684 -11.679   5.501  1.00  0.00     0.002 A 
HETATM    4  C   UNL     1      39.955 -11.134   4.244  1.00  0.00     0.009 A 
HETATM    5  C   UNL     1      40.619 -11.888   3.267  1.00  0.00    -0.040 A 
HETATM    6  C   UNL     1      41.021 -13.195   3.578  1.00  0.00     0.026 A 
ENDROOT
BRANCH   5   7
HETATM    7  C   UNL     1      40.941 -11.291   1.922  1.00  0.00     0.161 C 
BRANCH   7   8
HETATM    8  N   UNL     1      40.127 -11.881   0.888  1.00  0.00    -0.351 N 
HETATM    9  C   UNL     1      40.480 -11.836  -0.441  1.00  0.00     0.268 C 
HETATM   10  O   UNL     1      41.510 -11.280  -0.812  1.00  0.00    -0.266 OA
HETATM   11  H   UNL     1      39.347 -12.449   1.176  1.00  0.00     0.163 HD
BRANCH   9  12
HETATM   12  C   UNL     1      39.540 -12.477  -1.354  1.00  0.00     0.103 A 
HETATM   13  C   UNL     1      38.346 -12.000  -1.878  1.00  0.00     0.049 A 
HETATM   14  C   UNL     1      37.814 -12.963  -2.775  1.00  0.00    -0.006 A 
HETATM   15  C   UNL     1      36.668 -12.995  -3.593  1.00  0.00     0.030 A 
HETATM   16  C   UNL     1      38.691 -14.046  -2.784  1.00  0.00     0.045 A 
HETATM   17  C   UNL     1      36.423 -14.109  -4.412  1.00  0.00     0.032 A 
HETATM   18  C   UNL     1      37.323 -15.178  -4.416  1.00  0.00     0.019 A 
HETATM   19  C   UNL     1      38.463 -15.167  -3.600  1.00  0.00     0.031 A 
HETATM   20  N   UNL     1      39.713 -13.743  -1.901  1.00  0.00    -0.346 N 
HETATM   21  C   UNL     1      40.826 -14.622  -1.595  1.00  0.00     0.156 C 
BRANCH  17  22
HETATM   22  C   UNL     1      35.208 -14.078  -5.275  1.00  0.00     0.249 C 
HETATM   23  O   UNL     1      35.251 -14.398  -6.458  1.00  0.00    -0.268 OA
HETATM   24  N   UNL     1      34.031 -13.657  -4.722  1.00  0.00    -0.366 N 
HETATM   25  H   UNL     1      33.965 -13.194  -3.829  1.00  0.00     0.159 HD
HETATM   26  H   UNL     1      33.247 -13.571  -5.357  1.00  0.00     0.159 HD
ENDBRANCH  17  22
ENDBRANCH   9  12
ENDBRANCH   7   8
ENDBRANCH   5   7
BRANCH   1  27
HETATM   27  C   UNL     1      41.216 -15.138   5.107  1.00  0.00     0.256 C 
HETATM   28  N   UNL     1      42.476 -15.438   4.621  1.00  0.00    -0.323 N 
HETATM   29  H   UNL     1      43.003 -14.684   4.206  1.00  0.00     0.169 HD
HETATM   30  O   UNL     1      40.481 -15.874   5.755  1.00  0.00    -0.267 OA
BRANCH  28  31
HETATM   31  C   UNL     1      43.159 -16.672   4.726  1.00  0.00     0.035 A 
HETATM   32  C   UNL     1      43.954 -17.030   5.814  1.00  0.00     0.030 A 
HETATM   33  C   UNL     1      44.604 -18.267   5.843  1.00  0.00     0.010 A 
HETATM   34  C   UNL     1      44.459 -19.172   4.788  1.00  0.00    -0.048 A 
HETATM   35  C   UNL     1      45.202 -20.483   4.804  1.00  0.00     0.069 C 
HETATM   36  C   UNL     1      43.670 -18.823   3.680  1.00  0.00    -0.022 A 
HETATM   37  C   UNL     1      44.647 -21.488   3.788  1.00  0.00     0.277 C 
HETATM   38  N   UNL     1      44.484 -20.856   2.471  1.00  0.00     0.088 N 
HETATM   39  C   UNL     1      44.126 -21.848   1.459  1.00  0.00     0.310 C 
HETATM   40  C   UNL     1      43.458 -19.801   2.542  1.00  0.00     0.311 C 
HETATM   41  C   UNL     1      43.016 -17.579   3.667  1.00  0.00     0.039 A 
ENDBRANCH  28  31
ENDBRANCH   1  27
TORSDOF 6
ENDMDL
MODEL 10
REMARK VINA RESULT:      -9.1      2.076     10.537
REMARK  6 active torsions:
REMARK  status: ('A' for Active; 'I' for Inactive)
REMARK    1  A    between atoms: C_8  and  N_9 
REMARK       I    between atoms: N_9  and  C_10 
REMARK    2  A    between atoms: C_10  and  C_12 
REMARK    3  A    between atoms: C_16  and  C_17 
REMARK    4  A    between atoms: C_17  and  N_18 
REMARK       I    between atoms: N_18  and  C_19 
REMARK    5  A    between atoms: C_19  and  C_21 
REMARK    6  A    between atoms: C_25  and  C_31 
REMARK       I    between atoms: C_31  and  N_33 
ROOT
HETATM    1  C   UNL     1      41.972 -12.731   2.621  1.00  0.00     0.032 A 
HETATM    2  C   UNL     1      42.018 -12.128   1.359  1.00  0.00     0.017 A 
HETATM    3  C   UNL     1      41.197 -11.032   1.084  1.00  0.00     0.002 A 
HETATM    4  C   UNL     1      40.327 -10.541   2.060  1.00  0.00     0.009 A 
HETATM    5  C   UNL     1      40.270 -11.135   3.328  1.00  0.00    -0.040 A 
HETATM    6  C   UNL     1      41.090 -12.241   3.596  1.00  0.00     0.026 A 
ENDROOT
BRANCH   5   7
HETATM    7  C   UNL     1      39.310 -10.628   4.371  1.00  0.00     0.161 C 
BRANCH   7   8
HETATM    8  N   UNL     1      39.997 -10.325   5.603  1.00  0.00    -0.351 N 
HETATM    9  C   UNL     1      39.813 -11.062   6.749  1.00  0.00     0.268 C 
HETATM   10  O   UNL     1      39.041 -12.017   6.780  1.00  0.00    -0.266 OA
HETATM   11  H   UNL     1      40.726  -9.630   5.570  1.00  0.00     0.163 HD
BRANCH   9  12
HETATM   12  C   UNL     1      40.582 -10.615   7.904  1.00  0.00     0.103 A 
HETATM   13  C   UNL     1      40.207  -9.790   8.956  1.00  0.00     0.049 A 
HETATM   14  C   UNL     1      41.281  -9.694   9.878  1.00  0.00    -0.006 A 
HETATM   15  C   UNL     1      41.442  -9.032  11.112  1.00  0.00     0.030 A 
HETATM   16  C   UNL     1      42.329 -10.460   9.372  1.00  0.00     0.045 A 
HETATM   17  C   UNL     1      42.649  -9.154  11.820  1.00  0.00     0.032 A 
HETATM   18  C   UNL     1      43.681  -9.939  11.300  1.00  0.00     0.019 A 
HETATM   19  C   UNL     1      43.541 -10.596  10.069  1.00  0.00     0.031 A 
HETATM   20  N   UNL     1      41.896 -10.986   8.167  1.00  0.00    -0.346 N 
HETATM   21  C   UNL     1      42.698 -11.828   7.299  1.00  0.00     0.156 C 
BRANCH  17  22
HETATM   22  C   UNL     1      42.755  -8.453  13.131  1.00  0.00     0.249 C 
HETATM   23  O   UNL     1      42.155  -7.406  13.351  1.00  0.00    -0.268 OA
HETATM   24  N   UNL     1      43.564  -8.994  14.091  1.00  0.00    -0.366 N 
HETATM   25  H   UNL     1      44.233  -9.727  13.913  1.00  0.00     0.159 HD
HETATM   26  H   UNL     1      43.675  -8.450  14.937  1.00  0.00     0.159 HD
ENDBRANCH  17  22
ENDBRANCH   9  12
ENDBRANCH   7   8
ENDBRANCH   5   7
BRANCH   1  27
HETATM   27  C   UNL     1      42.803 -13.921   2.967  1.00  0.00     0.256 C 
HETATM   28  N   UNL     1      42.376 -15.117   2.419  1.00  0.00    -0.323 N 
HETATM   29  H   UNL     1      41.603 -15.079   1.770  1.00  0.00     0.169 HD
HETATM   30  O   UNL     1      43.795 -13.741   3.662  1.00  0.00    -0.267 OA
BRANCH  28  31
HETATM   31  C   UNL     1      42.966 -16.391   2.588  1.00  0.00     0.035 A 
HETATM   32  C   UNL     1      43.567 -17.112   1.557  1.00  0.00     0.030 A 
HETATM   33  C   UNL     1      44.125 -18.371   1.801  1.00  0.00     0.010 A 
HETATM   34  C   UNL     1      44.100 -18.923   3.086  1.00  0.00    -0.048 A 
HETATM   35  C   UNL     1      44.659 -20.301   3.330  1.00  0.00     0.069 C 
HETATM   36  C   UNL     1      43.490 -18.214   4.132  1.00  0.00    -0.022 A 
HETATM   37  C   UNL     1      44.894 -20.586   4.818  1.00  0.00     0.277 C 
HETATM   38  N   UNL     1      43.708 -20.222   5.608  1.00  0.00     0.088 N 
HETATM   39  C   UNL     1      43.857 -20.654   6.997  1.00  0.00     0.310 C 
HETATM   40  C   UNL     1      43.488 -18.767   5.544  1.00  0.00     0.311 C 
HETATM   41  C   UNL     1      42.940 -16.946   3.875  1.00  0.00     0.039 A 
ENDBRANCH  28  31
ENDBRANCH   1  27
TORSDOF 6
ENDMDL
