MODEL 1
REMARK VINA RESULT:      -7.6      0.000      0.000
REMARK  5 active torsions:
REMARK  status: ('A' for Active; 'I' for Inactive)
REMARK    1  A    between atoms: C_2  and  C_3 
REMARK    2  A    between atoms: C_3  and  N_4 
REMARK    3  A    between atoms: C_3  and  C_19 
REMARK       I    between atoms: N_4  and  C_5 
REMARK       I    between atoms: C_5  and  N_6 
REMARK    4  A    between atoms: N_6  and  C_7 
REMARK    5  A    between atoms: C_12  and  C_13 
ROOT
HETATM    1  N   UNL     1      41.744 -15.106   3.485  1.00  0.00    -0.334 N 
HETATM    2  C   UNL     1      42.946 -14.755   2.980  1.00  0.00     0.321 C 
HETATM    3  N   UNL     1      43.782 -15.729   2.531  1.00  0.00    -0.306 N 
HETATM    4  O   UNL     1      43.279 -13.581   2.811  1.00  0.00    -0.247 OA
HETATM    5  H   UNL     1      41.650 -16.035   3.860  1.00  0.00     0.165 HD
HETATM    6  H   UNL     1      44.521 -15.301   1.986  1.00  0.00     0.171 HD
ENDROOT
BRANCH   1   7
HETATM    7  C   UNL     1      40.775 -14.125   3.935  1.00  0.00     0.122 C 
BRANCH   7   8
HETATM    8  C   UNL     1      40.200 -14.454   5.325  1.00  0.00     0.026 C 
HETATM    9  C   UNL     1      40.600 -15.814   5.886  1.00  0.00     0.007 C 
ENDBRANCH   7   8
BRANCH   7  10
HETATM   10  C   UNL     1      39.728 -13.964   2.874  1.00  0.00     0.001 A 
HETATM   11  C   UNL     1      39.090 -12.826   2.411  1.00  0.00     0.122 A 
HETATM   12  N   UNL     1      38.203 -13.237   1.460  1.00  0.00    -0.285 N 
HETATM   13  C   UNL     1      37.277 -12.415   0.721  1.00  0.00     0.179 C 
HETATM   14  N   UNL     1      38.230 -14.562   1.243  1.00  0.00    -0.185 NA
HETATM   15  C   UNL     1      39.149 -15.003   2.105  1.00  0.00     0.149 A 
ENDBRANCH   7  10
ENDBRANCH   1   7
BRANCH   3  16
HETATM   16  C   UNL     1      43.795 -17.136   2.606  1.00  0.00     0.075 A 
HETATM   17  C   UNL     1      43.569 -18.025   1.551  1.00  0.00     0.143 A 
HETATM   18  F   UNL     1      43.273 -17.591   0.318  1.00  0.00    -0.204 F 
HETATM   19  C   UNL     1      43.588 -19.407   1.746  1.00  0.00     0.045 A 
HETATM   20  C   UNL     1      43.834 -19.932   3.012  1.00  0.00     0.019 A 
HETATM   21  C   UNL     1      44.051 -19.072   4.097  1.00  0.00     0.050 A 
HETATM   22  C   UNL     1      44.017 -17.681   3.882  1.00  0.00     0.049 A 
BRANCH  21  23
HETATM   23  C   UNL     1      44.331 -19.612   5.480  1.00  0.00     0.417 C 
HETATM   24  F   UNL     1      43.230 -19.662   6.279  1.00  0.00    -0.166 F 
HETATM   25  F   UNL     1      44.829 -20.878   5.449  1.00  0.00    -0.166 F 
HETATM   26  F   UNL     1      45.248 -18.863   6.151  1.00  0.00    -0.166 F 
ENDBRANCH  21  23
ENDBRANCH   3  16
TORSDOF 5
ENDMDL
MODEL 2
REMARK VINA RESULT:      -7.5      3.419      5.599
REMARK  5 active torsions:
REMARK  status: ('A' for Active; 'I' for Inactive)
REMARK    1  A    between atoms: C_2  and  C_3 
REMARK    2  A    between atoms: C_3  and  N_4 
REMARK    3  A    between atoms: C_3  and  C_19 
REMARK       I    between atoms: N_4  and  C_5 
REMARK       I    between atoms: C_5  and  N_6 
REMARK    4  A    between atoms: N_6  and  C_7 
REMARK    5  A    between atoms: C_12  and  C_13 
ROOT
HETATM    1  N   UNL     1      42.500 -15.124   5.778  1.00  0.00    -0.334 N 
HETATM    2  C   UNL     1      41.358 -15.844   5.794  1.00  0.00     0.321 C 
HETATM    3  N   UNL     1      41.436 -17.202   5.771  1.00  0.00    -0.306 N 
HETATM    4  O   UNL     1      40.248 -15.329   5.934  1.00  0.00    -0.247 OA
HETATM    5  H   UNL     1      43.317 -15.555   5.380  1.00  0.00     0.165 HD
HETATM    6  H   UNL     1      40.531 -17.587   6.015  1.00  0.00     0.171 HD
ENDROOT
BRANCH   1   7
HETATM    7  C   UNL     1      42.504 -13.675   5.855  1.00  0.00     0.122 C 
BRANCH   7   8
HETATM    8  C   UNL     1      42.727 -13.010   4.485  1.00  0.00     0.026 C 
HETATM    9  C   UNL     1      43.505 -13.848   3.477  1.00  0.00     0.007 C 
ENDBRANCH   7   8
BRANCH   7  10
HETATM   10  C   UNL     1      43.495 -13.253   6.897  1.00  0.00     0.001 A 
HETATM   11  C   UNL     1      43.451 -12.209   7.804  1.00  0.00     0.122 A 
HETATM   12  N   UNL     1      44.621 -12.250   8.503  1.00  0.00    -0.285 N 
HETATM   13  C   UNL     1      45.053 -11.336   9.532  1.00  0.00     0.179 C 
HETATM   14  N   UNL     1      45.422 -13.266   8.141  1.00  0.00    -0.185 NA
HETATM   15  C   UNL     1      44.744 -13.868   7.163  1.00  0.00     0.149 A 
ENDBRANCH   7  10
ENDBRANCH   1   7
BRANCH   3  16
HETATM   16  C   UNL     1      42.472 -18.132   5.555  1.00  0.00     0.075 A 
HETATM   17  C   UNL     1      43.279 -18.717   6.535  1.00  0.00     0.143 A 
HETATM   18  F   UNL     1      43.150 -18.403   7.831  1.00  0.00    -0.204 F 
HETATM   19  C   UNL     1      44.294 -19.616   6.202  1.00  0.00     0.045 A 
HETATM   20  C   UNL     1      44.524 -19.950   4.869  1.00  0.00     0.019 A 
HETATM   21  C   UNL     1      43.745 -19.373   3.858  1.00  0.00     0.050 A 
HETATM   22  C   UNL     1      42.734 -18.459   4.213  1.00  0.00     0.049 A 
BRANCH  21  23
HETATM   23  C   UNL     1      43.965 -19.722   2.404  1.00  0.00     0.417 C 
HETATM   24  F   UNL     1      44.289 -18.651   1.629  1.00  0.00    -0.166 F 
HETATM   25  F   UNL     1      44.969 -20.625   2.237  1.00  0.00    -0.166 F 
HETATM   26  F   UNL     1      42.861 -20.278   1.835  1.00  0.00    -0.166 F 
ENDBRANCH  21  23
ENDBRANCH   3  16
TORSDOF 5
ENDMDL
MODEL 3
REMARK VINA RESULT:      -7.4      2.251      2.804
REMARK  5 active torsions:
REMARK  status: ('A' for Active; 'I' for Inactive)
REMARK    1  A    between atoms: C_2  and  C_3 
REMARK    2  A    between atoms: C_3  and  N_4 
REMARK    3  A    between atoms: C_3  and  C_19 
REMARK       I    between atoms: N_4  and  C_5 
REMARK       I    between atoms: C_5  and  N_6 
REMARK    4  A    between atoms: N_6  and  C_7 
REMARK    5  A    between atoms: C_12  and  C_13 
ROOT
HETATM    1  N   UNL     1      41.620 -15.422   1.666  1.00  0.00    -0.334 N 
HETATM    2  C   UNL     1      42.729 -14.935   2.263  1.00  0.00     0.321 C 
HETATM    3  N   UNL     1      43.709 -15.800   2.637  1.00  0.00    -0.306 N 
HETATM    4  O   UNL     1      42.940 -13.729   2.391  1.00  0.00    -0.247 OA
HETATM    5  H   UNL     1      41.376 -16.381   1.849  1.00  0.00     0.165 HD
HETATM    6  H   UNL     1      44.548 -15.273   2.851  1.00  0.00     0.171 HD
ENDROOT
BRANCH   1   7
HETATM    7  C   UNL     1      40.554 -14.562   1.190  1.00  0.00     0.122 C 
BRANCH   7   8
HETATM    8  C   UNL     1      39.160 -15.049   1.625  1.00  0.00     0.026 C 
HETATM    9  C   UNL     1      37.990 -14.255   1.058  1.00  0.00     0.007 C 
ENDBRANCH   7   8
BRANCH   7  10
HETATM   10  C   UNL     1      40.698 -14.396  -0.293  1.00  0.00     0.001 A 
HETATM   11  C   UNL     1      40.614 -13.260  -1.079  1.00  0.00     0.122 A 
HETATM   12  N   UNL     1      40.791 -13.666  -2.370  1.00  0.00    -0.285 N 
HETATM   13  C   UNL     1      40.747 -12.845  -3.554  1.00  0.00     0.179 C 
HETATM   14  N   UNL     1      41.013 -14.985  -2.487  1.00  0.00    -0.185 NA
HETATM   15  C   UNL     1      40.948 -15.429  -1.230  1.00  0.00     0.149 A 
ENDBRANCH   7  10
ENDBRANCH   1   7
BRANCH   3  16
HETATM   16  C   UNL     1      43.815 -17.203   2.719  1.00  0.00     0.075 A 
HETATM   17  C   UNL     1      43.755 -18.103   1.651  1.00  0.00     0.143 A 
HETATM   18  F   UNL     1      43.548 -17.689   0.393  1.00  0.00    -0.204 F 
HETATM   19  C   UNL     1      43.854 -19.481   1.854  1.00  0.00     0.045 A 
HETATM   20  C   UNL     1      44.015 -19.990   3.140  1.00  0.00     0.019 A 
HETATM   21  C   UNL     1      44.066 -19.119   4.236  1.00  0.00     0.050 A 
HETATM   22  C   UNL     1      43.953 -17.734   4.013  1.00  0.00     0.049 A 
BRANCH  21  23
HETATM   23  C   UNL     1      44.250 -19.641   5.643  1.00  0.00     0.417 C 
HETATM   24  F   UNL     1      45.119 -18.905   6.388  1.00  0.00    -0.166 F 
HETATM   25  F   UNL     1      43.082 -19.663   6.341  1.00  0.00    -0.166 F 
HETATM   26  F   UNL     1      44.724 -20.916   5.662  1.00  0.00    -0.166 F 
ENDBRANCH  21  23
ENDBRANCH   3  16
TORSDOF 5
ENDMDL
MODEL 4
REMARK VINA RESULT:      -7.4      2.771      4.069
REMARK  5 active torsions:
REMARK  status: ('A' for Active; 'I' for Inactive)
REMARK    1  A    between atoms: C_2  and  C_3 
REMARK    2  A    between atoms: C_3  and  N_4 
REMARK    3  A    between atoms: C_3  and  C_19 
REMARK       I    between atoms: N_4  and  C_5 
REMARK       I    between atoms: C_5  and  N_6 
REMARK    4  A    between atoms: N_6  and  C_7 
REMARK    5  A    between atoms: C_12  and  C_13 
ROOT
HETATM    1  N   UNL     1      42.838 -16.152   5.762  1.00  0.00    -0.334 N 
HETATM    2  C   UNL     1      44.024 -16.112   6.408  1.00  0.00     0.321 C 
HETATM    3  N   UNL     1      44.731 -17.264   6.556  1.00  0.00    -0.306 N 
HETATM    4  O   UNL     1      44.545 -15.059   6.778  1.00  0.00    -0.247 OA
HETATM    5  H   UNL     1      42.344 -17.028   5.749  1.00  0.00     0.165 HD
HETATM    6  H   UNL     1      45.675 -17.034   6.845  1.00  0.00     0.171 HD
ENDROOT
BRANCH   1   7
HETATM    7  C   UNL     1      42.049 -14.960   5.516  1.00  0.00     0.122 C 
BRANCH   7   8
HETATM    8  C   UNL     1      40.593 -15.104   5.993  1.00  0.00     0.026 C 
HETATM    9  C   UNL     1      39.710 -13.884   5.759  1.00  0.00     0.007 C 
ENDBRANCH   7   8
BRANCH   7  10
HETATM   10  C   UNL     1      42.174 -14.593   4.068  1.00  0.00     0.001 A 
HETATM   11  C   UNL     1      41.688 -15.228   2.938  1.00  0.00     0.122 A 
HETATM   12  N   UNL     1      42.111 -14.495   1.868  1.00  0.00    -0.285 N 
HETATM   13  C   UNL     1      41.887 -14.784   0.473  1.00  0.00     0.179 C 
HETATM   14  N   UNL     1      42.818 -13.406   2.213  1.00  0.00    -0.185 NA
HETATM   15  C   UNL     1      42.863 -13.471   3.545  1.00  0.00     0.149 A 
ENDBRANCH   7  10
ENDBRANCH   1   7
BRANCH   3  16
HETATM   16  C   UNL     1      44.459 -18.629   6.338  1.00  0.00     0.075 A 
HETATM   17  C   UNL     1      44.077 -19.563   7.305  1.00  0.00     0.143 A 
HETATM   18  F   UNL     1      43.960 -19.229   8.598  1.00  0.00    -0.204 F 
HETATM   19  C   UNL     1      43.851 -20.901   6.977  1.00  0.00     0.045 A 
HETATM   20  C   UNL     1      44.006 -21.335   5.662  1.00  0.00     0.019 A 
HETATM   21  C   UNL     1      44.402 -20.431   4.668  1.00  0.00     0.050 A 
HETATM   22  C   UNL     1      44.636 -19.088   5.021  1.00  0.00     0.049 A 
BRANCH  21  23
HETATM   23  C   UNL     1      44.569 -20.870   3.232  1.00  0.00     0.417 C 
HETATM   24  F   UNL     1      44.721 -22.215   3.088  1.00  0.00    -0.166 F 
HETATM   25  F   UNL     1      43.502 -20.527   2.460  1.00  0.00    -0.166 F 
HETATM   26  F   UNL     1      45.657 -20.304   2.643  1.00  0.00    -0.166 F 
ENDBRANCH  21  23
ENDBRANCH   3  16
TORSDOF 5
ENDMDL
MODEL 5
REMARK VINA RESULT:      -7.4      2.251      2.993
REMARK  5 active torsions:
REMARK  status: ('A' for Active; 'I' for Inactive)
REMARK    1  A    between atoms: C_2  and  C_3 
REMARK    2  A    between atoms: C_3  and  N_4 
REMARK    3  A    between atoms: C_3  and  C_19 
REMARK       I    between atoms: N_4  and  C_5 
REMARK       I    between atoms: C_5  and  N_6 
REMARK    4  A    between atoms: N_6  and  C_7 
REMARK    5  A    between atoms: C_12  and  C_13 
ROOT
HETATM    1  N   UNL     1      43.493 -17.105   3.126  1.00  0.00    -0.334 N 
HETATM    2  C   UNL     1      43.999 -17.815   2.095  1.00  0.00     0.321 C 
HETATM    3  N   UNL     1      44.296 -19.128   2.283  1.00  0.00    -0.306 N 
HETATM    4  O   UNL     1      44.106 -17.353   0.959  1.00  0.00    -0.247 OA
HETATM    5  H   UNL     1      43.698 -17.426   4.058  1.00  0.00     0.165 HD
HETATM    6  H   UNL     1      44.442 -19.564   1.380  1.00  0.00     0.171 HD
ENDROOT
BRANCH   1   7
HETATM    7  C   UNL     1      43.100 -15.715   2.993  1.00  0.00     0.122 C 
BRANCH   7   8
HETATM    8  C   UNL     1      43.378 -14.896   4.266  1.00  0.00     0.026 C 
HETATM    9  C   UNL     1      43.485 -15.710   5.550  1.00  0.00     0.007 C 
ENDBRANCH   7   8
BRANCH   7  10
HETATM   10  C   UNL     1      41.671 -15.662   2.543  1.00  0.00     0.001 A 
HETATM   11  C   UNL     1      40.929 -14.606   2.043  1.00  0.00     0.122 A 
HETATM   12  N   UNL     1      39.672 -15.087   1.818  1.00  0.00    -0.285 N 
HETATM   13  C   UNL     1      38.531 -14.347   1.337  1.00  0.00     0.179 C 
HETATM   14  N   UNL     1      39.541 -16.392   2.108  1.00  0.00    -0.185 NA
HETATM   15  C   UNL     1      40.750 -16.738   2.555  1.00  0.00     0.149 A 
ENDBRANCH   7  10
ENDBRANCH   1   7
BRANCH   3  16
HETATM   16  C   UNL     1      44.374 -19.976   3.406  1.00  0.00     0.075 A 
HETATM   17  C   UNL     1      44.636 -21.349   3.392  1.00  0.00     0.143 A 
HETATM   18  F   UNL     1      44.814 -22.019   2.245  1.00  0.00    -0.204 F 
HETATM   19  C   UNL     1      44.670 -22.097   4.570  1.00  0.00     0.045 A 
HETATM   20  C   UNL     1      44.440 -21.480   5.798  1.00  0.00     0.019 A 
HETATM   21  C   UNL     1      44.160 -20.108   5.850  1.00  0.00     0.050 A 
HETATM   22  C   UNL     1      44.118 -19.373   4.650  1.00  0.00     0.049 A 
BRANCH  21  23
HETATM   23  C   UNL     1      43.915 -19.409   7.168  1.00  0.00     0.417 C 
HETATM   24  F   UNL     1      42.834 -18.583   7.153  1.00  0.00    -0.166 F 
HETATM   25  F   UNL     1      43.704 -20.286   8.186  1.00  0.00    -0.166 F 
HETATM   26  F   UNL     1      44.972 -18.639   7.547  1.00  0.00    -0.166 F 
ENDBRANCH  21  23
ENDBRANCH   3  16
TORSDOF 5
ENDMDL
MODEL 6
REMARK VINA RESULT:      -7.1      2.644      3.679
REMARK  5 active torsions:
REMARK  status: ('A' for Active; 'I' for Inactive)
REMARK    1  A    between atoms: C_2  and  C_3 
REMARK    2  A    between atoms: C_3  and  N_4 
REMARK    3  A    between atoms: C_3  and  C_19 
REMARK       I    between atoms: N_4  and  C_5 
REMARK       I    between atoms: C_5  and  N_6 
REMARK    4  A    between atoms: N_6  and  C_7 
REMARK    5  A    between atoms: C_12  and  C_13 
ROOT
HETATM    1  N   UNL     1      41.266 -14.477   1.868  1.00  0.00    -0.334 N 
HETATM    2  C   UNL     1      42.395 -13.914   2.348  1.00  0.00     0.321 C 
HETATM    3  N   UNL     1      43.259 -14.681   3.065  1.00  0.00    -0.306 N 
HETATM    4  O   UNL     1      42.731 -12.761   2.078  1.00  0.00    -0.247 OA
HETATM    5  H   UNL     1      40.911 -15.289   2.344  1.00  0.00     0.165 HD
HETATM    6  H   UNL     1      44.140 -14.189   3.153  1.00  0.00     0.171 HD
ENDROOT
BRANCH   1   7
HETATM    7  C   UNL     1      40.321 -13.742   1.049  1.00  0.00     0.122 C 
BRANCH   7   8
HETATM    8  C   UNL     1      38.922 -13.660   1.688  1.00  0.00     0.026 C 
HETATM    9  C   UNL     1      38.582 -12.321   2.331  1.00  0.00     0.007 C 
ENDBRANCH   7   8
BRANCH   7  10
HETATM   10  C   UNL     1      40.319 -14.332  -0.329  1.00  0.00     0.001 A 
HETATM   11  C   UNL     1      39.542 -14.026  -1.433  1.00  0.00     0.122 A 
HETATM   12  N   UNL     1      39.923 -14.881  -2.425  1.00  0.00    -0.285 N 
HETATM   13  C   UNL     1      39.369 -14.974  -3.754  1.00  0.00     0.179 C 
HETATM   14  N   UNL     1      40.915 -15.710  -2.063  1.00  0.00    -0.185 NA
HETATM   15  C   UNL     1      41.149 -15.383  -0.790  1.00  0.00     0.149 A 
ENDBRANCH   7  10
ENDBRANCH   1   7
BRANCH   3  16
HETATM   16  C   UNL     1      43.209 -15.975   3.623  1.00  0.00     0.075 A 
HETATM   17  C   UNL     1      42.927 -16.293   4.954  1.00  0.00     0.143 A 
HETATM   18  F   UNL     1      42.699 -15.343   5.872  1.00  0.00    -0.204 F 
HETATM   19  C   UNL     1      42.922 -17.615   5.402  1.00  0.00     0.045 A 
HETATM   20  C   UNL     1      43.204 -18.655   4.519  1.00  0.00     0.019 A 
HETATM   21  C   UNL     1      43.506 -18.373   3.180  1.00  0.00     0.050 A 
HETATM   22  C   UNL     1      43.516 -17.032   2.750  1.00  0.00     0.049 A 
BRANCH  21  23
HETATM   23  C   UNL     1      43.806 -19.480   2.195  1.00  0.00     0.417 C 
HETATM   24  F   UNL     1      43.977 -19.041   0.918  1.00  0.00    -0.166 F 
HETATM   25  F   UNL     1      44.941 -20.160   2.514  1.00  0.00    -0.166 F 
HETATM   26  F   UNL     1      42.813 -20.409   2.144  1.00  0.00    -0.166 F 
ENDBRANCH  21  23
ENDBRANCH   3  16
TORSDOF 5
ENDMDL
MODEL 7
REMARK VINA RESULT:      -7.0      2.476      3.215
REMARK  5 active torsions:
REMARK  status: ('A' for Active; 'I' for Inactive)
REMARK    1  A    between atoms: C_2  and  C_3 
REMARK    2  A    between atoms: C_3  and  N_4 
REMARK    3  A    between atoms: C_3  and  C_19 
REMARK       I    between atoms: N_4  and  C_5 
REMARK       I    between atoms: C_5  and  N_6 
REMARK    4  A    between atoms: N_6  and  C_7 
REMARK    5  A    between atoms: C_12  and  C_13 
ROOT
HETATM    1  N   UNL     1      42.167 -16.379   2.735  1.00  0.00    -0.334 N 
HETATM    2  C   UNL     1      41.847 -17.289   1.790  1.00  0.00     0.321 C 
HETATM    3  N   UNL     1      42.309 -18.561   1.919  1.00  0.00    -0.306 N 
HETATM    4  O   UNL     1      41.066 -17.046   0.870  1.00  0.00    -0.247 OA
HETATM    5  H   UNL     1      43.004 -16.538   3.269  1.00  0.00     0.165 HD
HETATM    6  H   UNL     1      41.806 -19.160   1.275  1.00  0.00     0.171 HD
ENDROOT
BRANCH   1   7
HETATM    7  C   UNL     1      41.670 -15.017   2.699  1.00  0.00     0.122 C 
BRANCH   7   8
HETATM    8  C   UNL     1      42.766 -13.995   2.349  1.00  0.00     0.026 C 
HETATM    9  C   UNL     1      43.851 -13.821   3.405  1.00  0.00     0.007 C 
ENDBRANCH   7   8
BRANCH   7  10
HETATM   10  C   UNL     1      40.969 -14.728   3.993  1.00  0.00     0.001 A 
HETATM   11  C   UNL     1      40.300 -13.592   4.415  1.00  0.00     0.122 A 
HETATM   12  N   UNL     1      39.874 -13.841   5.686  1.00  0.00    -0.285 N 
HETATM   13  C   UNL     1      39.165 -12.938   6.559  1.00  0.00     0.179 C 
HETATM   14  N   UNL     1      40.191 -15.072   6.123  1.00  0.00    -0.185 NA
HETATM   15  C   UNL     1      40.861 -15.605   5.100  1.00  0.00     0.149 A 
ENDBRANCH   7  10
ENDBRANCH   1   7
BRANCH   3  16
HETATM   16  C   UNL     1      43.244 -19.196   2.761  1.00  0.00     0.075 A 
HETATM   17  C   UNL     1      43.912 -20.397   2.502  1.00  0.00     0.143 A 
HETATM   18  F   UNL     1      43.684 -21.102   1.386  1.00  0.00    -0.204 F 
HETATM   19  C   UNL     1      44.808 -20.945   3.422  1.00  0.00     0.045 A 
HETATM   20  C   UNL     1      45.055 -20.297   4.630  1.00  0.00     0.019 A 
HETATM   21  C   UNL     1      44.394 -19.098   4.930  1.00  0.00     0.050 A 
HETATM   22  C   UNL     1      43.485 -18.568   3.995  1.00  0.00     0.049 A 
BRANCH  21  23
HETATM   23  C   UNL     1      44.649 -18.367   6.228  1.00  0.00     0.417 C 
HETATM   24  F   UNL     1      44.332 -19.095   7.334  1.00  0.00    -0.166 F 
HETATM   25  F   UNL     1      45.954 -18.013   6.373  1.00  0.00    -0.166 F 
HETATM   26  F   UNL     1      43.933 -17.213   6.319  1.00  0.00    -0.166 F 
ENDBRANCH  21  23
ENDBRANCH   3  16
TORSDOF 5
ENDMDL
MODEL 8
REMARK VINA RESULT:      -7.0      2.332      3.784
REMARK  5 active torsions:
REMARK  status: ('A' for Active; 'I' for Inactive)
REMARK    1  A    between atoms: C_2  and  C_3 
REMARK    2  A    between atoms: C_3  and  N_4 
REMARK    3  A    between atoms: C_3  and  C_19 
REMARK       I    between atoms: N_4  and  C_5 
REMARK       I    between atoms: C_5  and  N_6 
REMARK    4  A    between atoms: N_6  and  C_7 
REMARK    5  A    between atoms: C_12  and  C_13 
ROOT
HETATM    1  N   UNL     1      41.103 -15.829   3.835  1.00  0.00    -0.334 N 
HETATM    2  C   UNL     1      40.937 -15.640   5.162  1.00  0.00     0.321 C 
HETATM    3  N   UNL     1      41.840 -16.182   6.021  1.00  0.00    -0.306 N 
HETATM    4  O   UNL     1      40.061 -14.910   5.626  1.00  0.00    -0.247 OA
HETATM    5  H   UNL     1      41.626 -16.636   3.541  1.00  0.00     0.165 HD
HETATM    6  H   UNL     1      41.712 -15.769   6.937  1.00  0.00     0.171 HD
ENDROOT
BRANCH   1   7
HETATM    7  C   UNL     1      40.215 -15.239   2.851  1.00  0.00     0.122 C 
BRANCH   7   8
HETATM    8  C   UNL     1      39.828 -16.226   1.736  1.00  0.00     0.026 C 
HETATM    9  C   UNL     1      40.848 -17.324   1.460  1.00  0.00     0.007 C 
ENDBRANCH   7   8
BRANCH   7  10
HETATM   10  C   UNL     1      40.834 -13.971   2.345  1.00  0.00     0.001 A 
HETATM   11  C   UNL     1      40.275 -12.722   2.140  1.00  0.00     0.122 A 
HETATM   12  N   UNL     1      41.266 -11.930   1.638  1.00  0.00    -0.285 N 
HETATM   13  C   UNL     1      41.155 -10.552   1.227  1.00  0.00     0.179 C 
HETATM   14  N   UNL     1      42.446 -12.561   1.524  1.00  0.00    -0.185 NA
HETATM   15  C   UNL     1      42.182 -13.800   1.945  1.00  0.00     0.149 A 
ENDBRANCH   7  10
ENDBRANCH   1   7
BRANCH   3  16
HETATM   16  C   UNL     1      42.903 -17.100   5.895  1.00  0.00     0.075 A 
HETATM   17  C   UNL     1      43.838 -17.427   6.880  1.00  0.00     0.143 A 
HETATM   18  F   UNL     1      43.823 -16.841   8.086  1.00  0.00    -0.204 F 
HETATM   19  C   UNL     1      44.865 -18.340   6.636  1.00  0.00     0.045 A 
HETATM   20  C   UNL     1      44.978 -18.950   5.388  1.00  0.00     0.019 A 
HETATM   21  C   UNL     1      44.067 -18.636   4.371  1.00  0.00     0.050 A 
HETATM   22  C   UNL     1      43.045 -17.704   4.633  1.00  0.00     0.049 A 
BRANCH  21  23
HETATM   23  C   UNL     1      44.158 -19.288   3.010  1.00  0.00     0.417 C 
HETATM   24  F   UNL     1      44.490 -18.423   2.013  1.00  0.00    -0.166 F 
HETATM   25  F   UNL     1      45.090 -20.278   2.974  1.00  0.00    -0.166 F 
HETATM   26  F   UNL     1      42.984 -19.863   2.634  1.00  0.00    -0.166 F 
ENDBRANCH  21  23
ENDBRANCH   3  16
TORSDOF 5
ENDMDL
MODEL 9
REMARK VINA RESULT:      -6.9      3.557      7.050
REMARK  5 active torsions:
REMARK  status: ('A' for Active; 'I' for Inactive)
REMARK    1  A    between atoms: C_2  and  C_3 
REMARK    2  A    between atoms: C_3  and  N_4 
REMARK    3  A    between atoms: C_3  and  C_19 
REMARK       I    between atoms: N_4  and  C_5 
REMARK       I    between atoms: C_5  and  N_6 
REMARK    4  A    between atoms: N_6  and  C_7 
REMARK    5  A    between atoms: C_12  and  C_13 
ROOT
HETATM    1  N   UNL     1      42.608 -17.552   4.271  1.00  0.00    -0.334 N 
HETATM    2  C   UNL     1      41.352 -17.144   4.548  1.00  0.00     0.321 C 
HETATM    3  N   UNL     1      40.630 -16.530   3.572  1.00  0.00    -0.306 N 
HETATM    4  O   UNL     1      40.789 -17.396   5.614  1.00  0.00    -0.247 OA
HETATM    5  H   UNL     1      43.099 -17.081   3.531  1.00  0.00     0.165 HD
HETATM    6  H   UNL     1      39.658 -16.496   3.855  1.00  0.00     0.171 HD
ENDROOT
BRANCH   1   7
HETATM    7  C   UNL     1      43.424 -18.262   5.239  1.00  0.00     0.122 C 
BRANCH   7   8
HETATM    8  C   UNL     1      44.517 -17.372   5.858  1.00  0.00     0.026 C 
HETATM    9  C   UNL     1      44.021 -16.341   6.864  1.00  0.00     0.007 C 
ENDBRANCH   7   8
BRANCH   7  10
HETATM   10  C   UNL     1      43.953 -19.509   4.598  1.00  0.00     0.001 A 
HETATM   11  C   UNL     1      43.940 -19.909   3.273  1.00  0.00     0.122 A 
HETATM   12  N   UNL     1      44.525 -21.141   3.233  1.00  0.00    -0.285 N 
HETATM   13  C   UNL     1      44.703 -21.982   2.075  1.00  0.00     0.179 C 
HETATM   14  N   UNL     1      44.948 -21.569   4.434  1.00  0.00    -0.185 NA
HETATM   15  C   UNL     1      44.594 -20.584   5.261  1.00  0.00     0.149 A 
ENDBRANCH   7  10
ENDBRANCH   1   7
BRANCH   3  16
HETATM   16  C   UNL     1      40.926 -16.021   2.292  1.00  0.00     0.075 A 
HETATM   17  C   UNL     1      41.061 -16.763   1.115  1.00  0.00     0.143 A 
HETATM   18  F   UNL     1      40.947 -18.098   1.109  1.00  0.00    -0.204 F 
HETATM   19  C   UNL     1      41.376 -16.151  -0.100  1.00  0.00     0.045 A 
HETATM   20  C   UNL     1      41.564 -14.772  -0.162  1.00  0.00     0.019 A 
HETATM   21  C   UNL     1      41.450 -13.997   1.000  1.00  0.00     0.050 A 
HETATM   22  C   UNL     1      41.143 -14.634   2.218  1.00  0.00     0.049 A 
BRANCH  21  23
HETATM   23  C   UNL     1      41.639 -12.499   0.963  1.00  0.00     0.417 C 
HETATM   24  F   UNL     1      40.491 -11.811   0.713  1.00  0.00    -0.166 F 
HETATM   25  F   UNL     1      42.122 -12.010   2.137  1.00  0.00    -0.166 F 
HETATM   26  F   UNL     1      42.524 -12.114   0.003  1.00  0.00    -0.166 F 
ENDBRANCH  21  23
ENDBRANCH   3  16
TORSDOF 5
ENDMDL
MODEL 10
REMARK VINA RESULT:      -6.9      3.349      4.217
REMARK  5 active torsions:
REMARK  status: ('A' for Active; 'I' for Inactive)
REMARK    1  A    between atoms: C_2  and  C_3 
REMARK    2  A    between atoms: C_3  and  N_4 
REMARK    3  A    between atoms: C_3  and  C_19 
REMARK       I    between atoms: N_4  and  C_5 
REMARK       I    between atoms: C_5  and  N_6 
REMARK    4  A    between atoms: N_6  and  C_7 
REMARK    5  A    between atoms: C_12  and  C_13 
ROOT
HETATM    1  N   UNL     1      40.429 -14.856   0.529  1.00  0.00    -0.334 N 
HETATM    2  C   UNL     1      39.591 -15.177   1.538  1.00  0.00     0.321 C 
HETATM    3  N   UNL     1      40.016 -16.047   2.493  1.00  0.00    -0.306 N 
HETATM    4  O   UNL     1      38.495 -14.638   1.691  1.00  0.00    -0.247 OA
HETATM    5  H   UNL     1      41.152 -15.514   0.296  1.00  0.00     0.165 HD
HETATM    6  H   UNL     1      39.379 -16.006   3.281  1.00  0.00     0.171 HD
ENDROOT
BRANCH   1   7
HETATM    7  C   UNL     1      40.072 -13.896  -0.499  1.00  0.00     0.122 C 
BRANCH   7   8
HETATM    8  C   UNL     1      39.825 -14.557  -1.867  1.00  0.00     0.026 C 
HETATM    9  C   UNL     1      40.881 -15.568  -2.297  1.00  0.00     0.007 C 
ENDBRANCH   7   8
BRANCH   7  10
HETATM   10  C   UNL     1      41.113 -12.818  -0.530  1.00  0.00     0.001 A 
HETATM   11  C   UNL     1      41.496 -11.973  -1.558  1.00  0.00     0.122 A 
HETATM   12  N   UNL     1      42.509 -11.201  -1.069  1.00  0.00    -0.285 N 
HETATM   13  C   UNL     1      43.261 -10.198  -1.783  1.00  0.00     0.179 C 
HETATM   14  N   UNL     1      42.802 -11.457   0.216  1.00  0.00    -0.185 NA
HETATM   15  C   UNL     1      41.962 -12.442   0.540  1.00  0.00     0.149 A 
ENDBRANCH   7  10
ENDBRANCH   1   7
BRANCH   3  16
HETATM   16  C   UNL     1      41.132 -16.896   2.636  1.00  0.00     0.075 A 
HETATM   17  C   UNL     1      41.583 -17.836   1.705  1.00  0.00     0.143 A 
HETATM   18  F   UNL     1      40.939 -18.045   0.548  1.00  0.00    -0.204 F 
HETATM   19  C   UNL     1      42.694 -18.641   1.962  1.00  0.00     0.045 A 
HETATM   20  C   UNL     1      43.383 -18.520   3.167  1.00  0.00     0.019 A 
HETATM   21  C   UNL     1      42.952 -17.598   4.130  1.00  0.00     0.050 A 
HETATM   22  C   UNL     1      41.822 -16.803   3.857  1.00  0.00     0.049 A 
BRANCH  21  23
HETATM   23  C   UNL     1      43.684 -17.437   5.443  1.00  0.00     0.417 C 
HETATM   24  F   UNL     1      43.968 -16.142   5.753  1.00  0.00    -0.166 F 
HETATM   25  F   UNL     1      42.972 -17.927   6.493  1.00  0.00    -0.166 F 
HETATM   26  F   UNL     1      44.874 -18.097   5.454  1.00  0.00    -0.166 F 
ENDBRANCH  21  23
ENDBRANCH   3  16
TORSDOF 5
ENDMDL
