MODEL 1
REMARK VINA RESULT:      -9.1      0.000      0.000
REMARK  3 active torsions:
REMARK  status: ('A' for Active; 'I' for Inactive)
REMARK    1  A    between atoms: O_2  and  C_3 
REMARK    2  A    between atoms: C_7  and  C_8 
REMARK       I    between atoms: C_8  and  N_9 
REMARK    3  A    between atoms: C_15  and  C_16 
ROOT
HETATM    1  C   UNL     1      41.502 -13.013   0.259  1.00  0.00     0.254 C 
HETATM    2  N   UNL     1      41.982 -14.034   1.082  1.00  0.00    -0.342 N 
HETATM    3  C   UNL     1      41.603 -15.457   0.871  1.00  0.00     0.187 C 
HETATM    4  C   UNL     1      42.458 -16.341   1.714  1.00  0.00     0.077 A 
HETATM    5  C   UNL     1      43.292 -15.893   2.706  1.00  0.00     0.039 A 
HETATM    6  N   UNL     1      43.868 -17.003   3.241  1.00  0.00    -0.342 N 
HETATM    7  H   UNL     1      44.539 -17.044   3.998  1.00  0.00     0.167 HD
HETATM    8  C   UNL     1      43.384 -18.099   2.549  1.00  0.00     0.141 A 
HETATM    9  N   UNL     1      42.524 -17.706   1.619  1.00  0.00    -0.231 NA
HETATM   10  C   UNL     1      43.509 -14.476   3.058  1.00  0.00     0.079 C 
HETATM   11  C   UNL     1      42.354 -13.639   2.463  1.00  0.00     0.132 C 
HETATM   12  O   UNL     1      41.463 -11.831   0.595  1.00  0.00    -0.267 OA
ENDROOT
BRANCH   1  13
HETATM   13  C   UNL     1      41.001 -13.335  -1.092  1.00  0.00     0.037 A 
HETATM   14  C   UNL     1      41.851 -13.330  -2.195  1.00  0.00     0.036 A 
HETATM   15  C   UNL     1      41.289 -13.595  -3.429  1.00  0.00     0.120 A 
HETATM   16  N   UNL     1      39.974 -13.836  -3.621  1.00  0.00    -0.237 NA
HETATM   17  C   UNL     1      39.175 -13.794  -2.531  1.00  0.00     0.164 A 
HETATM   18  C   UNL     1      39.636 -13.548  -1.253  1.00  0.00     0.075 A 
BRANCH  17  19
HETATM   19  O   UNL     1      37.817 -14.005  -2.658  1.00  0.00    -0.339 OA
HETATM   20  C   UNL     1      37.498 -15.101  -3.508  1.00  0.00     0.211 C 
ENDBRANCH  17  19
ENDBRANCH   1  13
BRANCH   8  21
HETATM   21  C   UNL     1      43.796 -19.480   2.819  1.00  0.00     0.049 A 
HETATM   22  C   UNL     1      44.437 -19.854   4.009  1.00  0.00     0.133 A 
HETATM   23  F   UNL     1      44.697 -18.938   4.957  1.00  0.00    -0.205 F 
HETATM   24  C   UNL     1      44.825 -21.169   4.248  1.00  0.00     0.085 A 
HETATM   25  C   UNL     1      44.571 -22.131   3.282  1.00  0.00     0.119 A 
HETATM   26  F   UNL     1      44.943 -23.398   3.500  1.00  0.00    -0.206 F 
HETATM   27  C   UNL     1      43.938 -21.799   2.089  1.00  0.00     0.043 A 
HETATM   28  C   UNL     1      43.548 -20.476   1.860  1.00  0.00     0.021 A 
ENDBRANCH   8  21
TORSDOF 3
ENDMDL
MODEL 2
REMARK VINA RESULT:      -9.0      1.725      2.042
REMARK  3 active torsions:
REMARK  status: ('A' for Active; 'I' for Inactive)
REMARK    1  A    between atoms: O_2  and  C_3 
REMARK    2  A    between atoms: C_7  and  C_8 
REMARK       I    between atoms: C_8  and  N_9 
REMARK    3  A    between atoms: C_15  and  C_16 
ROOT
HETATM    1  C   UNL     1      40.038 -13.814   0.226  1.00  0.00     0.254 C 
HETATM    2  N   UNL     1      40.425 -14.750   1.189  1.00  0.00    -0.342 N 
HETATM    3  C   UNL     1      40.996 -16.072   0.815  1.00  0.00     0.187 C 
HETATM    4  C   UNL     1      41.556 -16.743   2.022  1.00  0.00     0.077 A 
HETATM    5  C   UNL     1      41.358 -16.314   3.309  1.00  0.00     0.039 A 
HETATM    6  N   UNL     1      42.010 -17.202   4.105  1.00  0.00    -0.342 N 
HETATM    7  H   UNL     1      42.072 -17.192   5.116  1.00  0.00     0.167 HD
HETATM    8  C   UNL     1      42.607 -18.140   3.283  1.00  0.00     0.141 A 
HETATM    9  N   UNL     1      42.335 -17.871   2.013  1.00  0.00    -0.231 NA
HETATM   10  C   UNL     1      40.604 -15.104   3.694  1.00  0.00     0.079 C 
HETATM   11  C   UNL     1      39.729 -14.669   2.496  1.00  0.00     0.132 C 
HETATM   12  O   UNL     1      39.238 -12.907   0.445  1.00  0.00    -0.267 OA
ENDROOT
BRANCH   1  13
HETATM   13  C   UNL     1      40.594 -13.894  -1.138  1.00  0.00     0.037 A 
HETATM   14  C   UNL     1      41.673 -13.102  -1.524  1.00  0.00     0.036 A 
HETATM   15  C   UNL     1      42.099 -13.205  -2.834  1.00  0.00     0.120 A 
HETATM   16  N   UNL     1      41.519 -14.008  -3.753  1.00  0.00    -0.237 NA
HETATM   17  C   UNL     1      40.450 -14.731  -3.351  1.00  0.00     0.164 A 
HETATM   18  C   UNL     1      39.951 -14.709  -2.064  1.00  0.00     0.075 A 
BRANCH  17  19
HETATM   19  O   UNL     1      39.792 -15.552  -4.245  1.00  0.00    -0.339 OA
HETATM   20  C   UNL     1      38.379 -15.541  -4.080  1.00  0.00     0.211 C 
ENDBRANCH  17  19
ENDBRANCH   1  13
BRANCH   8  21
HETATM   21  C   UNL     1      43.429 -19.251   3.774  1.00  0.00     0.049 A 
HETATM   22  C   UNL     1      43.957 -20.230   2.921  1.00  0.00     0.133 A 
HETATM   23  F   UNL     1      43.722 -20.177   1.599  1.00  0.00    -0.205 F 
HETATM   24  C   UNL     1      44.733 -21.279   3.404  1.00  0.00     0.085 A 
HETATM   25  C   UNL     1      44.985 -21.358   4.765  1.00  0.00     0.119 A 
HETATM   26  F   UNL     1      45.727 -22.365   5.242  1.00  0.00    -0.206 F 
HETATM   27  C   UNL     1      44.478 -20.406   5.644  1.00  0.00     0.043 A 
HETATM   28  C   UNL     1      43.704 -19.353   5.148  1.00  0.00     0.021 A 
ENDBRANCH   8  21
TORSDOF 3
ENDMDL
MODEL 3
REMARK VINA RESULT:      -8.5      2.139      3.311
REMARK  3 active torsions:
REMARK  status: ('A' for Active; 'I' for Inactive)
REMARK    1  A    between atoms: O_2  and  C_3 
REMARK    2  A    between atoms: C_7  and  C_8 
REMARK       I    between atoms: C_8  and  N_9 
REMARK    3  A    between atoms: C_15  and  C_16 
ROOT
HETATM    1  C   UNL     1      39.674 -12.745  -0.661  1.00  0.00     0.254 C 
HETATM    2  N   UNL     1      39.923 -13.892   0.097  1.00  0.00    -0.342 N 
HETATM    3  C   UNL     1      41.036 -14.823  -0.229  1.00  0.00     0.187 C 
HETATM    4  C   UNL     1      41.228 -15.796   0.884  1.00  0.00     0.077 A 
HETATM    5  C   UNL     1      40.357 -15.956   1.931  1.00  0.00     0.039 A 
HETATM    6  N   UNL     1      40.879 -16.943   2.705  1.00  0.00    -0.342 N 
HETATM    7  H   UNL     1      40.495 -17.322   3.563  1.00  0.00     0.167 HD
HETATM    8  C   UNL     1      42.066 -17.348   2.122  1.00  0.00     0.141 A 
HETATM    9  N   UNL     1      42.286 -16.656   1.012  1.00  0.00    -0.231 NA
HETATM   10  C   UNL     1      39.128 -15.165   2.142  1.00  0.00     0.079 C 
HETATM   11  C   UNL     1      38.758 -14.468   0.813  1.00  0.00     0.132 C 
HETATM   12  O   UNL     1      38.588 -12.168  -0.683  1.00  0.00    -0.267 OA
ENDROOT
BRANCH   1  13
HETATM   13  C   UNL     1      40.747 -12.172  -1.496  1.00  0.00     0.037 A 
HETATM   14  C   UNL     1      40.750 -12.341  -2.879  1.00  0.00     0.036 A 
HETATM   15  C   UNL     1      41.818 -11.813  -3.579  1.00  0.00     0.120 A 
HETATM   16  N   UNL     1      42.854 -11.169  -2.999  1.00  0.00    -0.237 NA
HETATM   17  C   UNL     1      42.834 -11.060  -1.652  1.00  0.00     0.164 A 
HETATM   18  C   UNL     1      41.811 -11.542  -0.860  1.00  0.00     0.075 A 
BRANCH  17  19
HETATM   19  O   UNL     1      43.873 -10.436  -0.991  1.00  0.00    -0.339 OA
HETATM   20  C   UNL     1      43.564  -9.106  -0.590  1.00  0.00     0.211 C 
ENDBRANCH  17  19
ENDBRANCH   1  13
BRANCH   8  21
HETATM   21  C   UNL     1      42.940 -18.383   2.684  1.00  0.00     0.049 A 
HETATM   22  C   UNL     1      43.581 -18.234   3.922  1.00  0.00     0.133 A 
HETATM   23  F   UNL     1      43.409 -17.114   4.645  1.00  0.00    -0.205 F 
HETATM   24  C   UNL     1      44.410 -19.224   4.440  1.00  0.00     0.085 A 
HETATM   25  C   UNL     1      44.607 -20.386   3.709  1.00  0.00     0.119 A 
HETATM   26  F   UNL     1      45.405 -21.344   4.196  1.00  0.00    -0.206 F 
HETATM   27  C   UNL     1      43.989 -20.571   2.477  1.00  0.00     0.043 A 
HETATM   28  C   UNL     1      43.154 -19.572   1.968  1.00  0.00     0.021 A 
ENDBRANCH   8  21
TORSDOF 3
ENDMDL
MODEL 4
REMARK VINA RESULT:      -8.4      3.706      5.861
REMARK  3 active torsions:
REMARK  status: ('A' for Active; 'I' for Inactive)
REMARK    1  A    between atoms: O_2  and  C_3 
REMARK    2  A    between atoms: C_7  and  C_8 
REMARK       I    between atoms: C_8  and  N_9 
REMARK    3  A    between atoms: C_15  and  C_16 
ROOT
HETATM    1  C   UNL     1      39.554 -12.441   3.469  1.00  0.00     0.254 C 
HETATM    2  N   UNL     1      40.139 -13.681   3.198  1.00  0.00    -0.342 N 
HETATM    3  C   UNL     1      41.432 -14.091   3.808  1.00  0.00     0.187 C 
HETATM    4  C   UNL     1      41.675 -15.540   3.557  1.00  0.00     0.077 A 
HETATM    5  C   UNL     1      40.939 -16.310   2.694  1.00  0.00     0.039 A 
HETATM    6  N   UNL     1      41.490 -17.553   2.737  1.00  0.00    -0.342 N 
HETATM    7  H   UNL     1      41.198 -18.374   2.222  1.00  0.00     0.167 HD
HETATM    8  C   UNL     1      42.537 -17.514   3.641  1.00  0.00     0.141 A 
HETATM    9  N   UNL     1      42.658 -16.292   4.144  1.00  0.00    -0.231 NA
HETATM   10  C   UNL     1      39.772 -15.842   1.920  1.00  0.00     0.079 C 
HETATM   11  C   UNL     1      39.790 -14.296   1.894  1.00  0.00     0.132 C 
HETATM   12  O   UNL     1      38.727 -11.905   2.735  1.00  0.00    -0.267 OA
ENDROOT
BRANCH   1  13
HETATM   13  C   UNL     1      39.934 -11.704   4.690  1.00  0.00     0.037 A 
HETATM   14  C   UNL     1      40.962 -10.765   4.673  1.00  0.00     0.036 A 
HETATM   15  C   UNL     1      41.285 -10.157   5.871  1.00  0.00     0.120 A 
HETATM   16  N   UNL     1      40.676 -10.436   7.045  1.00  0.00    -0.237 NA
HETATM   17  C   UNL     1      39.711 -11.382   7.028  1.00  0.00     0.164 A 
HETATM   18  C   UNL     1      39.306 -12.041   5.884  1.00  0.00     0.075 A 
BRANCH  17  19
HETATM   19  O   UNL     1      39.066 -11.736   8.195  1.00  0.00    -0.339 OA
HETATM   20  C   UNL     1      39.435 -10.927   9.307  1.00  0.00     0.211 C 
ENDBRANCH  17  19
ENDBRANCH   1  13
BRANCH   8  21
HETATM   21  C   UNL     1      43.362 -18.676   3.984  1.00  0.00     0.049 A 
HETATM   22  C   UNL     1      44.023 -19.441   3.012  1.00  0.00     0.133 A 
HETATM   23  F   UNL     1      43.918 -19.123   1.710  1.00  0.00    -0.205 F 
HETATM   24  C   UNL     1      44.800 -20.544   3.354  1.00  0.00     0.085 A 
HETATM   25  C   UNL     1      44.918 -20.895   4.690  1.00  0.00     0.119 A 
HETATM   26  F   UNL     1      45.660 -21.956   5.030  1.00  0.00    -0.206 F 
HETATM   27  C   UNL     1      44.278 -20.162   5.683  1.00  0.00     0.043 A 
HETATM   28  C   UNL     1      43.504 -19.052   5.330  1.00  0.00     0.021 A 
ENDBRANCH   8  21
TORSDOF 3
ENDMDL
MODEL 5
REMARK VINA RESULT:      -8.4      2.123      2.809
REMARK  3 active torsions:
REMARK  status: ('A' for Active; 'I' for Inactive)
REMARK    1  A    between atoms: O_2  and  C_3 
REMARK    2  A    between atoms: C_7  and  C_8 
REMARK       I    between atoms: C_8  and  N_9 
REMARK    3  A    between atoms: C_15  and  C_16 
ROOT
HETATM    1  C   UNL     1      40.394 -12.827   2.705  1.00  0.00     0.254 C 
HETATM    2  N   UNL     1      41.113 -13.793   3.415  1.00  0.00    -0.342 N 
HETATM    3  C   UNL     1      40.834 -15.246   3.267  1.00  0.00     0.187 C 
HETATM    4  C   UNL     1      41.910 -16.040   3.927  1.00  0.00     0.077 A 
HETATM    5  C   UNL     1      42.872 -15.508   4.747  1.00  0.00     0.039 A 
HETATM    6  N   UNL     1      43.637 -16.555   5.155  1.00  0.00    -0.342 N 
HETATM    7  H   UNL     1      44.440 -16.527   5.772  1.00  0.00     0.167 HD
HETATM    8  C   UNL     1      43.135 -17.697   4.558  1.00  0.00     0.141 A 
HETATM    9  N   UNL     1      42.083 -17.394   3.809  1.00  0.00    -0.231 NA
HETATM   10  C   UNL     1      43.019 -14.074   5.065  1.00  0.00     0.079 C 
HETATM   11  C   UNL     1      41.700 -13.353   4.705  1.00  0.00     0.132 C 
HETATM   12  O   UNL     1      40.311 -11.651   3.053  1.00  0.00    -0.267 OA
ENDROOT
BRANCH   1  13
HETATM   13  C   UNL     1      39.680 -13.207   1.471  1.00  0.00     0.037 A 
HETATM   14  C   UNL     1      38.304 -13.417   1.472  1.00  0.00     0.036 A 
HETATM   15  C   UNL     1      37.723 -13.817   0.284  1.00  0.00     0.120 A 
HETATM   16  N   UNL     1      38.414 -14.031  -0.857  1.00  0.00    -0.237 NA
HETATM   17  C   UNL     1      39.753 -13.855  -0.808  1.00  0.00     0.164 A 
HETATM   18  C   UNL     1      40.430 -13.447   0.325  1.00  0.00     0.075 A 
BRANCH  17  19
HETATM   19  O   UNL     1      40.524 -14.082  -1.929  1.00  0.00    -0.339 OA
HETATM   20  C   UNL     1      40.907 -15.445  -2.080  1.00  0.00     0.211 C 
ENDBRANCH  17  19
ENDBRANCH   1  13
BRANCH   8  21
HETATM   21  C   UNL     1      43.716 -19.032   4.733  1.00  0.00     0.049 A 
HETATM   22  C   UNL     1      44.312 -19.737   3.677  1.00  0.00     0.133 A 
HETATM   23  F   UNL     1      44.370 -19.197   2.448  1.00  0.00    -0.205 F 
HETATM   24  C   UNL     1      44.856 -21.005   3.860  1.00  0.00     0.085 A 
HETATM   25  C   UNL     1      44.803 -21.584   5.119  1.00  0.00     0.119 A 
HETATM   26  F   UNL     1      45.319 -22.805   5.305  1.00  0.00    -0.206 F 
HETATM   27  C   UNL     1      44.220 -20.917   6.191  1.00  0.00     0.043 A 
HETATM   28  C   UNL     1      43.681 -19.641   5.998  1.00  0.00     0.021 A 
ENDBRANCH   8  21
TORSDOF 3
ENDMDL
MODEL 6
REMARK VINA RESULT:      -8.3      4.757      9.181
REMARK  3 active torsions:
REMARK  status: ('A' for Active; 'I' for Inactive)
REMARK    1  A    between atoms: O_2  and  C_3 
REMARK    2  A    between atoms: C_7  and  C_8 
REMARK       I    between atoms: C_8  and  N_9 
REMARK    3  A    between atoms: C_15  and  C_16 
ROOT
HETATM    1  C   UNL     1      44.536 -19.734   4.021  1.00  0.00     0.254 C 
HETATM    2  N   UNL     1      43.785 -18.815   3.283  1.00  0.00    -0.342 N 
HETATM    3  C   UNL     1      42.455 -18.335   3.745  1.00  0.00     0.187 C 
HETATM    4  C   UNL     1      42.015 -17.180   2.912  1.00  0.00     0.077 A 
HETATM    5  C   UNL     1      42.629 -16.783   1.752  1.00  0.00     0.039 A 
HETATM    6  N   UNL     1      41.915 -15.720   1.294  1.00  0.00    -0.342 N 
HETATM    7  H   UNL     1      42.087 -15.178   0.456  1.00  0.00     0.167 HD
HETATM    8  C   UNL     1      40.894 -15.483   2.197  1.00  0.00     0.141 A 
HETATM    9  N   UNL     1      40.946 -16.368   3.184  1.00  0.00    -0.231 NA
HETATM   10  C   UNL     1      43.840 -17.402   1.177  1.00  0.00     0.079 C 
HETATM   11  C   UNL     1      44.032 -18.795   1.820  1.00  0.00     0.132 C 
HETATM   12  O   UNL     1      45.420 -20.436   3.534  1.00  0.00    -0.267 OA
ENDROOT
BRANCH   1  13
HETATM   13  C   UNL     1      44.274 -19.904   5.463  1.00  0.00     0.037 A 
HETATM   14  C   UNL     1      43.934 -21.146   5.992  1.00  0.00     0.036 A 
HETATM   15  C   UNL     1      43.657 -21.206   7.344  1.00  0.00     0.120 A 
HETATM   16  N   UNL     1      43.680 -20.132   8.165  1.00  0.00    -0.237 NA
HETATM   17  C   UNL     1      43.975 -18.937   7.607  1.00  0.00     0.164 A 
HETATM   18  C   UNL     1      44.276 -18.771   6.270  1.00  0.00     0.075 A 
BRANCH  17  19
HETATM   19  O   UNL     1      43.990 -17.795   8.381  1.00  0.00    -0.339 OA
HETATM   20  C   UNL     1      43.291 -16.707   7.788  1.00  0.00     0.211 C 
ENDBRANCH  17  19
ENDBRANCH   1  13
BRANCH   8  21
HETATM   21  C   UNL     1      39.923 -14.393   2.062  1.00  0.00     0.049 A 
HETATM   22  C   UNL     1      40.072 -13.167   2.726  1.00  0.00     0.133 A 
HETATM   23  F   UNL     1      41.133 -12.951   3.522  1.00  0.00    -0.205 F 
HETATM   24  C   UNL     1      39.139 -12.143   2.589  1.00  0.00     0.085 A 
HETATM   25  C   UNL     1      38.034 -12.345   1.778  1.00  0.00     0.119 A 
HETATM   26  F   UNL     1      37.128 -11.369   1.642  1.00  0.00    -0.206 F 
HETATM   27  C   UNL     1      37.850 -13.548   1.103  1.00  0.00     0.043 A 
HETATM   28  C   UNL     1      38.796 -14.568   1.243  1.00  0.00     0.021 A 
ENDBRANCH   8  21
TORSDOF 3
ENDMDL
MODEL 7
REMARK VINA RESULT:      -8.2      4.483      6.815
REMARK  3 active torsions:
REMARK  status: ('A' for Active; 'I' for Inactive)
REMARK    1  A    between atoms: O_2  and  C_3 
REMARK    2  A    between atoms: C_7  and  C_8 
REMARK       I    between atoms: C_8  and  N_9 
REMARK    3  A    between atoms: C_15  and  C_16 
ROOT
HETATM    1  C   UNL     1      41.579 -17.015   2.269  1.00  0.00     0.254 C 
HETATM    2  N   UNL     1      42.367 -16.650   3.363  1.00  0.00    -0.342 N 
HETATM    3  C   UNL     1      42.886 -15.266   3.533  1.00  0.00     0.187 C 
HETATM    4  C   UNL     1      43.459 -15.102   4.899  1.00  0.00     0.077 A 
HETATM    5  C   UNL     1      43.689 -16.134   5.771  1.00  0.00     0.039 A 
HETATM    6  N   UNL     1      44.231 -15.572   6.883  1.00  0.00    -0.342 N 
HETATM    7  H   UNL     1      44.526 -16.042   7.730  1.00  0.00     0.167 HD
HETATM    8  C   UNL     1      44.300 -14.207   6.669  1.00  0.00     0.141 A 
HETATM    9  N   UNL     1      43.834 -13.911   5.463  1.00  0.00    -0.231 NA
HETATM   10  C   UNL     1      43.364 -17.552   5.515  1.00  0.00     0.079 C 
HETATM   11  C   UNL     1      43.152 -17.740   3.995  1.00  0.00     0.132 C 
HETATM   12  O   UNL     1      41.449 -18.175   1.882  1.00  0.00    -0.267 OA
ENDROOT
BRANCH   1  13
HETATM   13  C   UNL     1      40.856 -15.977   1.509  1.00  0.00     0.037 A 
HETATM   14  C   UNL     1      39.653 -15.452   1.973  1.00  0.00     0.036 A 
HETATM   15  C   UNL     1      39.018 -14.520   1.175  1.00  0.00     0.120 A 
HETATM   16  N   UNL     1      39.487 -14.111  -0.024  1.00  0.00    -0.237 NA
HETATM   17  C   UNL     1      40.637 -14.673  -0.459  1.00  0.00     0.164 A 
HETATM   18  C   UNL     1      41.355 -15.605   0.265  1.00  0.00     0.075 A 
BRANCH  17  19
HETATM   19  O   UNL     1      41.160 -14.322  -1.686  1.00  0.00    -0.339 OA
HETATM   20  C   UNL     1      40.949 -15.311  -2.689  1.00  0.00     0.211 C 
ENDBRANCH  17  19
ENDBRANCH   1  13
BRANCH   8  21
HETATM   21  C   UNL     1      44.806 -13.250   7.659  1.00  0.00     0.049 A 
HETATM   22  C   UNL     1      46.112 -12.743   7.615  1.00  0.00     0.133 A 
HETATM   23  F   UNL     1      46.957 -13.125   6.642  1.00  0.00    -0.205 F 
HETATM   24  C   UNL     1      46.578 -11.838   8.565  1.00  0.00     0.085 A 
HETATM   25  C   UNL     1      45.726 -11.433   9.581  1.00  0.00     0.119 A 
HETATM   26  F   UNL     1      46.164 -10.566  10.502  1.00  0.00    -0.206 F 
HETATM   27  C   UNL     1      44.424 -11.914   9.659  1.00  0.00     0.043 A 
HETATM   28  C   UNL     1      43.964 -12.819   8.698  1.00  0.00     0.021 A 
ENDBRANCH   8  21
TORSDOF 3
ENDMDL
MODEL 8
REMARK VINA RESULT:      -8.2      4.424      8.716
REMARK  3 active torsions:
REMARK  status: ('A' for Active; 'I' for Inactive)
REMARK    1  A    between atoms: O_2  and  C_3 
REMARK    2  A    between atoms: C_7  and  C_8 
REMARK       I    between atoms: C_8  and  N_9 
REMARK    3  A    between atoms: C_15  and  C_16 
ROOT
HETATM    1  C   UNL     1      43.332 -18.497   6.545  1.00  0.00     0.254 C 
HETATM    2  N   UNL     1      42.622 -17.519   5.842  1.00  0.00    -0.342 N 
HETATM    3  C   UNL     1      42.704 -17.400   4.362  1.00  0.00     0.187 C 
HETATM    4  C   UNL     1      41.656 -16.462   3.869  1.00  0.00     0.077 A 
HETATM    5  C   UNL     1      40.899 -15.653   4.678  1.00  0.00     0.039 A 
HETATM    6  N   UNL     1      40.088 -14.946   3.847  1.00  0.00    -0.342 N 
HETATM    7  H   UNL     1      39.397 -14.251   4.105  1.00  0.00     0.167 HD
HETATM    8  C   UNL     1      40.356 -15.355   2.553  1.00  0.00     0.141 A 
HETATM    9  N   UNL     1      41.311 -16.276   2.557  1.00  0.00    -0.231 NA
HETATM   10  C   UNL     1      40.970 -15.620   6.152  1.00  0.00     0.079 C 
HETATM   11  C   UNL     1      42.294 -16.284   6.595  1.00  0.00     0.132 C 
HETATM   12  O   UNL     1      43.604 -18.411   7.740  1.00  0.00    -0.267 OA
ENDROOT
BRANCH   1  13
HETATM   13  C   UNL     1      43.801 -19.707   5.843  1.00  0.00     0.037 A 
HETATM   14  C   UNL     1      44.003 -20.903   6.527  1.00  0.00     0.036 A 
HETATM   15  C   UNL     1      44.490 -21.974   5.802  1.00  0.00     0.120 A 
HETATM   16  N   UNL     1      44.794 -21.916   4.487  1.00  0.00    -0.237 NA
HETATM   17  C   UNL     1      44.622 -20.727   3.867  1.00  0.00     0.164 A 
HETATM   18  C   UNL     1      44.132 -19.600   4.496  1.00  0.00     0.075 A 
BRANCH  17  19
HETATM   19  O   UNL     1      44.938 -20.590   2.531  1.00  0.00    -0.339 OA
HETATM   20  C   UNL     1      44.370 -21.608   1.713  1.00  0.00     0.211 C 
ENDBRANCH  17  19
ENDBRANCH   1  13
BRANCH   8  21
HETATM   21  C   UNL     1      39.657 -14.838   1.373  1.00  0.00     0.049 A 
HETATM   22  C   UNL     1      40.309 -14.617   0.151  1.00  0.00     0.133 A 
HETATM   23  F   UNL     1      41.621 -14.879   0.023  1.00  0.00    -0.205 F 
HETATM   24  C   UNL     1      39.631 -14.122  -0.960  1.00  0.00     0.085 A 
HETATM   25  C   UNL     1      38.279 -13.838  -0.851  1.00  0.00     0.119 A 
HETATM   26  F   UNL     1      37.618 -13.358  -1.911  1.00  0.00    -0.206 F 
HETATM   27  C   UNL     1      37.598 -14.043   0.344  1.00  0.00     0.043 A 
HETATM   28  C   UNL     1      38.286 -14.546   1.453  1.00  0.00     0.021 A 
ENDBRANCH   8  21
TORSDOF 3
ENDMDL
MODEL 9
REMARK VINA RESULT:      -8.2      4.353      8.867
REMARK  3 active torsions:
REMARK  status: ('A' for Active; 'I' for Inactive)
REMARK    1  A    between atoms: O_2  and  C_3 
REMARK    2  A    between atoms: C_7  and  C_8 
REMARK       I    between atoms: C_8  and  N_9 
REMARK    3  A    between atoms: C_15  and  C_16 
ROOT
HETATM    1  C   UNL     1      44.313 -18.565   4.697  1.00  0.00     0.254 C 
HETATM    2  N   UNL     1      43.618 -18.091   3.581  1.00  0.00    -0.342 N 
HETATM    3  C   UNL     1      42.361 -17.306   3.712  1.00  0.00     0.187 C 
HETATM    4  C   UNL     1      41.991 -16.715   2.395  1.00  0.00     0.077 A 
HETATM    5  C   UNL     1      42.585 -17.047   1.204  1.00  0.00     0.039 A 
HETATM    6  N   UNL     1      41.952 -16.311   0.252  1.00  0.00    -0.342 N 
HETATM    7  H   UNL     1      42.134 -16.305  -0.744  1.00  0.00     0.167 HD
HETATM    8  C   UNL     1      41.001 -15.534   0.889  1.00  0.00     0.141 A 
HETATM    9  N   UNL     1      41.016 -15.774   2.193  1.00  0.00    -0.231 NA
HETATM   10  C   UNL     1      43.704 -17.997   1.048  1.00  0.00     0.079 C 
HETATM   11  C   UNL     1      43.796 -18.862   2.326  1.00  0.00     0.132 C 
HETATM   12  O   UNL     1      45.104 -19.504   4.656  1.00  0.00    -0.267 OA
ENDROOT
BRANCH   1  13
HETATM   13  C   UNL     1      44.105 -17.930   6.013  1.00  0.00     0.037 A 
HETATM   14  C   UNL     1      43.646 -18.665   7.102  1.00  0.00     0.036 A 
HETATM   15  C   UNL     1      43.432 -17.982   8.284  1.00  0.00     0.120 A 
HETATM   16  N   UNL     1      43.623 -16.653   8.430  1.00  0.00    -0.237 NA
HETATM   17  C   UNL     1      44.031 -15.966   7.339  1.00  0.00     0.164 A 
HETATM   18  C   UNL     1      44.283 -16.554   6.115  1.00  0.00     0.075 A 
BRANCH  17  19
HETATM   19  O   UNL     1      44.221 -14.601   7.409  1.00  0.00    -0.339 OA
HETATM   20  C   UNL     1      43.866 -13.924   6.208  1.00  0.00     0.211 C 
ENDBRANCH  17  19
ENDBRANCH   1  13
BRANCH   8  21
HETATM   21  C   UNL     1      40.130 -14.579   0.195  1.00  0.00     0.049 A 
HETATM   22  C   UNL     1      38.816 -14.321   0.612  1.00  0.00     0.133 A 
HETATM   23  F   UNL     1      38.307 -14.954   1.683  1.00  0.00    -0.205 F 
HETATM   24  C   UNL     1      38.001 -13.415  -0.059  1.00  0.00     0.085 A 
HETATM   25  C   UNL     1      38.503 -12.754  -1.170  1.00  0.00     0.119 A 
HETATM   26  F   UNL     1      37.727 -11.883  -1.826  1.00  0.00    -0.206 F 
HETATM   27  C   UNL     1      39.801 -12.983  -1.614  1.00  0.00     0.043 A 
HETATM   28  C   UNL     1      40.613 -13.892  -0.930  1.00  0.00     0.021 A 
ENDBRANCH   8  21
TORSDOF 3
ENDMDL
MODEL 10
REMARK VINA RESULT:      -8.0      4.356      8.663
REMARK  3 active torsions:
REMARK  status: ('A' for Active; 'I' for Inactive)
REMARK    1  A    between atoms: O_2  and  C_3 
REMARK    2  A    between atoms: C_7  and  C_8 
REMARK       I    between atoms: C_8  and  N_9 
REMARK    3  A    between atoms: C_15  and  C_16 
ROOT
HETATM    1  C   UNL     1      41.690 -16.708   5.656  1.00  0.00     0.254 C 
HETATM    2  N   UNL     1      41.481 -15.675   4.738  1.00  0.00    -0.342 N 
HETATM    3  C   UNL     1      42.588 -15.123   3.912  1.00  0.00     0.187 C 
HETATM    4  C   UNL     1      42.034 -14.235   2.850  1.00  0.00     0.077 A 
HETATM    5  C   UNL     1      40.732 -13.807   2.800  1.00  0.00     0.039 A 
HETATM    6  N   UNL     1      40.642 -13.008   1.704  1.00  0.00    -0.342 N 
HETATM    7  H   UNL     1      39.823 -12.519   1.363  1.00  0.00     0.167 HD
HETATM    8  C   UNL     1      41.887 -12.984   1.101  1.00  0.00     0.141 A 
HETATM    9  N   UNL     1      42.742 -13.726   1.793  1.00  0.00    -0.231 NA
HETATM   10  C   UNL     1      39.674 -14.193   3.754  1.00  0.00     0.079 C 
HETATM   11  C   UNL     1      40.342 -14.768   5.023  1.00  0.00     0.132 C 
HETATM   12  O   UNL     1      40.941 -16.935   6.604  1.00  0.00    -0.267 OA
ENDROOT
BRANCH   1  13
HETATM   13  C   UNL     1      42.867 -17.587   5.515  1.00  0.00     0.037 A 
HETATM   14  C   UNL     1      43.948 -17.488   6.387  1.00  0.00     0.036 A 
HETATM   15  C   UNL     1      45.030 -18.315   6.152  1.00  0.00     0.120 A 
HETATM   16  N   UNL     1      45.099 -19.189   5.124  1.00  0.00    -0.237 NA
HETATM   17  C   UNL     1      44.047 -19.228   4.277  1.00  0.00     0.164 A 
HETATM   18  C   UNL     1      42.915 -18.451   4.427  1.00  0.00     0.075 A 
BRANCH  17  19
HETATM   19  O   UNL     1      44.063 -20.078   3.190  1.00  0.00    -0.339 OA
HETATM   20  C   UNL     1      43.254 -19.623   2.111  1.00  0.00     0.211 C 
ENDBRANCH  17  19
ENDBRANCH   1  13
BRANCH   8  21
HETATM   21  C   UNL     1      42.182 -12.247  -0.132  1.00  0.00     0.049 A 
HETATM   22  C   UNL     1      42.134 -12.851  -1.397  1.00  0.00     0.133 A 
HETATM   23  F   UNL     1      41.808 -14.149  -1.518  1.00  0.00    -0.205 F 
HETATM   24  C   UNL     1      42.420 -12.138  -2.558  1.00  0.00     0.085 A 
HETATM   25  C   UNL     1      42.765 -10.799  -2.457  1.00  0.00     0.119 A 
HETATM   26  F   UNL     1      43.045 -10.105  -3.567  1.00  0.00    -0.206 F 
HETATM   27  C   UNL     1      42.823 -10.165  -1.221  1.00  0.00     0.043 A 
HETATM   28  C   UNL     1      42.529 -10.888  -0.061  1.00  0.00     0.021 A 
ENDBRANCH   8  21
TORSDOF 3
ENDMDL
