MODEL 1
REMARK VINA RESULT:      -8.8      0.000      0.000
REMARK  5 active torsions:
REMARK  status: ('A' for Active; 'I' for Inactive)
REMARK    1  A    between atoms: C_5  and  N_6 
REMARK    2  A    between atoms: N_6  and  C_7 
REMARK    3  A    between atoms: C_7  and  C_8 
REMARK       I    between atoms: C_8  and  N_9 
REMARK    4  A    between atoms: N_9  and  N_10 
REMARK    5  A    between atoms: C_11  and  C_12 
ROOT
HETATM    1  C   UNL     1      44.902 -13.647   7.438  1.00  0.00     0.250 C 
HETATM    2  N   UNL     1      44.016 -14.717   7.450  1.00  0.00    -0.246 N 
HETATM    3  O   UNL     1      45.930 -13.586   6.765  1.00  0.00    -0.270 OA
HETATM    4  H   UNL     1      43.160 -14.660   7.993  1.00  0.00     0.192 HD
ENDROOT
BRANCH   2   5
HETATM    5  N   UNL     1      44.323 -15.835   6.729  1.00  0.00    -0.184 NA
HETATM    6  C   UNL     1      43.505 -16.832   6.807  1.00  0.00     0.152 C 
BRANCH   6   7
HETATM    7  C   UNL     1      43.815 -18.049   6.081  1.00  0.00     0.011 A 
HETATM    8  C   UNL     1      43.841 -18.250   4.662  1.00  0.00     0.004 A 
HETATM    9  C   UNL     1      44.170 -19.591   4.437  1.00  0.00     0.043 A 
HETATM   10  C   UNL     1      43.611 -17.423   3.543  1.00  0.00     0.014 A 
HETATM   11  C   UNL     1      44.277 -20.142   3.154  1.00  0.00     0.030 A 
HETATM   12  N   UNL     1      44.345 -20.179   5.665  1.00  0.00    -0.364 N 
HETATM   13  C   UNL     1      44.044 -19.300   2.064  1.00  0.00     0.002 A 
HETATM   14  C   UNL     1      43.716 -17.959   2.253  1.00  0.00     0.001 A 
HETATM   15  H   UNL     1      44.591 -21.150   5.810  1.00  0.00     0.165 HD
HETATM   16  C   UNL     1      44.135 -19.265   6.660  1.00  0.00     0.102 A 
ENDBRANCH   6   7
ENDBRANCH   2   5
BRANCH   1  17
HETATM   17  C   UNL     1      44.506 -12.519   8.389  1.00  0.00     0.197 C 
BRANCH  17  18
HETATM   18  N   UNL     1      44.376 -13.002   9.772  1.00  0.00    -0.284 NA
HETATM   19  H   UNL     1      43.738 -13.797   9.843  1.00  0.00     0.128 HD
BRANCH  18  20
HETATM   20  C   UNL     1      44.082 -12.065  10.780  1.00  0.00     0.008 A 
HETATM   21  C   UNL     1      43.486 -12.389  12.004  1.00  0.00     0.024 A 
HETATM   22  C   UNL     1      43.137 -11.397  12.931  1.00  0.00     0.008 A 
HETATM   23  C   UNL     1      43.345 -10.047  12.642  1.00  0.00    -0.062 A 
HETATM   24  C   UNL     1      42.914  -8.974  13.597  1.00  0.00     0.048 C 
HETATM   25  C   UNL     1      43.917  -9.708  11.413  1.00  0.00     0.008 A 
HETATM   26  C   UNL     1      44.274 -10.706  10.497  1.00  0.00     0.024 A 
ENDBRANCH  18  20
ENDBRANCH  17  18
ENDBRANCH   1  17
TORSDOF 5
ENDMDL
MODEL 2
REMARK VINA RESULT:      -8.4      1.469      2.038
REMARK  5 active torsions:
REMARK  status: ('A' for Active; 'I' for Inactive)
REMARK    1  A    between atoms: C_5  and  N_6 
REMARK    2  A    between atoms: N_6  and  C_7 
REMARK    3  A    between atoms: C_7  and  C_8 
REMARK       I    between atoms: C_8  and  N_9 
REMARK    4  A    between atoms: N_9  and  N_10 
REMARK    5  A    between atoms: C_11  and  C_12 
ROOT
HETATM    1  C   UNL     1      44.650 -13.697   6.937  1.00  0.00     0.250 C 
HETATM    2  N   UNL     1      43.455 -14.366   6.705  1.00  0.00    -0.246 N 
HETATM    3  O   UNL     1      45.601 -13.654   6.158  1.00  0.00    -0.270 OA
HETATM    4  H   UNL     1      42.698 -14.302   7.378  1.00  0.00     0.192 HD
ENDROOT
BRANCH   2   5
HETATM    5  N   UNL     1      43.326 -15.109   5.566  1.00  0.00    -0.184 NA
HETATM    6  C   UNL     1      43.177 -16.385   5.705  1.00  0.00     0.152 C 
BRANCH   6   7
HETATM    7  C   UNL     1      43.070 -17.210   4.517  1.00  0.00     0.011 A 
HETATM    8  C   UNL     1      43.723 -18.456   4.242  1.00  0.00     0.004 A 
HETATM    9  C   UNL     1      43.327 -18.861   2.964  1.00  0.00     0.043 A 
HETATM   10  C   UNL     1      44.619 -19.278   4.956  1.00  0.00     0.014 A 
HETATM   11  C   UNL     1      43.784 -20.042   2.366  1.00  0.00     0.030 A 
HETATM   12  N   UNL     1      42.464 -17.908   2.483  1.00  0.00    -0.364 N 
HETATM   13  C   UNL     1      44.671 -20.838   3.095  1.00  0.00     0.002 A 
HETATM   14  C   UNL     1      45.084 -20.464   4.372  1.00  0.00     0.001 A 
HETATM   15  H   UNL     1      42.017 -17.939   1.576  1.00  0.00     0.165 HD
HETATM   16  C   UNL     1      42.301 -16.912   3.405  1.00  0.00     0.102 A 
ENDBRANCH   6   7
ENDBRANCH   2   5
BRANCH   1  17
HETATM   17  C   UNL     1      44.711 -13.018   8.305  1.00  0.00     0.197 C 
BRANCH  17  18
HETATM   18  N   UNL     1      43.618 -12.048   8.473  1.00  0.00    -0.284 NA
HETATM   19  H   UNL     1      43.519 -11.438   7.659  1.00  0.00     0.128 HD
BRANCH  18  20
HETATM   20  C   UNL     1      43.585 -11.280   9.651  1.00  0.00     0.008 A 
HETATM   21  C   UNL     1      44.551 -11.349  10.662  1.00  0.00     0.024 A 
HETATM   22  C   UNL     1      44.414 -10.622  11.852  1.00  0.00     0.008 A 
HETATM   23  C   UNL     1      43.286  -9.831  12.079  1.00  0.00    -0.062 A 
HETATM   24  C   UNL     1      43.097  -9.103  13.376  1.00  0.00     0.048 C 
HETATM   25  C   UNL     1      42.303  -9.773  11.088  1.00  0.00     0.008 A 
HETATM   26  C   UNL     1      42.452 -10.492   9.896  1.00  0.00     0.024 A 
ENDBRANCH  18  20
ENDBRANCH  17  18
ENDBRANCH   1  17
TORSDOF 5
ENDMDL
MODEL 3
REMARK VINA RESULT:      -8.3      6.616     10.022
REMARK  5 active torsions:
REMARK  status: ('A' for Active; 'I' for Inactive)
REMARK    1  A    between atoms: C_5  and  N_6 
REMARK    2  A    between atoms: N_6  and  C_7 
REMARK    3  A    between atoms: C_7  and  C_8 
REMARK       I    between atoms: C_8  and  N_9 
REMARK    4  A    between atoms: N_9  and  N_10 
REMARK    5  A    between atoms: C_11  and  C_12 
ROOT
HETATM    1  C   UNL     1      41.854 -16.008   0.989  1.00  0.00     0.250 C 
HETATM    2  N   UNL     1      42.091 -15.855   2.349  1.00  0.00    -0.246 N 
HETATM    3  O   UNL     1      41.849 -17.081   0.387  1.00  0.00    -0.270 OA
HETATM    4  H   UNL     1      42.020 -14.938   2.777  1.00  0.00     0.192 HD
ENDROOT
BRANCH   2   5
HETATM    5  N   UNL     1      42.427 -16.954   3.088  1.00  0.00    -0.184 NA
HETATM    6  C   UNL     1      43.684 -17.223   3.212  1.00  0.00     0.152 C 
BRANCH   6   7
HETATM    7  C   UNL     1      44.077 -18.401   3.962  1.00  0.00     0.011 A 
HETATM    8  C   UNL     1      44.189 -19.751   3.494  1.00  0.00     0.004 A 
HETATM    9  C   UNL     1      44.577 -20.538   4.583  1.00  0.00     0.043 A 
HETATM   10  C   UNL     1      43.994 -20.383   2.250  1.00  0.00     0.014 A 
HETATM   11  C   UNL     1      44.774 -21.922   4.488  1.00  0.00     0.030 A 
HETATM   12  N   UNL     1      44.703 -19.703   5.666  1.00  0.00    -0.364 N 
HETATM   13  C   UNL     1      44.574 -22.522   3.243  1.00  0.00     0.002 A 
HETATM   14  C   UNL     1      44.190 -21.766   2.137  1.00  0.00     0.001 A 
HETATM   15  H   UNL     1      44.973 -20.000   6.595  1.00  0.00     0.165 HD
HETATM   16  C   UNL     1      44.405 -18.418   5.306  1.00  0.00     0.102 A 
ENDBRANCH   6   7
ENDBRANCH   2   5
BRANCH   1  17
HETATM   17  C   UNL     1      41.624 -14.685   0.260  1.00  0.00     0.197 C 
BRANCH  17  18
HETATM   18  N   UNL     1      41.702 -14.854  -1.199  1.00  0.00    -0.284 NA
HETATM   19  H   UNL     1      42.433 -14.273  -1.614  1.00  0.00     0.128 HD
BRANCH  18  20
HETATM   20  C   UNL     1      40.517 -14.736  -1.948  1.00  0.00     0.008 A 
HETATM   21  C   UNL     1      39.409 -13.978  -1.551  1.00  0.00     0.024 A 
HETATM   22  C   UNL     1      38.224 -13.971  -2.299  1.00  0.00     0.008 A 
HETATM   23  C   UNL     1      38.103 -14.755  -3.449  1.00  0.00    -0.062 A 
HETATM   24  C   UNL     1      36.817 -14.807  -4.219  1.00  0.00     0.048 C 
HETATM   25  C   UNL     1      39.192 -15.535  -3.842  1.00  0.00     0.008 A 
HETATM   26  C   UNL     1      40.378 -15.527  -3.097  1.00  0.00     0.024 A 
ENDBRANCH  18  20
ENDBRANCH  17  18
ENDBRANCH   1  17
TORSDOF 5
ENDMDL
MODEL 4
REMARK VINA RESULT:      -8.2      1.609      2.693
REMARK  5 active torsions:
REMARK  status: ('A' for Active; 'I' for Inactive)
REMARK    1  A    between atoms: C_5  and  N_6 
REMARK    2  A    between atoms: N_6  and  C_7 
REMARK    3  A    between atoms: C_7  and  C_8 
REMARK       I    between atoms: C_8  and  N_9 
REMARK    4  A    between atoms: N_9  and  N_10 
REMARK    5  A    between atoms: C_11  and  C_12 
ROOT
HETATM    1  C   UNL     1      44.513 -12.554   8.499  1.00  0.00     0.250 C 
HETATM    2  N   UNL     1      43.625 -12.941   7.503  1.00  0.00    -0.246 N 
HETATM    3  O   UNL     1      45.609 -13.070   8.711  1.00  0.00    -0.270 OA
HETATM    4  H   UNL     1      42.765 -12.421   7.361  1.00  0.00     0.192 HD
ENDROOT
BRANCH   2   5
HETATM    5  N   UNL     1      43.930 -14.027   6.734  1.00  0.00    -0.184 NA
HETATM    6  C   UNL     1      42.953 -14.614   6.125  1.00  0.00     0.152 C 
BRANCH   6   7
HETATM    7  C   UNL     1      43.235 -15.791   5.326  1.00  0.00     0.011 A 
HETATM    8  C   UNL     1      43.490 -17.127   5.777  1.00  0.00     0.004 A 
HETATM    9  C   UNL     1      43.729 -17.912   4.644  1.00  0.00     0.043 A 
HETATM   10  C   UNL     1      43.546 -17.748   7.042  1.00  0.00     0.014 A 
HETATM   11  C   UNL     1      44.024 -19.279   4.715  1.00  0.00     0.030 A 
HETATM   12  N   UNL     1      43.617 -17.091   3.549  1.00  0.00    -0.364 N 
HETATM   13  C   UNL     1      44.073 -19.868   5.980  1.00  0.00     0.002 A 
HETATM   14  C   UNL     1      43.837 -19.116   7.129  1.00  0.00     0.001 A 
HETATM   15  H   UNL     1      43.740 -17.389   2.590  1.00  0.00     0.165 HD
HETATM   16  C   UNL     1      43.321 -15.816   3.945  1.00  0.00     0.102 A 
ENDBRANCH   6   7
ENDBRANCH   2   5
BRANCH   1  17
HETATM   17  C   UNL     1      43.990 -11.413   9.370  1.00  0.00     0.197 C 
BRANCH  17  18
HETATM   18  N   UNL     1      43.066 -11.904  10.403  1.00  0.00    -0.284 NA
HETATM   19  H   UNL     1      42.153 -12.152  10.016  1.00  0.00     0.128 HD
BRANCH  18  20
HETATM   20  C   UNL     1      42.895 -11.132  11.567  1.00  0.00     0.008 A 
HETATM   21  C   UNL     1      43.826 -10.196  12.032  1.00  0.00     0.024 A 
HETATM   22  C   UNL     1      43.638  -9.522  13.247  1.00  0.00     0.008 A 
HETATM   23  C   UNL     1      42.527  -9.794  14.048  1.00  0.00    -0.062 A 
HETATM   24  C   UNL     1      42.350  -9.128  15.380  1.00  0.00     0.048 C 
HETATM   25  C   UNL     1      41.603 -10.744  13.607  1.00  0.00     0.008 A 
HETATM   26  C   UNL     1      41.791 -11.404  12.386  1.00  0.00     0.024 A 
ENDBRANCH  18  20
ENDBRANCH  17  18
ENDBRANCH   1  17
TORSDOF 5
ENDMDL
MODEL 5
REMARK VINA RESULT:      -8.1      6.944      9.690
REMARK  5 active torsions:
REMARK  status: ('A' for Active; 'I' for Inactive)
REMARK    1  A    between atoms: C_5  and  N_6 
REMARK    2  A    between atoms: N_6  and  C_7 
REMARK    3  A    between atoms: C_7  and  C_8 
REMARK       I    between atoms: C_8  and  N_9 
REMARK    4  A    between atoms: N_9  and  N_10 
REMARK    5  A    between atoms: C_11  and  C_12 
ROOT
HETATM    1  C   UNL     1      41.700 -15.167   0.098  1.00  0.00     0.250 C 
HETATM    2  N   UNL     1      41.769 -16.554   0.071  1.00  0.00    -0.246 N 
HETATM    3  O   UNL     1      42.014 -14.460   1.054  1.00  0.00    -0.270 OA
HETATM    4  H   UNL     1      41.544 -17.057  -0.782  1.00  0.00     0.192 HD
ENDROOT
BRANCH   2   5
HETATM    5  N   UNL     1      42.134 -17.218   1.207  1.00  0.00    -0.184 NA
HETATM    6  C   UNL     1      43.356 -17.630   1.285  1.00  0.00     0.152 C 
BRANCH   6   7
HETATM    7  C   UNL     1      43.772 -18.367   2.462  1.00  0.00     0.011 A 
HETATM    8  C   UNL     1      44.028 -19.772   2.582  1.00  0.00     0.004 A 
HETATM    9  C   UNL     1      44.380 -20.020   3.913  1.00  0.00     0.043 A 
HETATM   10  C   UNL     1      43.989 -20.862   1.688  1.00  0.00     0.014 A 
HETATM   11  C   UNL     1      44.690 -21.300   4.391  1.00  0.00     0.030 A 
HETATM   12  N   UNL     1      44.347 -18.818   4.574  1.00  0.00    -0.364 N 
HETATM   13  C   UNL     1      44.644 -22.360   3.484  1.00  0.00     0.002 A 
HETATM   14  C   UNL     1      44.300 -22.148   2.151  1.00  0.00     0.001 A 
HETATM   15  H   UNL     1      44.559 -18.693   5.556  1.00  0.00     0.165 HD
HETATM   16  C   UNL     1      43.984 -17.817   3.715  1.00  0.00     0.102 A 
ENDBRANCH   6   7
ENDBRANCH   2   5
BRANCH   1  17
HETATM   17  C   UNL     1      41.149 -14.560  -1.192  1.00  0.00     0.197 C 
BRANCH  17  18
HETATM   18  N   UNL     1      42.231 -14.190  -2.117  1.00  0.00    -0.284 NA
HETATM   19  H   UNL     1      43.127 -14.599  -1.844  1.00  0.00     0.128 HD
BRANCH  18  20
HETATM   20  C   UNL     1      42.405 -12.828  -2.427  1.00  0.00     0.008 A 
HETATM   21  C   UNL     1      42.805 -11.857  -1.502  1.00  0.00     0.024 A 
HETATM   22  C   UNL     1      42.874 -10.501  -1.852  1.00  0.00     0.008 A 
HETATM   23  C   UNL     1      42.509 -10.076  -3.131  1.00  0.00    -0.062 A 
HETATM   24  C   UNL     1      42.515  -8.621  -3.495  1.00  0.00     0.048 C 
HETATM   25  C   UNL     1      42.084 -11.033  -4.056  1.00  0.00     0.008 A 
HETATM   26  C   UNL     1      42.030 -12.387  -3.703  1.00  0.00     0.024 A 
ENDBRANCH  18  20
ENDBRANCH  17  18
ENDBRANCH   1  17
TORSDOF 5
ENDMDL
MODEL 6
REMARK VINA RESULT:      -7.8      1.152      1.601
REMARK  5 active torsions:
REMARK  status: ('A' for Active; 'I' for Inactive)
REMARK    1  A    between atoms: C_5  and  N_6 
REMARK    2  A    between atoms: N_6  and  C_7 
REMARK    3  A    between atoms: C_7  and  C_8 
REMARK       I    between atoms: C_8  and  N_9 
REMARK    4  A    between atoms: N_9  and  N_10 
REMARK    5  A    between atoms: C_11  and  C_12 
ROOT
HETATM    1  C   UNL     1      44.781 -12.985   8.449  1.00  0.00     0.250 C 
HETATM    2  N   UNL     1      43.905 -13.778   7.717  1.00  0.00    -0.246 N 
HETATM    3  O   UNL     1      45.992 -13.174   8.550  1.00  0.00    -0.270 OA
HETATM    4  H   UNL     1      42.928 -13.516   7.641  1.00  0.00     0.192 HD
ENDROOT
BRANCH   2   5
HETATM    5  N   UNL     1      44.383 -14.908   7.118  1.00  0.00    -0.184 NA
HETATM    6  C   UNL     1      43.518 -15.711   6.594  1.00  0.00     0.152 C 
BRANCH   6   7
HETATM    7  C   UNL     1      43.986 -16.937   5.977  1.00  0.00     0.011 A 
HETATM    8  C   UNL     1      43.596 -17.500   4.717  1.00  0.00     0.004 A 
HETATM    9  C   UNL     1      44.299 -18.699   4.560  1.00  0.00     0.043 A 
HETATM   10  C   UNL     1      42.707 -17.108   3.695  1.00  0.00     0.014 A 
HETATM   11  C   UNL     1      44.154 -19.522   3.437  1.00  0.00     0.030 A 
HETATM   12  N   UNL     1      45.089 -18.856   5.671  1.00  0.00    -0.364 N 
HETATM   13  C   UNL     1      43.267 -19.110   2.440  1.00  0.00     0.002 A 
HETATM   14  C   UNL     1      42.553 -17.920   2.563  1.00  0.00     0.001 A 
HETATM   15  H   UNL     1      45.710 -19.639   5.831  1.00  0.00     0.165 HD
HETATM   16  C   UNL     1      44.910 -17.807   6.530  1.00  0.00     0.102 A 
ENDBRANCH   6   7
ENDBRANCH   2   5
BRANCH   1  17
HETATM   17  C   UNL     1      44.093 -11.831   9.177  1.00  0.00     0.197 C 
BRANCH  17  18
HETATM   18  N   UNL     1      43.757 -12.193  10.562  1.00  0.00    -0.284 NA
HETATM   19  H   UNL     1      43.227 -13.065  10.614  1.00  0.00     0.128 HD
BRANCH  18  20
HETATM   20  C   UNL     1      43.152 -11.219  11.377  1.00  0.00     0.008 A 
HETATM   21  C   UNL     1      42.695  -9.980  10.913  1.00  0.00     0.024 A 
HETATM   22  C   UNL     1      42.181  -9.016  11.792  1.00  0.00     0.008 A 
HETATM   23  C   UNL     1      42.145  -9.253  13.168  1.00  0.00    -0.062 A 
HETATM   24  C   UNL     1      41.660  -8.204  14.122  1.00  0.00     0.048 C 
HETATM   25  C   UNL     1      42.621 -10.476  13.646  1.00  0.00     0.008 A 
HETATM   26  C   UNL     1      43.121 -11.439  12.761  1.00  0.00     0.024 A 
ENDBRANCH  18  20
ENDBRANCH  17  18
ENDBRANCH   1  17
TORSDOF 5
ENDMDL
MODEL 7
REMARK VINA RESULT:      -7.7      5.881      9.597
REMARK  5 active torsions:
REMARK  status: ('A' for Active; 'I' for Inactive)
REMARK    1  A    between atoms: C_5  and  N_6 
REMARK    2  A    between atoms: N_6  and  C_7 
REMARK    3  A    between atoms: C_7  and  C_8 
REMARK       I    between atoms: C_8  and  N_9 
REMARK    4  A    between atoms: N_9  and  N_10 
REMARK    5  A    between atoms: C_11  and  C_12 
ROOT
HETATM    1  C   UNL     1      41.556 -16.029   4.504  1.00  0.00     0.250 C 
HETATM    2  N   UNL     1      40.491 -16.361   3.676  1.00  0.00    -0.246 N 
HETATM    3  O   UNL     1      42.119 -14.935   4.529  1.00  0.00    -0.270 OA
HETATM    4  H   UNL     1      40.047 -17.270   3.761  1.00  0.00     0.192 HD
ENDROOT
BRANCH   2   5
HETATM    5  N   UNL     1      40.067 -15.451   2.750  1.00  0.00    -0.184 NA
HETATM    6  C   UNL     1      40.569 -15.536   1.563  1.00  0.00     0.152 C 
BRANCH   6   7
HETATM    7  C   UNL     1      40.165 -14.566   0.562  1.00  0.00     0.011 A 
HETATM    8  C   UNL     1      40.401 -14.603  -0.851  1.00  0.00     0.004 A 
HETATM    9  C   UNL     1      39.845 -13.440  -1.396  1.00  0.00     0.043 A 
HETATM   10  C   UNL     1      41.038 -15.510  -1.722  1.00  0.00     0.014 A 
HETATM   11  C   UNL     1      39.899 -13.142  -2.764  1.00  0.00     0.030 A 
HETATM   12  N   UNL     1      39.289 -12.731  -0.362  1.00  0.00    -0.364 N 
HETATM   13  C   UNL     1      40.536 -14.058  -3.603  1.00  0.00     0.002 A 
HETATM   14  C   UNL     1      41.098 -15.227  -3.093  1.00  0.00     0.001 A 
HETATM   15  H   UNL     1      38.814 -11.843  -0.461  1.00  0.00     0.165 HD
HETATM   16  C   UNL     1      39.474 -13.395   0.819  1.00  0.00     0.102 A 
ENDBRANCH   6   7
ENDBRANCH   2   5
BRANCH   1  17
HETATM   17  C   UNL     1      42.015 -17.181   5.396  1.00  0.00     0.197 C 
BRANCH  17  18
HETATM   18  N   UNL     1      43.416 -17.543   5.128  1.00  0.00    -0.284 NA
HETATM   19  H   UNL     1      43.988 -16.725   4.909  1.00  0.00     0.128 HD
BRANCH  18  20
HETATM   20  C   UNL     1      43.672 -18.566   4.196  1.00  0.00     0.008 A 
HETATM   21  C   UNL     1      43.086 -18.638   2.927  1.00  0.00     0.024 A 
HETATM   22  C   UNL     1      43.315 -19.731   2.079  1.00  0.00     0.008 A 
HETATM   23  C   UNL     1      44.111 -20.801   2.495  1.00  0.00    -0.062 A 
HETATM   24  C   UNL     1      44.307 -22.005   1.623  1.00  0.00     0.048 C 
HETATM   25  C   UNL     1      44.681 -20.753   3.769  1.00  0.00     0.008 A 
HETATM   26  C   UNL     1      44.459 -19.652   4.606  1.00  0.00     0.024 A 
ENDBRANCH  18  20
ENDBRANCH  17  18
ENDBRANCH   1  17
TORSDOF 5
ENDMDL
MODEL 8
REMARK VINA RESULT:      -7.7      6.605     10.052
REMARK  5 active torsions:
REMARK  status: ('A' for Active; 'I' for Inactive)
REMARK    1  A    between atoms: C_5  and  N_6 
REMARK    2  A    between atoms: N_6  and  C_7 
REMARK    3  A    between atoms: C_7  and  C_8 
REMARK       I    between atoms: C_8  and  N_9 
REMARK    4  A    between atoms: N_9  and  N_10 
REMARK    5  A    between atoms: C_11  and  C_12 
ROOT
HETATM    1  C   UNL     1      39.463 -15.173   2.100  1.00  0.00     0.250 C 
HETATM    2  N   UNL     1      40.075 -16.307   1.582  1.00  0.00    -0.246 N 
HETATM    3  O   UNL     1      39.621 -14.741   3.241  1.00  0.00    -0.270 OA
HETATM    4  H   UNL     1      39.933 -16.561   0.610  1.00  0.00     0.192 HD
ENDROOT
BRANCH   2   5
HETATM    5  N   UNL     1      40.857 -17.068   2.404  1.00  0.00    -0.184 NA
HETATM    6  C   UNL     1      42.127 -17.080   2.167  1.00  0.00     0.152 C 
BRANCH   6   7
HETATM    7  C   UNL     1      42.985 -17.902   2.999  1.00  0.00     0.011 A 
HETATM    8  C   UNL     1      43.405 -19.254   2.773  1.00  0.00     0.004 A 
HETATM    9  C   UNL     1      44.206 -19.629   3.858  1.00  0.00     0.043 A 
HETATM   10  C   UNL     1      43.178 -20.200   1.753  1.00  0.00     0.014 A 
HETATM   11  C   UNL     1      44.784 -20.899   3.971  1.00  0.00     0.030 A 
HETATM   12  N   UNL     1      44.276 -18.550   4.703  1.00  0.00    -0.364 N 
HETATM   13  C   UNL     1      44.543 -21.816   2.946  1.00  0.00     0.002 A 
HETATM   14  C   UNL     1      43.753 -21.475   1.851  1.00  0.00     0.001 A 
HETATM   15  H   UNL     1      44.791 -18.533   5.574  1.00  0.00     0.165 HD
HETATM   16  C   UNL     1      43.548 -17.508   4.200  1.00  0.00     0.102 A 
ENDBRANCH   6   7
ENDBRANCH   2   5
BRANCH   1  17
HETATM   17  C   UNL     1      38.512 -14.492   1.117  1.00  0.00     0.197 C 
BRANCH  17  18
HETATM   18  N   UNL     1      39.033 -14.543  -0.258  1.00  0.00    -0.284 NA
HETATM   19  H   UNL     1      40.040 -14.373  -0.293  1.00  0.00     0.128 HD
BRANCH  18  20
HETATM   20  C   UNL     1      38.387 -13.775  -1.244  1.00  0.00     0.008 A 
HETATM   21  C   UNL     1      37.789 -12.532  -1.005  1.00  0.00     0.024 A 
HETATM   22  C   UNL     1      37.083 -11.857  -2.011  1.00  0.00     0.008 A 
HETATM   23  C   UNL     1      36.925 -12.427  -3.276  1.00  0.00    -0.062 A 
HETATM   24  C   UNL     1      36.115 -11.745  -4.337  1.00  0.00     0.048 C 
HETATM   25  C   UNL     1      37.495 -13.679  -3.519  1.00  0.00     0.008 A 
HETATM   26  C   UNL     1      38.210 -14.341  -2.514  1.00  0.00     0.024 A 
ENDBRANCH  18  20
ENDBRANCH  17  18
ENDBRANCH   1  17
TORSDOF 5
ENDMDL
MODEL 9
REMARK VINA RESULT:      -7.5      6.654      8.989
REMARK  5 active torsions:
REMARK  status: ('A' for Active; 'I' for Inactive)
REMARK    1  A    between atoms: C_5  and  N_6 
REMARK    2  A    between atoms: N_6  and  C_7 
REMARK    3  A    between atoms: C_7  and  C_8 
REMARK       I    between atoms: C_8  and  N_9 
REMARK    4  A    between atoms: N_9  and  N_10 
REMARK    5  A    between atoms: C_11  and  C_12 
ROOT
HETATM    1  C   UNL     1      41.846 -15.587   0.479  1.00  0.00     0.250 C 
HETATM    2  N   UNL     1      42.590 -15.373   1.632  1.00  0.00    -0.246 N 
HETATM    3  O   UNL     1      41.718 -16.669  -0.091  1.00  0.00    -0.270 OA
HETATM    4  H   UNL     1      42.595 -14.457   2.070  1.00  0.00     0.192 HD
ENDROOT
BRANCH   2   5
HETATM    5  N   UNL     1      43.311 -16.409   2.153  1.00  0.00    -0.184 NA
HETATM    6  C   UNL     1      42.759 -17.100   3.095  1.00  0.00     0.152 C 
BRANCH   6   7
HETATM    7  C   UNL     1      43.508 -18.188   3.695  1.00  0.00     0.011 A 
HETATM    8  C   UNL     1      43.726 -19.505   3.174  1.00  0.00     0.004 A 
HETATM    9  C   UNL     1      44.487 -20.205   4.115  1.00  0.00     0.043 A 
HETATM   10  C   UNL     1      43.345 -20.175   1.993  1.00  0.00     0.014 A 
HETATM   11  C   UNL     1      44.881 -21.537   3.935  1.00  0.00     0.030 A 
HETATM   12  N   UNL     1      44.729 -19.350   5.161  1.00  0.00    -0.364 N 
HETATM   13  C   UNL     1      44.490 -22.176   2.756  1.00  0.00     0.002 A 
HETATM   14  C   UNL     1      43.733 -21.507   1.796  1.00  0.00     0.001 A 
HETATM   15  H   UNL     1      45.259 -19.587   5.990  1.00  0.00     0.165 HD
HETATM   16  C   UNL     1      44.147 -18.136   4.921  1.00  0.00     0.102 A 
ENDBRANCH   6   7
ENDBRANCH   2   5
BRANCH   1  17
HETATM   17  C   UNL     1      41.199 -14.317  -0.072  1.00  0.00     0.197 C 
BRANCH  17  18
HETATM   18  N   UNL     1      39.993 -14.624  -0.856  1.00  0.00    -0.284 NA
HETATM   19  H   UNL     1      40.200 -14.740  -1.849  1.00  0.00     0.128 HD
BRANCH  18  20
HETATM   20  C   UNL     1      38.868 -13.794  -0.699  1.00  0.00     0.008 A 
HETATM   21  C   UNL     1      38.397 -12.915  -1.682  1.00  0.00     0.024 A 
HETATM   22  C   UNL     1      37.323 -12.049  -1.432  1.00  0.00     0.008 A 
HETATM   23  C   UNL     1      36.713 -12.014  -0.176  1.00  0.00    -0.062 A 
HETATM   24  C   UNL     1      35.608 -11.045   0.122  1.00  0.00     0.048 C 
HETATM   25  C   UNL     1      37.190 -12.869   0.821  1.00  0.00     0.008 A 
HETATM   26  C   UNL     1      38.255 -13.740   0.560  1.00  0.00     0.024 A 
ENDBRANCH  18  20
ENDBRANCH  17  18
ENDBRANCH   1  17
TORSDOF 5
ENDMDL
MODEL 10
REMARK VINA RESULT:      -7.5      7.075     10.632
REMARK  5 active torsions:
REMARK  status: ('A' for Active; 'I' for Inactive)
REMARK    1  A    between atoms: C_5  and  N_6 
REMARK    2  A    between atoms: N_6  and  C_7 
REMARK    3  A    between atoms: C_7  and  C_8 
REMARK       I    between atoms: C_8  and  N_9 
REMARK    4  A    between atoms: N_9  and  N_10 
REMARK    5  A    between atoms: C_11  and  C_12 
ROOT
HETATM    1  C   UNL     1      40.962 -15.409   2.104  1.00  0.00     0.250 C 
HETATM    2  N   UNL     1      40.316 -15.634   0.894  1.00  0.00    -0.246 N 
HETATM    3  O   UNL     1      41.473 -14.344   2.446  1.00  0.00    -0.270 OA
HETATM    4  H   UNL     1      39.870 -16.528   0.716  1.00  0.00     0.192 HD
ENDROOT
BRANCH   2   5
HETATM    5  N   UNL     1      40.302 -14.638  -0.041  1.00  0.00    -0.184 NA
HETATM    6  C   UNL     1      40.896 -14.872  -1.164  1.00  0.00     0.152 C 
BRANCH   6   7
HETATM    7  C   UNL     1      40.929 -13.827  -2.168  1.00  0.00     0.011 A 
HETATM    8  C   UNL     1      41.687 -12.611  -2.155  1.00  0.00     0.004 A 
HETATM    9  C   UNL     1      41.375 -11.911  -3.326  1.00  0.00     0.043 A 
HETATM   10  C   UNL     1      42.608 -12.031  -1.258  1.00  0.00     0.014 A 
HETATM   11  C   UNL     1      41.933 -10.666  -3.639  1.00  0.00     0.030 A 
HETATM   12  N   UNL     1      40.471 -12.672  -4.025  1.00  0.00    -0.364 N 
HETATM   13  C   UNL     1      42.842 -10.116  -2.732  1.00  0.00     0.002 A 
HETATM   14  C   UNL     1      43.177 -10.787  -1.558  1.00  0.00     0.001 A 
HETATM   15  H   UNL     1      40.067 -12.413  -4.916  1.00  0.00     0.165 HD
HETATM   16  C   UNL     1      40.195 -13.824  -3.342  1.00  0.00     0.102 A 
ENDBRANCH   6   7
ENDBRANCH   2   5
BRANCH   1  17
HETATM   17  C   UNL     1      41.020 -16.644   3.001  1.00  0.00     0.197 C 
BRANCH  17  18
HETATM   18  N   UNL     1      42.390 -16.902   3.472  1.00  0.00    -0.284 NA
HETATM   19  H   UNL     1      43.047 -16.189   3.150  1.00  0.00     0.128 HD
BRANCH  18  20
HETATM   20  C   UNL     1      42.936 -18.182   3.262  1.00  0.00     0.008 A 
HETATM   21  C   UNL     1      43.917 -18.761   4.076  1.00  0.00     0.024 A 
HETATM   22  C   UNL     1      44.485 -20.003   3.762  1.00  0.00     0.008 A 
HETATM   23  C   UNL     1      44.111 -20.685   2.602  1.00  0.00    -0.062 A 
HETATM   24  C   UNL     1      44.761 -21.982   2.222  1.00  0.00     0.048 C 
HETATM   25  C   UNL     1      43.152 -20.107   1.768  1.00  0.00     0.008 A 
HETATM   26  C   UNL     1      42.579 -18.871   2.095  1.00  0.00     0.024 A 
ENDBRANCH  18  20
ENDBRANCH  17  18
ENDBRANCH   1  17
TORSDOF 5
ENDMDL
