MODEL 1
REMARK VINA RESULT:     -10.1      0.000      0.000
REMARK  7 active torsions:
REMARK  status: ('A' for Active; 'I' for Inactive)
REMARK    1  A    between atoms: C_8  and  C_9 
REMARK    2  A    between atoms: C_9  and  C_10 
REMARK    3  A    between atoms: C_10  and  N_11 
REMARK    4  A    between atoms: C_10  and  C_19 
REMARK       I    between atoms: N_11  and  C_12 
REMARK    5  A    between atoms: C_12  and  C_13 
REMARK       I    between atoms: C_19  and  N_20 
REMARK    6  A    between atoms: N_20  and  N_21 
REMARK       I    between atoms: N_21  and  C_22 
REMARK       I    between atoms: C_22  and  N_23 
REMARK    7  A    between atoms: N_23  and  C_24 
ROOT
HETATM    1  C   UNL     1      43.363 -16.323   5.862  1.00  0.00     0.183 C 
ENDROOT
BRANCH   1   2
HETATM    2  C   UNL     1      42.796 -17.699   6.259  1.00  0.00     0.076 C 
BRANCH   2   3
HETATM    3  C   UNL     1      43.491 -18.861   5.610  1.00  0.00    -0.028 A 
HETATM    4  C   UNL     1      43.493 -19.218   4.223  1.00  0.00    -0.002 A 
HETATM    5  C   UNL     1      42.910 -18.669   3.061  1.00  0.00     0.014 A 
HETATM    6  C   UNL     1      44.262 -20.376   4.092  1.00  0.00     0.042 A 
HETATM    7  C   UNL     1      43.101 -19.301   1.827  1.00  0.00     0.001 A 
HETATM    8  C   UNL     1      43.869 -20.458   1.734  1.00  0.00     0.002 A 
HETATM    9  C   UNL     1      44.470 -21.016   2.865  1.00  0.00     0.030 A 
HETATM   10  N   UNL     1      44.730 -20.697   5.344  1.00  0.00    -0.365 N 
HETATM   11  H   UNL     1      45.330 -21.483   5.549  1.00  0.00     0.165 HD
HETATM   12  C   UNL     1      44.268 -19.798   6.265  1.00  0.00     0.096 A 
ENDBRANCH   2   3
ENDBRANCH   1   2
BRANCH   1  13
HETATM   13  N   UNL     1      42.561 -15.597   4.873  1.00  0.00    -0.343 N 
HETATM   14  C   UNL     1      41.208 -15.375   5.030  1.00  0.00     0.259 C 
HETATM   15  O   UNL     1      40.675 -15.489   6.130  1.00  0.00    -0.267 OA
HETATM   16  H   UNL     1      42.864 -15.682   3.909  1.00  0.00     0.163 HD
BRANCH  14  17
HETATM   17  C   UNL     1      40.490 -14.973   3.826  1.00  0.00     0.072 A 
HETATM   18  S   UNL     1      39.820 -13.402   3.644  1.00  0.00    -0.097 SA
HETATM   19  C   UNL     1      39.199 -13.768   2.094  1.00  0.00     0.050 A 
HETATM   20  C   UNL     1      39.501 -15.054   1.708  1.00  0.00     0.009 A 
HETATM   21  C   UNL     1      40.247 -15.747   2.706  1.00  0.00     0.025 A 
ENDBRANCH  14  17
ENDBRANCH   1  13
BRANCH   1  22
HETATM   22  C   UNL     1      43.734 -15.533   7.132  1.00  0.00     0.259 C 
HETATM   23  N   UNL     1      44.068 -14.207   6.923  1.00  0.00    -0.264 N 
HETATM   24  H   UNL     1      43.631 -13.716   6.142  1.00  0.00     0.190 HD
HETATM   25  O   UNL     1      43.892 -16.081   8.226  1.00  0.00    -0.269 OA
BRANCH  23  26
HETATM   26  N   UNL     1      44.281 -13.427   8.071  1.00  0.00    -0.249 N 
HETATM   27  C   UNL     1      45.470 -12.773   8.215  1.00  0.00     0.339 C 
HETATM   28  N   UNL     1      45.661 -12.055   9.360  1.00  0.00    -0.308 N 
HETATM   29  O   UNL     1      46.371 -12.852   7.381  1.00  0.00    -0.245 OA
HETATM   30  H   UNL     1      46.632 -11.784   9.461  1.00  0.00     0.170 HD
HETATM   31  H   UNL     1      43.779 -13.733   8.898  1.00  0.00     0.192 HD
BRANCH  28  32
HETATM   32  C   UNL     1      44.772 -11.620  10.361  1.00  0.00     0.036 A 
HETATM   33  C   UNL     1      44.311 -10.306  10.493  1.00  0.00     0.031 A 
HETATM   34  C   UNL     1      43.414  -9.966  11.513  1.00  0.00     0.026 A 
HETATM   35  C   UNL     1      42.993 -10.933  12.421  1.00  0.00     0.034 A 
HETATM   36 CL   UNL     1      41.887 -10.516  13.670  1.00  0.00    -0.084 Cl
HETATM   37  C   UNL     1      43.475 -12.235  12.327  1.00  0.00     0.026 A 
HETATM   38  C   UNL     1      44.369 -12.573  11.306  1.00  0.00     0.031 A 
ENDBRANCH  28  32
ENDBRANCH  23  26
ENDBRANCH   1  22
TORSDOF 7
ENDMDL
MODEL 2
REMARK VINA RESULT:     -10.0      1.366      1.458
REMARK  7 active torsions:
REMARK  status: ('A' for Active; 'I' for Inactive)
REMARK    1  A    between atoms: C_8  and  C_9 
REMARK    2  A    between atoms: C_9  and  C_10 
REMARK    3  A    between atoms: C_10  and  N_11 
REMARK    4  A    between atoms: C_10  and  C_19 
REMARK       I    between atoms: N_11  and  C_12 
REMARK    5  A    between atoms: C_12  and  C_13 
REMARK       I    between atoms: C_19  and  N_20 
REMARK    6  A    between atoms: N_20  and  N_21 
REMARK       I    between atoms: N_21  and  C_22 
REMARK       I    between atoms: C_22  and  N_23 
REMARK    7  A    between atoms: N_23  and  C_24 
ROOT
HETATM    1  C   UNL     1      43.107 -15.808   5.567  1.00  0.00     0.183 C 
ENDROOT
BRANCH   1   2
HETATM    2  C   UNL     1      42.481 -17.184   5.868  1.00  0.00     0.076 C 
BRANCH   2   3
HETATM    3  C   UNL     1      43.322 -18.350   5.439  1.00  0.00    -0.028 A 
HETATM    4  C   UNL     1      43.406 -18.938   4.135  1.00  0.00    -0.002 A 
HETATM    5  C   UNL     1      42.800 -18.669   2.890  1.00  0.00     0.014 A 
HETATM    6  C   UNL     1      44.304 -20.004   4.217  1.00  0.00     0.042 A 
HETATM    7  C   UNL     1      43.099 -19.477   1.787  1.00  0.00     0.001 A 
HETATM    8  C   UNL     1      43.995 -20.535   1.904  1.00  0.00     0.002 A 
HETATM    9  C   UNL     1      44.620 -20.817   3.121  1.00  0.00     0.030 A 
HETATM   10  N   UNL     1      44.768 -20.047   5.510  1.00  0.00    -0.365 N 
HETATM   11  H   UNL     1      45.447 -20.711   5.854  1.00  0.00     0.165 HD
HETATM   12  C   UNL     1      44.180 -19.063   6.255  1.00  0.00     0.096 A 
ENDBRANCH   2   3
ENDBRANCH   1   2
BRANCH   1  13
HETATM   13  N   UNL     1      42.298 -14.948   4.700  1.00  0.00    -0.343 N 
HETATM   14  C   UNL     1      42.701 -14.578   3.434  1.00  0.00     0.259 C 
HETATM   15  O   UNL     1      43.589 -15.194   2.851  1.00  0.00    -0.267 OA
HETATM   16  H   UNL     1      41.717 -14.264   5.173  1.00  0.00     0.163 HD
BRANCH  14  17
HETATM   17  C   UNL     1      41.986 -13.451   2.847  1.00  0.00     0.072 A 
HETATM   18  S   UNL     1      40.678 -12.680   3.650  1.00  0.00    -0.097 SA
HETATM   19  C   UNL     1      40.438 -11.584   2.361  1.00  0.00     0.050 A 
HETATM   20  C   UNL     1      41.338 -11.784   1.340  1.00  0.00     0.009 A 
HETATM   21  C   UNL     1      42.231 -12.858   1.622  1.00  0.00     0.025 A 
ENDBRANCH  14  17
ENDBRANCH   1  13
BRANCH   1  22
HETATM   22  C   UNL     1      43.594 -15.166   6.881  1.00  0.00     0.259 C 
HETATM   23  N   UNL     1      43.754 -13.793   6.839  1.00  0.00    -0.264 N 
HETATM   24  H   UNL     1      43.151 -13.255   6.216  1.00  0.00     0.190 HD
HETATM   25  O   UNL     1      43.980 -15.840   7.840  1.00  0.00    -0.269 OA
BRANCH  23  26
HETATM   26  N   UNL     1      44.068 -13.163   8.055  1.00  0.00    -0.249 N 
HETATM   27  C   UNL     1      45.347 -12.740   8.270  1.00  0.00     0.339 C 
HETATM   28  N   UNL     1      45.628 -12.167   9.476  1.00  0.00    -0.308 N 
HETATM   29  O   UNL     1      46.244 -12.902   7.442  1.00  0.00    -0.245 OA
HETATM   30  H   UNL     1      46.628 -12.077   9.612  1.00  0.00     0.170 HD
HETATM   31  H   UNL     1      43.500 -13.447   8.846  1.00  0.00     0.192 HD
BRANCH  28  32
HETATM   32  C   UNL     1      44.802 -11.671  10.502  1.00  0.00     0.036 A 
HETATM   33  C   UNL     1      44.522 -10.316  10.708  1.00  0.00     0.031 A 
HETATM   34  C   UNL     1      43.674  -9.915  11.747  1.00  0.00     0.026 A 
HETATM   35  C   UNL     1      43.121 -10.864  12.601  1.00  0.00     0.034 A 
HETATM   36 CL   UNL     1      42.075 -10.371  13.873  1.00  0.00    -0.084 Cl
HETATM   37  C   UNL     1      43.422 -12.212  12.433  1.00  0.00     0.026 A 
HETATM   38  C   UNL     1      44.268 -12.611  11.392  1.00  0.00     0.031 A 
ENDBRANCH  28  32
ENDBRANCH  23  26
ENDBRANCH   1  22
TORSDOF 7
ENDMDL
MODEL 3
REMARK VINA RESULT:      -9.9      1.560      1.747
REMARK  7 active torsions:
REMARK  status: ('A' for Active; 'I' for Inactive)
REMARK    1  A    between atoms: C_8  and  C_9 
REMARK    2  A    between atoms: C_9  and  C_10 
REMARK    3  A    between atoms: C_10  and  N_11 
REMARK    4  A    between atoms: C_10  and  C_19 
REMARK       I    between atoms: N_11  and  C_12 
REMARK    5  A    between atoms: C_12  and  C_13 
REMARK       I    between atoms: C_19  and  N_20 
REMARK    6  A    between atoms: N_20  and  N_21 
REMARK       I    between atoms: N_21  and  C_22 
REMARK       I    between atoms: C_22  and  N_23 
REMARK    7  A    between atoms: N_23  and  C_24 
ROOT
HETATM    1  C   UNL     1      43.237 -15.888   4.634  1.00  0.00     0.183 C 
ENDROOT
BRANCH   1   2
HETATM    2  C   UNL     1      42.477 -17.153   5.078  1.00  0.00     0.076 C 
BRANCH   2   3
HETATM    3  C   UNL     1      43.297 -18.409   5.037  1.00  0.00    -0.028 A 
HETATM    4  C   UNL     1      43.530 -19.268   3.914  1.00  0.00    -0.002 A 
HETATM    5  C   UNL     1      43.126 -19.257   2.562  1.00  0.00     0.014 A 
HETATM    6  C   UNL     1      44.340 -20.317   4.354  1.00  0.00     0.042 A 
HETATM    7  C   UNL     1      43.529 -20.294   1.713  1.00  0.00     0.001 A 
HETATM    8  C   UNL     1      44.332 -21.328   2.185  1.00  0.00     0.002 A 
HETATM    9  C   UNL     1      44.759 -21.357   3.515  1.00  0.00     0.030 A 
HETATM   10  N   UNL     1      44.611 -20.093   5.683  1.00  0.00    -0.365 N 
HETATM   11  H   UNL     1      45.191 -20.686   6.259  1.00  0.00     0.165 HD
HETATM   12  C   UNL     1      43.984 -18.953   6.106  1.00  0.00     0.096 A 
ENDBRANCH   2   3
ENDBRANCH   1   2
BRANCH   1  13
HETATM   13  N   UNL     1      42.885 -15.405   3.296  1.00  0.00    -0.343 N 
HETATM   14  C   UNL     1      41.601 -15.466   2.797  1.00  0.00     0.259 C 
HETATM   15  O   UNL     1      40.642 -15.628   3.546  1.00  0.00    -0.267 OA
HETATM   16  H   UNL     1      43.613 -15.477   2.594  1.00  0.00     0.163 HD
BRANCH  14  17
HETATM   17  C   UNL     1      41.474 -15.293   1.355  1.00  0.00     0.072 A 
HETATM   18  S   UNL     1      41.412 -13.740   0.622  1.00  0.00    -0.097 SA
HETATM   19  C   UNL     1      41.253 -14.405  -0.944  1.00  0.00     0.050 A 
HETATM   20  C   UNL     1      41.258 -15.781  -0.923  1.00  0.00     0.009 A 
HETATM   21  C   UNL     1      41.388 -16.292   0.402  1.00  0.00     0.025 A 
ENDBRANCH  14  17
ENDBRANCH   1  13
BRANCH   1  22
HETATM   22  C   UNL     1      43.188 -14.836   5.760  1.00  0.00     0.259 C 
HETATM   23  N   UNL     1      44.001 -15.102   6.847  1.00  0.00    -0.264 N 
HETATM   24  H   UNL     1      44.865 -15.621   6.688  1.00  0.00     0.190 HD
HETATM   25  O   UNL     1      42.359 -13.922   5.772  1.00  0.00    -0.269 OA
BRANCH  23  26
HETATM   26  N   UNL     1      44.081 -14.099   7.827  1.00  0.00    -0.249 N 
HETATM   27  C   UNL     1      45.141 -13.240   7.811  1.00  0.00     0.339 C 
HETATM   28  N   UNL     1      45.209 -12.302   8.799  1.00  0.00    -0.308 N 
HETATM   29  O   UNL     1      46.041 -13.319   6.975  1.00  0.00    -0.245 OA
HETATM   30  H   UNL     1      46.119 -11.858   8.817  1.00  0.00     0.170 HD
HETATM   31  H   UNL     1      43.641 -14.327   8.712  1.00  0.00     0.192 HD
BRANCH  28  32
HETATM   32  C   UNL     1      44.261 -11.845   9.734  1.00  0.00     0.036 A 
HETATM   33  C   UNL     1      43.223 -10.957   9.438  1.00  0.00     0.031 A 
HETATM   34  C   UNL     1      42.315 -10.567  10.431  1.00  0.00     0.026 A 
HETATM   35  C   UNL     1      42.456 -11.045  11.730  1.00  0.00     0.034 A 
HETATM   36 CL   UNL     1      41.338 -10.570  12.947  1.00  0.00    -0.084 Cl
HETATM   37  C   UNL     1      43.508 -11.897  12.049  1.00  0.00     0.026 A 
HETATM   38  C   UNL     1      44.413 -12.287  11.055  1.00  0.00     0.031 A 
ENDBRANCH  28  32
ENDBRANCH  23  26
ENDBRANCH   1  22
TORSDOF 7
ENDMDL
MODEL 4
REMARK VINA RESULT:      -9.8      1.762      2.423
REMARK  7 active torsions:
REMARK  status: ('A' for Active; 'I' for Inactive)
REMARK    1  A    between atoms: C_8  and  C_9 
REMARK    2  A    between atoms: C_9  and  C_10 
REMARK    3  A    between atoms: C_10  and  N_11 
REMARK    4  A    between atoms: C_10  and  C_19 
REMARK       I    between atoms: N_11  and  C_12 
REMARK    5  A    between atoms: C_12  and  C_13 
REMARK       I    between atoms: C_19  and  N_20 
REMARK    6  A    between atoms: N_20  and  N_21 
REMARK       I    between atoms: N_21  and  C_22 
REMARK       I    between atoms: C_22  and  N_23 
REMARK    7  A    between atoms: N_23  and  C_24 
ROOT
HETATM    1  C   UNL     1      43.069 -15.401   5.199  1.00  0.00     0.183 C 
ENDROOT
BRANCH   1   2
HETATM    2  C   UNL     1      42.508 -16.830   5.328  1.00  0.00     0.076 C 
BRANCH   2   3
HETATM    3  C   UNL     1      42.588 -17.639   4.066  1.00  0.00    -0.028 A 
HETATM    4  C   UNL     1      43.362 -18.821   3.829  1.00  0.00    -0.002 A 
HETATM    5  C   UNL     1      44.244 -19.596   4.612  1.00  0.00     0.014 A 
HETATM    6  C   UNL     1      43.129 -19.214   2.510  1.00  0.00     0.042 A 
HETATM    7  C   UNL     1      44.867 -20.714   4.046  1.00  0.00     0.001 A 
HETATM    8  C   UNL     1      44.617 -21.075   2.725  1.00  0.00     0.002 A 
HETATM    9  C   UNL     1      43.738 -20.334   1.932  1.00  0.00     0.030 A 
HETATM   10  N   UNL     1      42.231 -18.323   1.973  1.00  0.00    -0.365 N 
HETATM   11  H   UNL     1      41.866 -18.372   1.032  1.00  0.00     0.165 HD
HETATM   12  C   UNL     1      41.904 -17.368   2.896  1.00  0.00     0.096 A 
ENDBRANCH   2   3
ENDBRANCH   1   2
BRANCH   1  13
HETATM   13  N   UNL     1      42.209 -14.474   4.459  1.00  0.00    -0.343 N 
HETATM   14  C   UNL     1      42.683 -13.665   3.447  1.00  0.00     0.259 C 
HETATM   15  O   UNL     1      43.759 -13.902   2.904  1.00  0.00    -0.267 OA
HETATM   16  H   UNL     1      41.428 -14.085   4.977  1.00  0.00     0.163 HD
BRANCH  14  17
HETATM   17  C   UNL     1      41.814 -12.560   3.061  1.00  0.00     0.072 A 
HETATM   18  S   UNL     1      41.022 -11.572   4.222  1.00  0.00    -0.097 SA
HETATM   19  C   UNL     1      40.266 -10.630   3.013  1.00  0.00     0.050 A 
HETATM   20  C   UNL     1      40.613 -11.043   1.746  1.00  0.00     0.009 A 
HETATM   21  C   UNL     1      41.507 -12.153   1.776  1.00  0.00     0.025 A 
ENDBRANCH  14  17
ENDBRANCH   1  13
BRANCH   1  22
HETATM   22  C   UNL     1      43.551 -14.910   6.578  1.00  0.00     0.259 C 
HETATM   23  N   UNL     1      43.722 -13.542   6.688  1.00  0.00    -0.264 N 
HETATM   24  H   UNL     1      43.128 -12.934   6.123  1.00  0.00     0.190 HD
HETATM   25  O   UNL     1      43.924 -15.688   7.461  1.00  0.00    -0.269 OA
BRANCH  23  26
HETATM   26  N   UNL     1      44.031 -13.051   7.967  1.00  0.00    -0.249 N 
HETATM   27  C   UNL     1      45.329 -12.755   8.267  1.00  0.00     0.339 C 
HETATM   28  N   UNL     1      45.601 -12.318   9.530  1.00  0.00    -0.308 N 
HETATM   29  O   UNL     1      46.245 -12.916   7.461  1.00  0.00    -0.245 OA
HETATM   30  H   UNL     1      46.598 -12.324   9.710  1.00  0.00     0.170 HD
HETATM   31  H   UNL     1      43.408 -13.357   8.707  1.00  0.00     0.192 HD
BRANCH  28  32
HETATM   32  C   UNL     1      44.772 -11.849  10.567  1.00  0.00     0.036 A 
HETATM   33  C   UNL     1      44.142 -12.669  11.508  1.00  0.00     0.031 A 
HETATM   34  C   UNL     1      43.345 -12.113  12.517  1.00  0.00     0.026 A 
HETATM   35  C   UNL     1      43.155 -10.736  12.574  1.00  0.00     0.034 A 
HETATM   36 CL   UNL     1      42.181 -10.053  13.815  1.00  0.00    -0.084 Cl
HETATM   37  C   UNL     1      43.742  -9.911  11.619  1.00  0.00     0.026 A 
HETATM   38  C   UNL     1      44.540 -10.468  10.614  1.00  0.00     0.031 A 
ENDBRANCH  28  32
ENDBRANCH  23  26
ENDBRANCH   1  22
TORSDOF 7
ENDMDL
MODEL 5
REMARK VINA RESULT:      -9.7      2.539      3.347
REMARK  7 active torsions:
REMARK  status: ('A' for Active; 'I' for Inactive)
REMARK    1  A    between atoms: C_8  and  C_9 
REMARK    2  A    between atoms: C_9  and  C_10 
REMARK    3  A    between atoms: C_10  and  N_11 
REMARK    4  A    between atoms: C_10  and  C_19 
REMARK       I    between atoms: N_11  and  C_12 
REMARK    5  A    between atoms: C_12  and  C_13 
REMARK       I    between atoms: C_19  and  N_20 
REMARK    6  A    between atoms: N_20  and  N_21 
REMARK       I    between atoms: N_21  and  C_22 
REMARK       I    between atoms: C_22  and  N_23 
REMARK    7  A    between atoms: N_23  and  C_24 
ROOT
HETATM    1  C   UNL     1      41.400 -15.923   4.502  1.00  0.00     0.183 C 
ENDROOT
BRANCH   1   2
HETATM    2  C   UNL     1      41.190 -17.239   5.276  1.00  0.00     0.076 C 
BRANCH   2   3
HETATM    3  C   UNL     1      42.413 -18.104   5.363  1.00  0.00    -0.028 A 
HETATM    4  C   UNL     1      43.077 -18.793   4.296  1.00  0.00    -0.002 A 
HETATM    5  C   UNL     1      42.862 -18.902   2.906  1.00  0.00     0.014 A 
HETATM    6  C   UNL     1      44.158 -19.479   4.853  1.00  0.00     0.042 A 
HETATM    7  C   UNL     1      43.715 -19.699   2.135  1.00  0.00     0.001 A 
HETATM    8  C   UNL     1      44.780 -20.375   2.723  1.00  0.00     0.002 A 
HETATM    9  C   UNL     1      45.026 -20.274   4.095  1.00  0.00     0.030 A 
HETATM   10  N   UNL     1      44.167 -19.200   6.199  1.00  0.00    -0.365 N 
HETATM   11  H   UNL     1      44.852 -19.551   6.853  1.00  0.00     0.165 HD
HETATM   12  C   UNL     1      43.120 -18.381   6.518  1.00  0.00     0.096 A 
ENDBRANCH   2   3
ENDBRANCH   1   2
BRANCH   1  13
HETATM   13  N   UNL     1      40.431 -15.687   3.429  1.00  0.00    -0.343 N 
HETATM   14  C   UNL     1      40.809 -15.351   2.145  1.00  0.00     0.259 C 
HETATM   15  O   UNL     1      41.959 -15.542   1.758  1.00  0.00    -0.267 OA
HETATM   16  H   UNL     1      39.536 -15.306   3.717  1.00  0.00     0.163 HD
BRANCH  14  17
HETATM   17  C   UNL     1      39.757 -14.800   1.300  1.00  0.00     0.072 A 
HETATM   18  S   UNL     1      40.072 -14.205  -0.280  1.00  0.00    -0.097 SA
HETATM   19  C   UNL     1      38.437 -13.772  -0.522  1.00  0.00     0.050 A 
HETATM   20  C   UNL     1      37.656 -14.081   0.568  1.00  0.00     0.009 A 
HETATM   21  C   UNL     1      38.417 -14.676   1.616  1.00  0.00     0.025 A 
ENDBRANCH  14  17
ENDBRANCH   1  13
BRANCH   1  22
HETATM   22  C   UNL     1      41.590 -14.764   5.500  1.00  0.00     0.259 C 
HETATM   23  N   UNL     1      40.529 -13.879   5.581  1.00  0.00    -0.264 N 
HETATM   24  H   UNL     1      39.589 -14.235   5.403  1.00  0.00     0.190 HD
HETATM   25  O   UNL     1      42.670 -14.541   6.054  1.00  0.00    -0.269 OA
BRANCH  23  26
HETATM   26  N   UNL     1      40.614 -12.891   6.575  1.00  0.00    -0.249 N 
HETATM   27  C   UNL     1      39.645 -11.932   6.638  1.00  0.00     0.339 C 
HETATM   28  N   UNL     1      39.777 -10.963   7.590  1.00  0.00    -0.308 N 
HETATM   29  O   UNL     1      38.704 -11.891   5.845  1.00  0.00    -0.245 OA
HETATM   30  H   UNL     1      39.132 -10.199   7.423  1.00  0.00     0.170 HD
HETATM   31  H   UNL     1      41.555 -12.666   6.879  1.00  0.00     0.192 HD
BRANCH  28  32
HETATM   32  C   UNL     1      40.596 -10.865   8.731  1.00  0.00     0.036 A 
HETATM   33  C   UNL     1      40.152 -11.057  10.042  1.00  0.00     0.031 A 
HETATM   34  C   UNL     1      41.043 -10.954  11.118  1.00  0.00     0.026 A 
HETATM   35  C   UNL     1      42.378 -10.635  10.888  1.00  0.00     0.034 A 
HETATM   36 CL   UNL     1      43.473 -10.514  12.207  1.00  0.00    -0.084 Cl
HETATM   37  C   UNL     1      42.826 -10.401   9.591  1.00  0.00     0.026 A 
HETATM   38  C   UNL     1      41.934 -10.507   8.518  1.00  0.00     0.031 A 
ENDBRANCH  28  32
ENDBRANCH  23  26
ENDBRANCH   1  22
TORSDOF 7
ENDMDL
MODEL 6
REMARK VINA RESULT:      -9.2      2.061      4.943
REMARK  7 active torsions:
REMARK  status: ('A' for Active; 'I' for Inactive)
REMARK    1  A    between atoms: C_8  and  C_9 
REMARK    2  A    between atoms: C_9  and  C_10 
REMARK    3  A    between atoms: C_10  and  N_11 
REMARK    4  A    between atoms: C_10  and  C_19 
REMARK       I    between atoms: N_11  and  C_12 
REMARK    5  A    between atoms: C_12  and  C_13 
REMARK       I    between atoms: C_19  and  N_20 
REMARK    6  A    between atoms: N_20  and  N_21 
REMARK       I    between atoms: N_21  and  C_22 
REMARK       I    between atoms: C_22  and  N_23 
REMARK    7  A    between atoms: N_23  and  C_24 
ROOT
HETATM    1  C   UNL     1      42.884 -15.399   4.930  1.00  0.00     0.183 C 
ENDROOT
BRANCH   1   2
HETATM    2  C   UNL     1      42.867 -14.194   3.970  1.00  0.00     0.076 C 
BRANCH   2   3
HETATM    3  C   UNL     1      41.539 -13.948   3.314  1.00  0.00    -0.028 A 
HETATM    4  C   UNL     1      41.177 -14.190   1.949  1.00  0.00    -0.002 A 
HETATM    5  C   UNL     1      41.856 -14.702   0.823  1.00  0.00     0.014 A 
HETATM    6  C   UNL     1      39.846 -13.798   1.797  1.00  0.00     0.042 A 
HETATM    7  C   UNL     1      41.191 -14.786  -0.405  1.00  0.00     0.001 A 
HETATM    8  C   UNL     1      39.865 -14.382  -0.524  1.00  0.00     0.002 A 
HETATM    9  C   UNL     1      39.163 -13.884   0.577  1.00  0.00     0.030 A 
HETATM   10  N   UNL     1      39.407 -13.361   3.024  1.00  0.00    -0.365 N 
HETATM   11  H   UNL     1      38.472 -13.031   3.215  1.00  0.00     0.165 HD
HETATM   12  C   UNL     1      40.418 -13.440   3.942  1.00  0.00     0.096 A 
ENDBRANCH   2   3
ENDBRANCH   1   2
BRANCH   1  13
HETATM   13  N   UNL     1      43.513 -16.604   4.383  1.00  0.00    -0.343 N 
HETATM   14  C   UNL     1      42.784 -17.641   3.838  1.00  0.00     0.259 C 
HETATM   15  O   UNL     1      41.617 -17.477   3.495  1.00  0.00    -0.267 OA
HETATM   16  H   UNL     1      44.384 -16.886   4.820  1.00  0.00     0.163 HD
BRANCH  14  17
HETATM   17  C   UNL     1      43.501 -18.900   3.675  1.00  0.00     0.072 A 
HETATM   18  S   UNL     1      44.389 -19.620   4.957  1.00  0.00    -0.097 SA
HETATM   19  C   UNL     1      44.880 -20.932   3.979  1.00  0.00     0.050 A 
HETATM   20  C   UNL     1      44.374 -20.840   2.702  1.00  0.00     0.009 A 
HETATM   21  C   UNL     1      43.578 -19.670   2.529  1.00  0.00     0.025 A 
ENDBRANCH  14  17
ENDBRANCH   1  13
BRANCH   1  22
HETATM   22  C   UNL     1      43.394 -14.947   6.313  1.00  0.00     0.259 C 
HETATM   23  N   UNL     1      43.752 -13.614   6.400  1.00  0.00    -0.264 N 
HETATM   24  H   UNL     1      43.264 -12.942   5.806  1.00  0.00     0.190 HD
HETATM   25  O   UNL     1      43.631 -15.747   7.221  1.00  0.00    -0.269 OA
BRANCH  23  26
HETATM   26  N   UNL     1      44.093 -13.140   7.677  1.00  0.00    -0.249 N 
HETATM   27  C   UNL     1      45.403 -12.882   7.959  1.00  0.00     0.339 C 
HETATM   28  N   UNL     1      45.706 -12.460   9.221  1.00  0.00    -0.308 N 
HETATM   29  O   UNL     1      46.303 -13.063   7.139  1.00  0.00    -0.245 OA
HETATM   30  H   UNL     1      46.705 -12.495   9.386  1.00  0.00     0.170 HD
HETATM   31  H   UNL     1      43.473 -13.433   8.425  1.00  0.00     0.192 HD
BRANCH  28  32
HETATM   32  C   UNL     1      44.905 -11.976  10.273  1.00  0.00     0.036 A 
HETATM   33  C   UNL     1      44.305 -12.780  11.246  1.00  0.00     0.031 A 
HETATM   34  C   UNL     1      43.535 -12.208  12.267  1.00  0.00     0.026 A 
HETATM   35  C   UNL     1      43.344 -10.831  12.305  1.00  0.00     0.034 A 
HETATM   36 CL   UNL     1      42.404 -10.128  13.562  1.00  0.00    -0.084 Cl
HETATM   37  C   UNL     1      43.902 -10.021  11.321  1.00  0.00     0.026 A 
HETATM   38  C   UNL     1      44.672 -10.594  10.303  1.00  0.00     0.031 A 
ENDBRANCH  28  32
ENDBRANCH  23  26
ENDBRANCH   1  22
TORSDOF 7
ENDMDL
MODEL 7
REMARK VINA RESULT:      -9.2      3.549      7.653
REMARK  7 active torsions:
REMARK  status: ('A' for Active; 'I' for Inactive)
REMARK    1  A    between atoms: C_8  and  C_9 
REMARK    2  A    between atoms: C_9  and  C_10 
REMARK    3  A    between atoms: C_10  and  N_11 
REMARK    4  A    between atoms: C_10  and  C_19 
REMARK       I    between atoms: N_11  and  C_12 
REMARK    5  A    between atoms: C_12  and  C_13 
REMARK       I    between atoms: C_19  and  N_20 
REMARK    6  A    between atoms: N_20  and  N_21 
REMARK       I    between atoms: N_21  and  C_22 
REMARK       I    between atoms: C_22  and  N_23 
REMARK    7  A    between atoms: N_23  and  C_24 
ROOT
HETATM    1  C   UNL     1      43.446 -15.957   7.052  1.00  0.00     0.183 C 
ENDROOT
BRANCH   1   2
HETATM    2  C   UNL     1      44.601 -16.890   6.640  1.00  0.00     0.076 C 
BRANCH   2   3
HETATM    3  C   UNL     1      44.331 -18.347   6.881  1.00  0.00    -0.028 A 
HETATM    4  C   UNL     1      44.527 -19.437   5.971  1.00  0.00    -0.002 A 
HETATM    5  C   UNL     1      45.004 -19.545   4.648  1.00  0.00     0.014 A 
HETATM    6  C   UNL     1      44.127 -20.602   6.627  1.00  0.00     0.042 A 
HETATM    7  C   UNL     1      45.047 -20.799   4.029  1.00  0.00     0.001 A 
HETATM    8  C   UNL     1      44.635 -21.941   4.710  1.00  0.00     0.002 A 
HETATM    9  C   UNL     1      44.172 -21.866   6.026  1.00  0.00     0.030 A 
HETATM   10  N   UNL     1      43.729 -20.242   7.892  1.00  0.00    -0.365 N 
HETATM   11  H   UNL     1      43.403 -20.887   8.597  1.00  0.00     0.165 HD
HETATM   12  C   UNL     1      43.840 -18.888   8.054  1.00  0.00     0.096 A 
ENDBRANCH   2   3
ENDBRANCH   1   2
BRANCH   1  13
HETATM   13  N   UNL     1      43.869 -14.729   7.731  1.00  0.00    -0.343 N 
HETATM   14  C   UNL     1      44.607 -13.748   7.104  1.00  0.00     0.259 C 
HETATM   15  O   UNL     1      44.677 -13.699   5.879  1.00  0.00    -0.267 OA
HETATM   16  H   UNL     1      44.039 -14.811   8.728  1.00  0.00     0.163 HD
BRANCH  14  17
HETATM   17  C   UNL     1      45.252 -12.781   7.984  1.00  0.00     0.072 A 
HETATM   18  S   UNL     1      44.434 -12.073   9.319  1.00  0.00    -0.097 SA
HETATM   19  C   UNL     1      45.795 -11.133   9.748  1.00  0.00     0.050 A 
HETATM   20  C   UNL     1      46.861 -11.355   8.905  1.00  0.00     0.009 A 
HETATM   21  C   UNL     1      46.547 -12.306   7.891  1.00  0.00     0.025 A 
ENDBRANCH  14  17
ENDBRANCH   1  13
BRANCH   1  22
HETATM   22  C   UNL     1      42.489 -15.766   5.859  1.00  0.00     0.259 C 
HETATM   23  N   UNL     1      43.083 -15.839   4.612  1.00  0.00    -0.264 N 
HETATM   24  H   UNL     1      43.903 -16.436   4.501  1.00  0.00     0.190 HD
HETATM   25  O   UNL     1      41.319 -15.403   6.005  1.00  0.00    -0.269 OA
BRANCH  23  26
HETATM   26  N   UNL     1      42.218 -15.803   3.505  1.00  0.00    -0.249 N 
HETATM   27  C   UNL     1      41.826 -16.978   2.934  1.00  0.00     0.339 C 
HETATM   28  N   UNL     1      41.018 -16.908   1.837  1.00  0.00    -0.308 N 
HETATM   29  O   UNL     1      42.213 -18.073   3.344  1.00  0.00    -0.245 OA
HETATM   30  H   UNL     1      40.953 -17.808   1.375  1.00  0.00     0.170 HD
HETATM   31  H   UNL     1      42.291 -14.971   2.929  1.00  0.00     0.192 HD
BRANCH  28  32
HETATM   32  C   UNL     1      40.266 -15.855   1.283  1.00  0.00     0.036 A 
HETATM   33  C   UNL     1      39.071 -15.368   1.821  1.00  0.00     0.031 A 
HETATM   34  C   UNL     1      38.397 -14.303   1.210  1.00  0.00     0.026 A 
HETATM   35  C   UNL     1      38.903 -13.737   0.044  1.00  0.00     0.034 A 
HETATM   36 CL   UNL     1      38.078 -12.426  -0.704  1.00  0.00    -0.084 Cl
HETATM   37  C   UNL     1      40.069 -14.238  -0.526  1.00  0.00     0.026 A 
HETATM   38  C   UNL     1      40.742 -15.299   0.088  1.00  0.00     0.031 A 
ENDBRANCH  28  32
ENDBRANCH  23  26
ENDBRANCH   1  22
TORSDOF 7
ENDMDL
MODEL 8
REMARK VINA RESULT:      -9.2      2.165      2.474
REMARK  7 active torsions:
REMARK  status: ('A' for Active; 'I' for Inactive)
REMARK    1  A    between atoms: C_8  and  C_9 
REMARK    2  A    between atoms: C_9  and  C_10 
REMARK    3  A    between atoms: C_10  and  N_11 
REMARK    4  A    between atoms: C_10  and  C_19 
REMARK       I    between atoms: N_11  and  C_12 
REMARK    5  A    between atoms: C_12  and  C_13 
REMARK       I    between atoms: C_19  and  N_20 
REMARK    6  A    between atoms: N_20  and  N_21 
REMARK       I    between atoms: N_21  and  C_22 
REMARK       I    between atoms: C_22  and  N_23 
REMARK    7  A    between atoms: N_23  and  C_24 
ROOT
HETATM    1  C   UNL     1      43.505 -15.465   4.774  1.00  0.00     0.183 C 
ENDROOT
BRANCH   1   2
HETATM    2  C   UNL     1      42.736 -16.653   5.383  1.00  0.00     0.076 C 
BRANCH   2   3
HETATM    3  C   UNL     1      43.446 -17.970   5.268  1.00  0.00    -0.028 A 
HETATM    4  C   UNL     1      43.586 -18.792   4.102  1.00  0.00    -0.002 A 
HETATM    5  C   UNL     1      43.162 -18.683   2.761  1.00  0.00     0.014 A 
HETATM    6  C   UNL     1      44.313 -19.924   4.476  1.00  0.00     0.042 A 
HETATM    7  C   UNL     1      43.461 -19.708   1.856  1.00  0.00     0.001 A 
HETATM    8  C   UNL     1      44.182 -20.827   2.264  1.00  0.00     0.002 A 
HETATM    9  C   UNL     1      44.627 -20.954   3.582  1.00  0.00     0.030 A 
HETATM   10  N   UNL     1      44.624 -19.786   5.807  1.00  0.00    -0.365 N 
HETATM   11  H   UNL     1      45.162 -20.453   6.343  1.00  0.00     0.165 HD
HETATM   12  C   UNL     1      44.103 -18.620   6.296  1.00  0.00     0.096 A 
ENDBRANCH   2   3
ENDBRANCH   1   2
BRANCH   1  13
HETATM   13  N   UNL     1      43.094 -15.108   3.413  1.00  0.00    -0.343 N 
HETATM   14  C   UNL     1      41.779 -15.152   2.997  1.00  0.00     0.259 C 
HETATM   15  O   UNL     1      40.862 -15.182   3.813  1.00  0.00    -0.267 OA
HETATM   16  H   UNL     1      43.772 -15.293   2.683  1.00  0.00     0.163 HD
BRANCH  14  17
HETATM   17  C   UNL     1      41.571 -15.125   1.555  1.00  0.00     0.072 A 
HETATM   18  S   UNL     1      41.403 -13.655   0.682  1.00  0.00    -0.097 SA
HETATM   19  C   UNL     1      41.194 -14.475  -0.802  1.00  0.00     0.050 A 
HETATM   20  C   UNL     1      41.261 -15.842  -0.650  1.00  0.00     0.009 A 
HETATM   21  C   UNL     1      41.481 -16.215   0.708  1.00  0.00     0.025 A 
ENDBRANCH  14  17
ENDBRANCH   1  13
BRANCH   1  22
HETATM   22  C   UNL     1      43.546 -14.305   5.787  1.00  0.00     0.259 C 
HETATM   23  N   UNL     1      42.368 -13.590   5.910  1.00  0.00    -0.264 N 
HETATM   24  H   UNL     1      41.487 -14.080   5.751  1.00  0.00     0.190 HD
HETATM   25  O   UNL     1      44.596 -13.930   6.317  1.00  0.00    -0.269 OA
BRANCH  23  26
HETATM   26  N   UNL     1      42.332 -12.614   6.920  1.00  0.00    -0.249 N 
HETATM   27  C   UNL     1      41.745 -11.411   6.655  1.00  0.00     0.339 C 
HETATM   28  N   UNL     1      41.760 -10.470   7.643  1.00  0.00    -0.308 N 
HETATM   29  O   UNL     1      41.257 -11.142   5.557  1.00  0.00    -0.245 OA
HETATM   30  H   UNL     1      41.489  -9.562   7.285  1.00  0.00     0.170 HD
HETATM   31  H   UNL     1      43.093 -12.658   7.589  1.00  0.00     0.192 HD
BRANCH  28  32
HETATM   32  C   UNL     1      42.043 -10.551   9.020  1.00  0.00     0.036 A 
HETATM   33  C   UNL     1      43.331 -10.597   9.561  1.00  0.00     0.031 A 
HETATM   34  C   UNL     1      43.519 -10.661  10.948  1.00  0.00     0.026 A 
HETATM   35  C   UNL     1      42.417 -10.703  11.798  1.00  0.00     0.034 A 
HETATM   36 CL   UNL     1      42.648 -10.777  13.500  1.00  0.00    -0.084 Cl
HETATM   37  C   UNL     1      41.129 -10.699  11.271  1.00  0.00     0.026 A 
HETATM   38  C   UNL     1      40.945 -10.632   9.886  1.00  0.00     0.031 A 
ENDBRANCH  28  32
ENDBRANCH  23  26
ENDBRANCH   1  22
TORSDOF 7
ENDMDL
MODEL 9
REMARK VINA RESULT:      -8.8      3.855      8.163
REMARK  7 active torsions:
REMARK  status: ('A' for Active; 'I' for Inactive)
REMARK    1  A    between atoms: C_8  and  C_9 
REMARK    2  A    between atoms: C_9  and  C_10 
REMARK    3  A    between atoms: C_10  and  N_11 
REMARK    4  A    between atoms: C_10  and  C_19 
REMARK       I    between atoms: N_11  and  C_12 
REMARK    5  A    between atoms: C_12  and  C_13 
REMARK       I    between atoms: C_19  and  N_20 
REMARK    6  A    between atoms: N_20  and  N_21 
REMARK       I    between atoms: N_21  and  C_22 
REMARK       I    between atoms: C_22  and  N_23 
REMARK    7  A    between atoms: N_23  and  C_24 
ROOT
HETATM    1  C   UNL     1      41.713 -12.158   5.963  1.00  0.00     0.183 C 
ENDROOT
BRANCH   1   2
HETATM    2  C   UNL     1      40.354 -12.259   5.244  1.00  0.00     0.076 C 
BRANCH   2   3
HETATM    3  C   UNL     1      40.456 -12.382   3.751  1.00  0.00    -0.028 A 
HETATM    4  C   UNL     1      40.399 -13.579   2.964  1.00  0.00    -0.002 A 
HETATM    5  C   UNL     1      40.236 -14.949   3.261  1.00  0.00     0.014 A 
HETATM    6  C   UNL     1      40.551 -13.205   1.628  1.00  0.00     0.042 A 
HETATM    7  C   UNL     1      40.248 -15.886   2.222  1.00  0.00     0.001 A 
HETATM    8  C   UNL     1      40.408 -15.480   0.901  1.00  0.00     0.002 A 
HETATM    9  C   UNL     1      40.557 -14.130   0.576  1.00  0.00     0.030 A 
HETATM   10  N   UNL     1      40.670 -11.836   1.599  1.00  0.00    -0.365 N 
HETATM   11  H   UNL     1      40.775 -11.287   0.758  1.00  0.00     0.165 HD
HETATM   12  C   UNL     1      40.621 -11.331   2.869  1.00  0.00     0.096 A 
ENDBRANCH   2   3
ENDBRANCH   1   2
BRANCH   1  13
HETATM   13  N   UNL     1      41.623 -11.847   7.393  1.00  0.00    -0.343 N 
HETATM   14  C   UNL     1      41.964 -10.614   7.909  1.00  0.00     0.259 C 
HETATM   15  O   UNL     1      42.053  -9.630   7.180  1.00  0.00    -0.267 OA
HETATM   16  H   UNL     1      41.776 -12.625   8.025  1.00  0.00     0.163 HD
BRANCH  14  17
HETATM   17  C   UNL     1      42.170 -10.568   9.351  1.00  0.00     0.072 A 
HETATM   18  S   UNL     1      40.863 -10.650  10.464  1.00  0.00    -0.097 SA
HETATM   19  C   UNL     1      41.907 -10.518  11.811  1.00  0.00     0.050 A 
HETATM   20  C   UNL     1      43.227 -10.424  11.433  1.00  0.00     0.009 A 
HETATM   21  C   UNL     1      43.377 -10.456  10.016  1.00  0.00     0.025 A 
ENDBRANCH  14  17
ENDBRANCH   1  13
BRANCH   1  22
HETATM   22  C   UNL     1      42.581 -13.378   5.597  1.00  0.00     0.259 C 
HETATM   23  N   UNL     1      42.258 -14.549   6.259  1.00  0.00    -0.264 N 
HETATM   24  H   UNL     1      41.286 -14.695   6.536  1.00  0.00     0.190 HD
HETATM   25  O   UNL     1      43.596 -13.279   4.903  1.00  0.00    -0.269 OA
BRANCH  23  26
HETATM   26  N   UNL     1      42.941 -15.706   5.851  1.00  0.00    -0.249 N 
HETATM   27  C   UNL     1      43.797 -16.311   6.724  1.00  0.00     0.339 C 
HETATM   28  N   UNL     1      44.475 -17.411   6.285  1.00  0.00    -0.308 N 
HETATM   29  O   UNL     1      44.007 -15.871   7.855  1.00  0.00    -0.245 OA
HETATM   30  H   UNL     1      45.222 -17.657   6.923  1.00  0.00     0.170 HD
HETATM   31  H   UNL     1      43.119 -15.772   4.855  1.00  0.00     0.192 HD
BRANCH  28  32
HETATM   32  C   UNL     1      44.298 -18.243   5.163  1.00  0.00     0.036 A 
HETATM   33  C   UNL     1      43.646 -17.859   3.987  1.00  0.00     0.031 A 
HETATM   34  C   UNL     1      43.530 -18.752   2.914  1.00  0.00     0.026 A 
HETATM   35  C   UNL     1      44.044 -20.041   3.022  1.00  0.00     0.034 A 
HETATM   36 CL   UNL     1      43.906 -21.134   1.702  1.00  0.00    -0.084 Cl
HETATM   37  C   UNL     1      44.659 -20.450   4.201  1.00  0.00     0.026 A 
HETATM   38  C   UNL     1      44.776 -19.556   5.271  1.00  0.00     0.031 A 
ENDBRANCH  28  32
ENDBRANCH  23  26
ENDBRANCH   1  22
TORSDOF 7
ENDMDL
MODEL 10
REMARK VINA RESULT:      -8.5      2.585      3.386
REMARK  7 active torsions:
REMARK  status: ('A' for Active; 'I' for Inactive)
REMARK    1  A    between atoms: C_8  and  C_9 
REMARK    2  A    between atoms: C_9  and  C_10 
REMARK    3  A    between atoms: C_10  and  N_11 
REMARK    4  A    between atoms: C_10  and  C_19 
REMARK       I    between atoms: N_11  and  C_12 
REMARK    5  A    between atoms: C_12  and  C_13 
REMARK       I    between atoms: C_19  and  N_20 
REMARK    6  A    between atoms: N_20  and  N_21 
REMARK       I    between atoms: N_21  and  C_22 
REMARK       I    between atoms: C_22  and  N_23 
REMARK    7  A    between atoms: N_23  and  C_24 
ROOT
HETATM    1  C   UNL     1      43.019 -13.859   5.033  1.00  0.00     0.183 C 
ENDROOT
BRANCH   1   2
HETATM    2  C   UNL     1      43.822 -15.130   5.370  1.00  0.00     0.076 C 
BRANCH   2   3
HETATM    3  C   UNL     1      43.216 -16.398   4.844  1.00  0.00    -0.028 A 
HETATM    4  C   UNL     1      43.371 -16.969   3.539  1.00  0.00    -0.002 A 
HETATM    5  C   UNL     1      44.083 -16.599   2.378  1.00  0.00     0.014 A 
HETATM    6  C   UNL     1      42.614 -18.141   3.505  1.00  0.00     0.042 A 
HETATM    7  C   UNL     1      43.997 -17.397   1.232  1.00  0.00     0.001 A 
HETATM    8  C   UNL     1      43.228 -18.557   1.230  1.00  0.00     0.002 A 
HETATM    9  C   UNL     1      42.525 -18.955   2.369  1.00  0.00     0.030 A 
HETATM   10  N   UNL     1      42.042 -18.292   4.745  1.00  0.00    -0.365 N 
HETATM   11  H   UNL     1      41.450 -19.066   5.014  1.00  0.00     0.165 HD
HETATM   12  C   UNL     1      42.391 -17.248   5.556  1.00  0.00     0.096 A 
ENDBRANCH   2   3
ENDBRANCH   1   2
BRANCH   1  13
HETATM   13  N   UNL     1      41.838 -14.089   4.196  1.00  0.00    -0.343 N 
HETATM   14  C   UNL     1      41.749 -13.640   2.895  1.00  0.00     0.259 C 
HETATM   15  O   UNL     1      42.755 -13.311   2.273  1.00  0.00    -0.267 OA
HETATM   16  H   UNL     1      40.952 -14.137   4.687  1.00  0.00     0.163 HD
BRANCH  14  17
HETATM   17  C   UNL     1      40.408 -13.622   2.323  1.00  0.00     0.072 A 
HETATM   18  S   UNL     1      39.523 -12.164   2.115  1.00  0.00    -0.097 SA
HETATM   19  C   UNL     1      38.176 -12.989   1.464  1.00  0.00     0.050 A 
HETATM   20  C   UNL     1      38.389 -14.347   1.391  1.00  0.00     0.009 A 
HETATM   21  C   UNL     1      39.676 -14.709   1.884  1.00  0.00     0.025 A 
ENDBRANCH  14  17
ENDBRANCH   1  13
BRANCH   1  22
HETATM   22  C   UNL     1      42.780 -13.045   6.319  1.00  0.00     0.259 C 
HETATM   23  N   UNL     1      41.621 -12.290   6.329  1.00  0.00    -0.264 N 
HETATM   24  H   UNL     1      40.818 -12.630   5.799  1.00  0.00     0.190 HD
HETATM   25  O   UNL     1      43.638 -12.936   7.199  1.00  0.00    -0.269 OA
BRANCH  23  26
HETATM   26  N   UNL     1      41.306 -11.643   7.536  1.00  0.00    -0.249 N 
HETATM   27  C   UNL     1      40.011 -11.291   7.779  1.00  0.00     0.339 C 
HETATM   28  N   UNL     1      39.744 -10.630   8.943  1.00  0.00    -0.308 N 
HETATM   29  O   UNL     1      39.106 -11.506   6.973  1.00  0.00    -0.245 OA
HETATM   30  H   UNL     1      38.809 -10.239   8.933  1.00  0.00     0.170 HD
HETATM   31  H   UNL     1      42.055 -11.086   7.933  1.00  0.00     0.192 HD
BRANCH  28  32
HETATM   32  C   UNL     1      40.501 -10.436  10.114  1.00  0.00     0.036 A 
HETATM   33  C   UNL     1      40.432 -11.254  11.245  1.00  0.00     0.031 A 
HETATM   34  C   UNL     1      41.235 -10.993  12.362  1.00  0.00     0.026 A 
HETATM   35  C   UNL     1      42.095  -9.898  12.362  1.00  0.00     0.034 A 
HETATM   36 CL   UNL     1      43.085  -9.582  13.731  1.00  0.00    -0.084 Cl
HETATM   37  C   UNL     1      42.145  -9.052  11.258  1.00  0.00     0.026 A 
HETATM   38  C   UNL     1      41.343  -9.316  10.143  1.00  0.00     0.031 A 
ENDBRANCH  28  32
ENDBRANCH  23  26
ENDBRANCH   1  22
TORSDOF 7
ENDMDL
