MODEL 1
REMARK VINA RESULT:      -7.9      0.000      0.000
REMARK  4 active torsions:
REMARK  status: ('A' for Active; 'I' for Inactive)
REMARK    1  A    between atoms: C_3  and  N_4 
REMARK       I    between atoms: N_4  and  C_5 
REMARK    2  A    between atoms: C_5  and  C_6 
REMARK    3  A    between atoms: C_7  and  C_8 
REMARK    4  A    between atoms: C_16  and  C_17 
ROOT
HETATM    1  C   UNL     1      43.286 -17.443   0.805  1.00  0.00     0.003 A 
HETATM    2  C   UNL     1      43.265 -16.494   1.827  1.00  0.00     0.029 A 
HETATM    3  C   UNL     1      43.587 -16.863   3.133  1.00  0.00     0.035 A 
HETATM    4  C   UNL     1      43.934 -18.196   3.402  1.00  0.00     0.042 A 
HETATM    5  C   UNL     1      43.922 -19.171   2.390  1.00  0.00    -0.021 A 
HETATM    6  C   UNL     1      43.608 -18.772   1.083  1.00  0.00     0.012 A 
ENDROOT
BRANCH   3   7
HETATM    7  N   UNL     1      43.601 -15.952   4.210  1.00  0.00    -0.327 N 
HETATM    8  C   UNL     1      42.519 -15.249   4.705  1.00  0.00     0.227 C 
HETATM    9  O   UNL     1      41.350 -15.372   4.367  1.00  0.00    -0.273 OA
HETATM   10  H   UNL     1      44.465 -15.885   4.730  1.00  0.00     0.169 HD
BRANCH   8  11
HETATM   11  C   UNL     1      42.889 -14.347   5.835  1.00  0.00     0.089 A 
HETATM   12  C   UNL     1      43.485 -14.870   7.134  1.00  0.00     0.057 A 
HETATM   13  C   UNL     1      44.321 -14.058   6.166  1.00  0.00     0.027 A 
BRANCH  12  14
HETATM   14  C   UNL     1      43.890 -16.321   7.318  1.00  0.00     0.057 A 
HETATM   15  O   UNL     1      44.871 -16.956   6.619  1.00  0.00    -0.327 OA
HETATM   16  C   UNL     1      44.961 -18.219   7.105  1.00  0.00     0.142 A 
HETATM   17  C   UNL     1      44.047 -18.410   8.114  1.00  0.00     0.027 A 
HETATM   18  C   UNL     1      43.352 -17.183   8.252  1.00  0.00     0.035 A 
ENDBRANCH  12  14
ENDBRANCH   8  11
ENDBRANCH   3   7
BRANCH   5  19
HETATM   19  C   UNL     1      44.208 -20.564   2.707  1.00  0.00     0.010 A 
HETATM   20  C   UNL     1      44.240 -21.718   1.885  1.00  0.00     0.152 A 
HETATM   21  N   UNL     1      44.588 -22.824   2.551  1.00  0.00    -0.187 NA
HETATM   22  N   UNL     1      44.784 -22.385   3.804  1.00  0.00    -0.289 N 
HETATM   23  H   UNL     1      45.070 -23.056   4.509  1.00  0.00     0.188 HD
HETATM   24  C   UNL     1      44.573 -21.044   3.949  1.00  0.00     0.123 A 
ENDBRANCH   5  19
TORSDOF 4
ENDMDL
MODEL 2
REMARK VINA RESULT:      -7.8      2.557      5.498
REMARK  4 active torsions:
REMARK  status: ('A' for Active; 'I' for Inactive)
REMARK    1  A    between atoms: C_3  and  N_4 
REMARK       I    between atoms: N_4  and  C_5 
REMARK    2  A    between atoms: C_5  and  C_6 
REMARK    3  A    between atoms: C_7  and  C_8 
REMARK    4  A    between atoms: C_16  and  C_17 
ROOT
HETATM    1  C   UNL     1      44.731 -20.529   3.931  1.00  0.00     0.003 A 
HETATM    2  C   UNL     1      43.951 -19.966   2.922  1.00  0.00     0.029 A 
HETATM    3  C   UNL     1      43.159 -18.849   3.187  1.00  0.00     0.035 A 
HETATM    4  C   UNL     1      43.161 -18.300   4.479  1.00  0.00     0.042 A 
HETATM    5  C   UNL     1      43.912 -18.880   5.516  1.00  0.00    -0.021 A 
HETATM    6  C   UNL     1      44.710 -19.993   5.220  1.00  0.00     0.012 A 
ENDROOT
BRANCH   3   7
HETATM    7  N   UNL     1      42.359 -18.222   2.210  1.00  0.00    -0.327 N 
HETATM    8  C   UNL     1      42.741 -17.191   1.373  1.00  0.00     0.227 C 
HETATM    9  O   UNL     1      43.863 -16.718   1.261  1.00  0.00    -0.273 OA
HETATM   10  H   UNL     1      41.452 -18.634   2.041  1.00  0.00     0.169 HD
BRANCH   8  11
HETATM   11  C   UNL     1      41.636 -16.740   0.476  1.00  0.00     0.089 A 
HETATM   12  C   UNL     1      40.505 -15.846   0.962  1.00  0.00     0.057 A 
HETATM   13  C   UNL     1      41.549 -15.324  -0.004  1.00  0.00     0.027 A 
BRANCH  12  14
HETATM   14  C   UNL     1      40.498 -15.222   2.345  1.00  0.00     0.057 A 
HETATM   15  O   UNL     1      40.636 -15.904   3.515  1.00  0.00    -0.327 OA
HETATM   16  C   UNL     1      40.625 -14.993   4.518  1.00  0.00     0.142 A 
HETATM   17  C   UNL     1      40.482 -13.724   4.013  1.00  0.00     0.027 A 
HETATM   18  C   UNL     1      40.398 -13.870   2.606  1.00  0.00     0.035 A 
ENDBRANCH  12  14
ENDBRANCH   8  11
ENDBRANCH   3   7
BRANCH   5  19
HETATM   19  C   UNL     1      43.838 -18.340   6.868  1.00  0.00     0.010 A 
HETATM   20  C   UNL     1      43.471 -17.055   7.339  1.00  0.00     0.152 A 
HETATM   21  N   UNL     1      43.491 -16.961   8.672  1.00  0.00    -0.187 NA
HETATM   22  N   UNL     1      43.868 -18.188   9.065  1.00  0.00    -0.289 N 
HETATM   23  H   UNL     1      43.949 -18.370  10.060  1.00  0.00     0.188 HD
HETATM   24  C   UNL     1      44.084 -19.048   8.027  1.00  0.00     0.123 A 
ENDBRANCH   5  19
TORSDOF 4
ENDMDL
MODEL 3
REMARK VINA RESULT:      -7.6      1.891      4.482
REMARK  4 active torsions:
REMARK  status: ('A' for Active; 'I' for Inactive)
REMARK    1  A    between atoms: C_3  and  N_4 
REMARK       I    between atoms: N_4  and  C_5 
REMARK    2  A    between atoms: C_5  and  C_6 
REMARK    3  A    between atoms: C_7  and  C_8 
REMARK    4  A    between atoms: C_16  and  C_17 
ROOT
HETATM    1  C   UNL     1      45.015 -18.145   6.342  1.00  0.00     0.003 A 
HETATM    2  C   UNL     1      44.143 -17.083   6.102  1.00  0.00     0.029 A 
HETATM    3  C   UNL     1      43.274 -17.122   5.012  1.00  0.00     0.035 A 
HETATM    4  C   UNL     1      43.286 -18.242   4.166  1.00  0.00     0.042 A 
HETATM    5  C   UNL     1      44.186 -19.302   4.373  1.00  0.00    -0.021 A 
HETATM    6  C   UNL     1      45.040 -19.245   5.483  1.00  0.00     0.012 A 
ENDROOT
BRANCH   3   7
HETATM    7  N   UNL     1      42.358 -16.091   4.720  1.00  0.00    -0.327 N 
HETATM    8  C   UNL     1      42.663 -14.766   4.473  1.00  0.00     0.227 C 
HETATM    9  O   UNL     1      43.780 -14.282   4.363  1.00  0.00    -0.273 OA
HETATM   10  H   UNL     1      41.396 -16.371   4.580  1.00  0.00     0.169 HD
BRANCH   8  11
HETATM   11  C   UNL     1      41.449 -13.933   4.227  1.00  0.00     0.089 A 
HETATM   12  C   UNL     1      40.645 -14.025   2.938  1.00  0.00     0.057 A 
HETATM   13  C   UNL     1      40.076 -14.531   4.248  1.00  0.00     0.027 A 
BRANCH  12  14
HETATM   14  C   UNL     1      40.925 -15.075   1.878  1.00  0.00     0.057 A 
HETATM   15  O   UNL     1      40.752 -16.416   2.037  1.00  0.00    -0.327 OA
HETATM   16  C   UNL     1      41.061 -17.006   0.856  1.00  0.00     0.142 A 
HETATM   17  C   UNL     1      41.433 -16.062  -0.070  1.00  0.00     0.027 A 
HETATM   18  C   UNL     1      41.347 -14.811   0.591  1.00  0.00     0.035 A 
ENDBRANCH  12  14
ENDBRANCH   8  11
ENDBRANCH   3   7
BRANCH   5  19
HETATM   19  C   UNL     1      44.236 -20.418   3.437  1.00  0.00     0.010 A 
HETATM   20  C   UNL     1      44.681 -21.753   3.603  1.00  0.00     0.152 A 
HETATM   21  N   UNL     1      44.527 -22.496   2.503  1.00  0.00    -0.187 NA
HETATM   22  N   UNL     1      43.979 -21.642   1.624  1.00  0.00    -0.289 N 
HETATM   23  H   UNL     1      43.756 -21.985   0.695  1.00  0.00     0.188 HD
HETATM   24  C   UNL     1      43.782 -20.391   2.134  1.00  0.00     0.123 A 
ENDBRANCH   5  19
TORSDOF 4
ENDMDL
MODEL 4
REMARK VINA RESULT:      -7.6      2.023      3.903
REMARK  4 active torsions:
REMARK  status: ('A' for Active; 'I' for Inactive)
REMARK    1  A    between atoms: C_3  and  N_4 
REMARK       I    between atoms: N_4  and  C_5 
REMARK    2  A    between atoms: C_5  and  C_6 
REMARK    3  A    between atoms: C_7  and  C_8 
REMARK    4  A    between atoms: C_16  and  C_17 
ROOT
HETATM    1  C   UNL     1      43.611 -17.995   1.037  1.00  0.00     0.003 A 
HETATM    2  C   UNL     1      43.372 -16.882   1.844  1.00  0.00     0.029 A 
HETATM    3  C   UNL     1      43.514 -16.975   3.228  1.00  0.00     0.035 A 
HETATM    4  C   UNL     1      43.902 -18.199   3.796  1.00  0.00     0.042 A 
HETATM    5  C   UNL     1      44.108 -19.339   3.000  1.00  0.00    -0.021 A 
HETATM    6  C   UNL     1      43.972 -19.215   1.611  1.00  0.00     0.012 A 
ENDROOT
BRANCH   3   7
HETATM    7  N   UNL     1      43.303 -15.886   4.099  1.00  0.00    -0.327 N 
HETATM    8  C   UNL     1      42.131 -15.583   4.767  1.00  0.00     0.227 C 
HETATM    9  O   UNL     1      41.114 -16.259   4.801  1.00  0.00    -0.273 OA
HETATM   10  H   UNL     1      44.117 -15.334   4.333  1.00  0.00     0.169 HD
BRANCH   8  11
HETATM   11  C   UNL     1      42.243 -14.341   5.587  1.00  0.00     0.089 A 
HETATM   12  C   UNL     1      42.231 -12.951   4.968  1.00  0.00     0.057 A 
HETATM   13  C   UNL     1      41.066 -13.440   5.804  1.00  0.00     0.027 A 
BRANCH  12  14
HETATM   14  C   UNL     1      41.949 -12.719   3.495  1.00  0.00     0.057 A 
HETATM   15  O   UNL     1      42.785 -13.054   2.474  1.00  0.00    -0.327 OA
HETATM   16  C   UNL     1      42.159 -12.731   1.316  1.00  0.00     0.142 A 
HETATM   17  C   UNL     1      40.922 -12.189   1.574  1.00  0.00     0.027 A 
HETATM   18  C   UNL     1      40.785 -12.179   2.984  1.00  0.00     0.035 A 
ENDBRANCH  12  14
ENDBRANCH   8  11
ENDBRANCH   3   7
BRANCH   5  19
HETATM   19  C   UNL     1      44.432 -20.618   3.618  1.00  0.00     0.010 A 
HETATM   20  C   UNL     1      44.798 -20.943   4.948  1.00  0.00     0.152 A 
HETATM   21  N   UNL     1      44.981 -22.254   5.134  1.00  0.00    -0.187 NA
HETATM   22  N   UNL     1      44.729 -22.778   3.925  1.00  0.00    -0.289 N 
HETATM   23  H   UNL     1      44.797 -23.785   3.813  1.00  0.00     0.188 HD
HETATM   24  C   UNL     1      44.395 -21.845   2.986  1.00  0.00     0.123 A 
ENDBRANCH   5  19
TORSDOF 4
ENDMDL
MODEL 5
REMARK VINA RESULT:      -7.4      4.809      6.890
REMARK  4 active torsions:
REMARK  status: ('A' for Active; 'I' for Inactive)
REMARK    1  A    between atoms: C_3  and  N_4 
REMARK       I    between atoms: N_4  and  C_5 
REMARK    2  A    between atoms: C_5  and  C_6 
REMARK    3  A    between atoms: C_7  and  C_8 
REMARK    4  A    between atoms: C_16  and  C_17 
ROOT
HETATM    1  C   UNL     1      40.677 -13.023   0.013  1.00  0.00     0.003 A 
HETATM    2  C   UNL     1      41.552 -13.967   0.552  1.00  0.00     0.029 A 
HETATM    3  C   UNL     1      41.712 -15.208  -0.063  1.00  0.00     0.035 A 
HETATM    4  C   UNL     1      40.984 -15.492  -1.229  1.00  0.00     0.042 A 
HETATM    5  C   UNL     1      40.071 -14.566  -1.763  1.00  0.00    -0.021 A 
HETATM    6  C   UNL     1      39.939 -13.321  -1.133  1.00  0.00     0.012 A 
ENDROOT
BRANCH   3   7
HETATM    7  N   UNL     1      42.589 -16.201   0.421  1.00  0.00    -0.327 N 
HETATM    8  C   UNL     1      42.231 -17.375   1.055  1.00  0.00     0.227 C 
HETATM    9  O   UNL     1      41.097 -17.805   1.212  1.00  0.00    -0.273 OA
HETATM   10  H   UNL     1      43.566 -16.086   0.191  1.00  0.00     0.169 HD
BRANCH   8  11
HETATM   11  C   UNL     1      43.413 -18.190   1.465  1.00  0.00     0.089 A 
HETATM   12  C   UNL     1      43.908 -18.243   2.902  1.00  0.00     0.057 A 
HETATM   13  C   UNL     1      43.255 -19.449   2.259  1.00  0.00     0.027 A 
BRANCH  12  14
HETATM   14  C   UNL     1      43.148 -17.600   4.049  1.00  0.00     0.057 A 
HETATM   15  O   UNL     1      43.155 -16.272   4.347  1.00  0.00    -0.327 OA
HETATM   16  C   UNL     1      42.322 -16.090   5.401  1.00  0.00     0.142 A 
HETATM   17  C   UNL     1      41.773 -17.288   5.791  1.00  0.00     0.027 A 
HETATM   18  C   UNL     1      42.308 -18.267   4.918  1.00  0.00     0.035 A 
ENDBRANCH  12  14
ENDBRANCH   8  11
ENDBRANCH   3   7
BRANCH   5  19
HETATM   19  C   UNL     1      39.269 -14.913  -2.929  1.00  0.00     0.010 A 
HETATM   20  C   UNL     1      39.349 -16.012  -3.820  1.00  0.00     0.152 A 
HETATM   21  N   UNL     1      38.395 -15.996  -4.756  1.00  0.00    -0.187 NA
HETATM   22  N   UNL     1      37.695 -14.888  -4.469  1.00  0.00    -0.289 N 
HETATM   23  H   UNL     1      36.894 -14.661  -5.050  1.00  0.00     0.188 HD
HETATM   24  C   UNL     1      38.173 -14.209  -3.386  1.00  0.00     0.123 A 
ENDBRANCH   5  19
TORSDOF 4
ENDMDL
MODEL 6
REMARK VINA RESULT:      -7.3      2.711      4.636
REMARK  4 active torsions:
REMARK  status: ('A' for Active; 'I' for Inactive)
REMARK    1  A    between atoms: C_3  and  N_4 
REMARK       I    between atoms: N_4  and  C_5 
REMARK    2  A    between atoms: C_5  and  C_6 
REMARK    3  A    between atoms: C_7  and  C_8 
REMARK    4  A    between atoms: C_16  and  C_17 
ROOT
HETATM    1  C   UNL     1      44.255 -19.908   2.393  1.00  0.00     0.003 A 
HETATM    2  C   UNL     1      43.652 -18.806   1.787  1.00  0.00     0.029 A 
HETATM    3  C   UNL     1      43.188 -17.745   2.564  1.00  0.00     0.035 A 
HETATM    4  C   UNL     1      43.338 -17.800   3.959  1.00  0.00     0.042 A 
HETATM    5  C   UNL     1      43.908 -18.922   4.586  1.00  0.00    -0.021 A 
HETATM    6  C   UNL     1      44.378 -19.968   3.782  1.00  0.00     0.012 A 
ENDROOT
BRANCH   3   7
HETATM    7  N   UNL     1      42.583 -16.595   2.016  1.00  0.00    -0.327 N 
HETATM    8  C   UNL     1      41.246 -16.438   1.704  1.00  0.00     0.227 C 
HETATM    9  O   UNL     1      40.343 -17.226   1.946  1.00  0.00    -0.273 OA
HETATM   10  H   UNL     1      43.169 -15.774   1.938  1.00  0.00     0.169 HD
BRANCH   8  11
HETATM   11  C   UNL     1      40.947 -15.101   1.111  1.00  0.00     0.089 A 
HETATM   12  C   UNL     1      40.589 -13.893   1.963  1.00  0.00     0.057 A 
HETATM   13  C   UNL     1      41.912 -13.962   1.229  1.00  0.00     0.027 A 
BRANCH  12  14
HETATM   14  C   UNL     1      40.660 -13.916   3.480  1.00  0.00     0.057 A 
HETATM   15  O   UNL     1      39.688 -14.396   4.303  1.00  0.00    -0.327 OA
HETATM   16  C   UNL     1      40.144 -14.286   5.575  1.00  0.00     0.142 A 
HETATM   17  C   UNL     1      41.405 -13.739   5.586  1.00  0.00     0.027 A 
HETATM   18  C   UNL     1      41.739 -13.497   4.230  1.00  0.00     0.035 A 
ENDBRANCH  12  14
ENDBRANCH   8  11
ENDBRANCH   3   7
BRANCH   5  19
HETATM   19  C   UNL     1      43.982 -18.993   6.040  1.00  0.00     0.010 A 
HETATM   20  C   UNL     1      44.340 -18.016   7.003  1.00  0.00     0.152 A 
HETATM   21  N   UNL     1      44.245 -18.461   8.259  1.00  0.00    -0.187 NA
HETATM   22  N   UNL     1      43.822 -19.726   8.110  1.00  0.00    -0.289 N 
HETATM   23  H   UNL     1      43.664 -20.282   8.945  1.00  0.00     0.188 HD
HETATM   24  C   UNL     1      43.647 -20.091   6.807  1.00  0.00     0.123 A 
ENDBRANCH   5  19
TORSDOF 4
ENDMDL
MODEL 7
REMARK VINA RESULT:      -7.3      4.219      6.367
REMARK  4 active torsions:
REMARK  status: ('A' for Active; 'I' for Inactive)
REMARK    1  A    between atoms: C_3  and  N_4 
REMARK       I    between atoms: N_4  and  C_5 
REMARK    2  A    between atoms: C_5  and  C_6 
REMARK    3  A    between atoms: C_7  and  C_8 
REMARK    4  A    between atoms: C_16  and  C_17 
ROOT
HETATM    1  C   UNL     1      37.999 -13.415   0.685  1.00  0.00     0.003 A 
HETATM    2  C   UNL     1      38.320 -14.117   1.847  1.00  0.00     0.029 A 
HETATM    3  C   UNL     1      39.457 -14.924   1.888  1.00  0.00     0.035 A 
HETATM    4  C   UNL     1      40.271 -15.018   0.748  1.00  0.00     0.042 A 
HETATM    5  C   UNL     1      39.940 -14.347  -0.442  1.00  0.00    -0.021 A 
HETATM    6  C   UNL     1      38.800 -13.532  -0.452  1.00  0.00     0.012 A 
ENDROOT
BRANCH   3   7
HETATM    7  N   UNL     1      39.847 -15.648   3.033  1.00  0.00    -0.327 N 
HETATM    8  C   UNL     1      40.807 -15.274   3.955  1.00  0.00     0.227 C 
HETATM    9  O   UNL     1      41.405 -14.208   3.995  1.00  0.00    -0.273 OA
HETATM   10  H   UNL     1      39.302 -16.470   3.252  1.00  0.00     0.169 HD
BRANCH   8  11
HETATM   11  C   UNL     1      40.994 -16.288   5.034  1.00  0.00     0.089 A 
HETATM   12  C   UNL     1      41.743 -17.592   4.805  1.00  0.00     0.057 A 
HETATM   13  C   UNL     1      42.328 -16.503   5.680  1.00  0.00     0.027 A 
BRANCH  12  14
HETATM   14  C   UNL     1      42.486 -17.889   3.515  1.00  0.00     0.057 A 
HETATM   15  O   UNL     1      41.923 -17.932   2.277  1.00  0.00    -0.327 OA
HETATM   16  C   UNL     1      42.916 -18.177   1.388  1.00  0.00     0.142 A 
HETATM   17  C   UNL     1      44.122 -18.295   2.037  1.00  0.00     0.027 A 
HETATM   18  C   UNL     1      43.845 -18.110   3.415  1.00  0.00     0.035 A 
ENDBRANCH  12  14
ENDBRANCH   8  11
ENDBRANCH   3   7
BRANCH   5  19
HETATM   19  C   UNL     1      40.756 -14.521  -1.636  1.00  0.00     0.010 A 
HETATM   20  C   UNL     1      40.754 -15.536  -2.626  1.00  0.00     0.152 A 
HETATM   21  N   UNL     1      41.642 -15.317  -3.600  1.00  0.00    -0.187 NA
HETATM   22  N   UNL     1      42.217 -14.158  -3.244  1.00  0.00    -0.289 N 
HETATM   23  H   UNL     1      42.936 -13.772  -3.847  1.00  0.00     0.188 HD
HETATM   24  C   UNL     1      41.722 -13.641  -2.081  1.00  0.00     0.123 A 
ENDBRANCH   5  19
TORSDOF 4
ENDMDL
MODEL 8
REMARK VINA RESULT:      -7.2      2.293      4.302
REMARK  4 active torsions:
REMARK  status: ('A' for Active; 'I' for Inactive)
REMARK    1  A    between atoms: C_3  and  N_4 
REMARK       I    between atoms: N_4  and  C_5 
REMARK    2  A    between atoms: C_5  and  C_6 
REMARK    3  A    between atoms: C_7  and  C_8 
REMARK    4  A    between atoms: C_16  and  C_17 
ROOT
HETATM    1  C   UNL     1      44.367 -17.509   5.729  1.00  0.00     0.003 A 
HETATM    2  C   UNL     1      43.349 -16.886   5.007  1.00  0.00     0.029 A 
HETATM    3  C   UNL     1      42.639 -17.595   4.039  1.00  0.00     0.035 A 
HETATM    4  C   UNL     1      42.960 -18.941   3.803  1.00  0.00     0.042 A 
HETATM    5  C   UNL     1      44.009 -19.572   4.495  1.00  0.00    -0.021 A 
HETATM    6  C   UNL     1      44.698 -18.841   5.472  1.00  0.00     0.012 A 
ENDROOT
BRANCH   3   7
HETATM    7  N   UNL     1      41.589 -17.031   3.285  1.00  0.00    -0.327 N 
HETATM    8  C   UNL     1      41.719 -16.237   2.161  1.00  0.00     0.227 C 
HETATM    9  O   UNL     1      42.755 -15.974   1.567  1.00  0.00    -0.273 OA
HETATM   10  H   UNL     1      40.653 -17.318   3.534  1.00  0.00     0.169 HD
BRANCH   8  11
HETATM   11  C   UNL     1      40.402 -15.782   1.624  1.00  0.00     0.089 A 
HETATM   12  C   UNL     1      39.480 -14.858   2.403  1.00  0.00     0.057 A 
HETATM   13  C   UNL     1      40.194 -14.374   1.158  1.00  0.00     0.027 A 
BRANCH  12  14
HETATM   14  C   UNL     1      39.894 -14.207   3.711  1.00  0.00     0.057 A 
HETATM   15  O   UNL     1      40.004 -14.850   4.906  1.00  0.00    -0.327 OA
HETATM   16  C   UNL     1      40.441 -13.943   5.814  1.00  0.00     0.142 A 
HETATM   17  C   UNL     1      40.617 -12.716   5.220  1.00  0.00     0.027 A 
HETATM   18  C   UNL     1      40.261 -12.885   3.859  1.00  0.00     0.035 A 
ENDBRANCH  12  14
ENDBRANCH   8  11
ENDBRANCH   3   7
BRANCH   5  19
HETATM   19  C   UNL     1      44.377 -20.946   4.178  1.00  0.00     0.010 A 
HETATM   20  C   UNL     1      44.417 -21.638   2.942  1.00  0.00     0.152 A 
HETATM   21  N   UNL     1      44.852 -22.896   3.061  1.00  0.00    -0.187 NA
HETATM   22  N   UNL     1      45.097 -23.018   4.375  1.00  0.00    -0.289 N 
HETATM   23  H   UNL     1      45.453 -23.904   4.717  1.00  0.00     0.188 HD
HETATM   24  C   UNL     1      44.833 -21.882   5.084  1.00  0.00     0.123 A 
ENDBRANCH   5  19
TORSDOF 4
ENDMDL
MODEL 9
REMARK VINA RESULT:      -7.1      3.488      5.957
REMARK  4 active torsions:
REMARK  status: ('A' for Active; 'I' for Inactive)
REMARK    1  A    between atoms: C_3  and  N_4 
REMARK       I    between atoms: N_4  and  C_5 
REMARK    2  A    between atoms: C_5  and  C_6 
REMARK    3  A    between atoms: C_7  and  C_8 
REMARK    4  A    between atoms: C_16  and  C_17 
ROOT
HETATM    1  C   UNL     1      40.478 -16.175   2.482  1.00  0.00     0.003 A 
HETATM    2  C   UNL     1      41.453 -17.123   2.790  1.00  0.00     0.029 A 
HETATM    3  C   UNL     1      42.406 -17.485   1.839  1.00  0.00     0.035 A 
HETATM    4  C   UNL     1      42.371 -16.881   0.571  1.00  0.00     0.042 A 
HETATM    5  C   UNL     1      41.371 -15.953   0.234  1.00  0.00    -0.021 A 
HETATM    6  C   UNL     1      40.434 -15.597   1.213  1.00  0.00     0.012 A 
ENDROOT
BRANCH   3   7
HETATM    7  N   UNL     1      43.428 -18.424   2.088  1.00  0.00    -0.327 N 
HETATM    8  C   UNL     1      43.300 -19.801   2.074  1.00  0.00     0.227 C 
HETATM    9  O   UNL     1      42.312 -20.439   1.742  1.00  0.00    -0.273 OA
HETATM   10  H   UNL     1      44.363 -18.054   2.189  1.00  0.00     0.169 HD
BRANCH   8  11
HETATM   11  C   UNL     1      44.576 -20.499   2.412  1.00  0.00     0.089 A 
HETATM   12  C   UNL     1      45.260 -20.339   3.761  1.00  0.00     0.057 A 
HETATM   13  C   UNL     1      44.605 -21.649   3.371  1.00  0.00     0.027 A 
BRANCH  12  14
HETATM   14  C   UNL     1      44.621 -19.586   4.914  1.00  0.00     0.057 A 
HETATM   15  O   UNL     1      44.432 -18.239   4.962  1.00  0.00    -0.327 OA
HETATM   16  C   UNL     1      43.792 -17.962   6.125  1.00  0.00     0.142 A 
HETATM   17  C   UNL     1      43.563 -19.117   6.834  1.00  0.00     0.027 A 
HETATM   18  C   UNL     1      44.101 -20.169   6.052  1.00  0.00     0.035 A 
ENDBRANCH  12  14
ENDBRANCH   8  11
ENDBRANCH   3   7
BRANCH   5  19
HETATM   19  C   UNL     1      41.307 -15.398  -1.112  1.00  0.00     0.010 A 
HETATM   20  C   UNL     1      41.011 -16.008  -2.357  1.00  0.00     0.152 A 
HETATM   21  N   UNL     1      41.015 -15.143  -3.376  1.00  0.00    -0.187 NA
HETATM   22  N   UNL     1      41.310 -13.972  -2.791  1.00  0.00    -0.289 N 
HETATM   23  H   UNL     1      41.363 -13.143  -3.373  1.00  0.00     0.188 HD
HETATM   24  C   UNL     1      41.491 -14.070  -1.441  1.00  0.00     0.123 A 
ENDBRANCH   5  19
TORSDOF 4
ENDMDL
MODEL 10
REMARK VINA RESULT:      -7.0      4.445      7.232
REMARK  4 active torsions:
REMARK  status: ('A' for Active; 'I' for Inactive)
REMARK    1  A    between atoms: C_3  and  N_4 
REMARK       I    between atoms: N_4  and  C_5 
REMARK    2  A    between atoms: C_5  and  C_6 
REMARK    3  A    between atoms: C_7  and  C_8 
REMARK    4  A    between atoms: C_16  and  C_17 
ROOT
HETATM    1  C   UNL     1      40.802 -16.335   3.494  1.00  0.00     0.003 A 
HETATM    2  C   UNL     1      40.525 -16.060   2.155  1.00  0.00     0.029 A 
HETATM    3  C   UNL     1      41.159 -16.782   1.144  1.00  0.00     0.035 A 
HETATM    4  C   UNL     1      42.075 -17.787   1.493  1.00  0.00     0.042 A 
HETATM    5  C   UNL     1      42.393 -18.049   2.837  1.00  0.00    -0.021 A 
HETATM    6  C   UNL     1      41.731 -17.319   3.833  1.00  0.00     0.012 A 
ENDROOT
BRANCH   3   7
HETATM    7  N   UNL     1      40.914 -16.566  -0.227  1.00  0.00    -0.327 N 
HETATM    8  C   UNL     1      41.235 -15.433  -0.951  1.00  0.00     0.227 C 
HETATM    9  O   UNL     1      41.876 -14.470  -0.555  1.00  0.00    -0.273 OA
HETATM   10  H   UNL     1      40.561 -17.356  -0.750  1.00  0.00     0.169 HD
BRANCH   8  11
HETATM   11  C   UNL     1      40.807 -15.524  -2.379  1.00  0.00     0.089 A 
HETATM   12  C   UNL     1      39.618 -14.747  -2.924  1.00  0.00     0.057 A 
HETATM   13  C   UNL     1      41.033 -14.392  -3.334  1.00  0.00     0.027 A 
BRANCH  12  14
HETATM   14  C   UNL     1      38.876 -13.709  -2.102  1.00  0.00     0.057 A 
HETATM   15  O   UNL     1      38.061 -13.981  -1.046  1.00  0.00    -0.327 OA
HETATM   16  C   UNL     1      37.630 -12.795  -0.552  1.00  0.00     0.142 A 
HETATM   17  C   UNL     1      38.158 -11.753  -1.275  1.00  0.00     0.027 A 
HETATM   18  C   UNL     1      38.964 -12.343  -2.281  1.00  0.00     0.035 A 
ENDBRANCH  12  14
ENDBRANCH   8  11
ENDBRANCH   3   7
BRANCH   5  19
HETATM   19  C   UNL     1      43.405 -19.043   3.173  1.00  0.00     0.010 A 
HETATM   20  C   UNL     1      44.020 -20.048   2.385  1.00  0.00     0.152 A 
HETATM   21  N   UNL     1      44.943 -20.744   3.055  1.00  0.00    -0.187 NA
HETATM   22  N   UNL     1      44.929 -20.187   4.276  1.00  0.00    -0.289 N 
HETATM   23  H   UNL     1      45.566 -20.550   4.978  1.00  0.00     0.188 HD
HETATM   24  C   UNL     1      44.031 -19.166   4.397  1.00  0.00     0.123 A 
ENDBRANCH   5  19
TORSDOF 4
ENDMDL
