MODEL 1
REMARK VINA RESULT:      -8.6      0.000      0.000
REMARK  3 active torsions:
REMARK  status: ('A' for Active; 'I' for Inactive)
REMARK    1  A    between atoms: C_3  and  C_4 
REMARK    2  A    between atoms: C_11  and  N_12 
REMARK       I    between atoms: N_12  and  C_13 
REMARK       I    between atoms: C_13  and  N_14 
REMARK    3  A    between atoms: N_14  and  C_15 
ROOT
HETATM    1  C   UNL     1      39.544 -14.240   3.549  1.00  0.00     0.001 A 
HETATM    2  C   UNL     1      39.676 -14.240   2.162  1.00  0.00     0.016 A 
HETATM    3  C   UNL     1      40.818 -14.793   1.570  1.00  0.00     0.021 A 
HETATM    4  C   UNL     1      41.847 -15.340   2.362  1.00  0.00     0.049 A 
HETATM    5  C   UNL     1      41.706 -15.314   3.755  1.00  0.00     0.030 A 
HETATM    6  C   UNL     1      40.557 -14.776   4.343  1.00  0.00     0.002 A 
ENDROOT
BRANCH   4   7
HETATM    7  N   UNL     1      43.030 -15.797   1.751  1.00  0.00    -0.308 N 
HETATM    8  C   UNL     1      43.759 -16.945   1.908  1.00  0.00     0.325 C 
HETATM    9  N   UNL     1      43.161 -17.964   2.592  1.00  0.00    -0.306 N 
HETATM   10  O   UNL     1      44.838 -17.012   1.323  1.00  0.00    -0.247 OA
HETATM   11  H   UNL     1      42.259 -17.781   3.008  1.00  0.00     0.171 HD
HETATM   12  H   UNL     1      43.404 -15.235   0.993  1.00  0.00     0.170 HD
BRANCH   9  13
HETATM   13  C   UNL     1      43.594 -19.303   2.705  1.00  0.00     0.075 A 
HETATM   14  C   UNL     1      44.355 -19.632   3.837  1.00  0.00     0.146 A 
HETATM   15  F   UNL     1      44.660 -18.672   4.725  1.00  0.00    -0.204 F 
HETATM   16  C   UNL     1      44.797 -20.928   4.071  1.00  0.00     0.086 A 
HETATM   17  C   UNL     1      44.466 -21.918   3.159  1.00  0.00     0.119 A 
HETATM   18  F   UNL     1      44.869 -23.176   3.375  1.00  0.00    -0.206 F 
HETATM   19  C   UNL     1      43.716 -21.624   2.024  1.00  0.00     0.044 A 
HETATM   20  C   UNL     1      43.283 -20.314   1.793  1.00  0.00     0.036 A 
ENDBRANCH   9  13
ENDBRANCH   4   7
BRANCH   3  21
HETATM   21  C   UNL     1      40.857 -14.838   0.088  1.00  0.00     0.089 A 
HETATM   22  N   UNL     1      41.217 -15.932  -0.509  1.00  0.00    -0.171 NA
HETATM   23  N   UNL     1      41.220 -15.906  -1.876  1.00  0.00    -0.243 N 
HETATM   24  C   UNL     1      40.871 -14.838  -2.662  1.00  0.00     0.261 A 
HETATM   25  H   UNL     1      41.485 -16.765  -2.347  1.00  0.00     0.192 HD
HETATM   26  O   UNL     1      40.871 -14.872  -3.888  1.00  0.00    -0.267 OA
HETATM   27  C   UNL     1      40.494 -13.606  -1.944  1.00  0.00     0.078 A 
HETATM   28  C   UNL     1      40.492 -13.581  -0.610  1.00  0.00     0.040 A 
ENDBRANCH   3  21
TORSDOF 3
ENDMDL
MODEL 2
REMARK VINA RESULT:      -8.6      3.182      7.517
REMARK  3 active torsions:
REMARK  status: ('A' for Active; 'I' for Inactive)
REMARK    1  A    between atoms: C_3  and  C_4 
REMARK    2  A    between atoms: C_11  and  N_12 
REMARK       I    between atoms: N_12  and  C_13 
REMARK       I    between atoms: C_13  and  N_14 
REMARK    3  A    between atoms: N_14  and  C_15 
ROOT
HETATM    1  C   UNL     1      44.398 -22.644   4.523  1.00  0.00     0.001 A 
HETATM    2  C   UNL     1      44.377 -21.492   5.306  1.00  0.00     0.016 A 
HETATM    3  C   UNL     1      44.468 -20.233   4.699  1.00  0.00     0.021 A 
HETATM    4  C   UNL     1      44.596 -20.115   3.302  1.00  0.00     0.049 A 
HETATM    5  C   UNL     1      44.635 -21.284   2.530  1.00  0.00     0.030 A 
HETATM    6  C   UNL     1      44.526 -22.539   3.138  1.00  0.00     0.002 A 
ENDROOT
BRANCH   4   7
HETATM    7  N   UNL     1      44.789 -18.846   2.723  1.00  0.00    -0.308 N 
HETATM    8  C   UNL     1      43.910 -17.865   2.350  1.00  0.00     0.325 C 
HETATM    9  N   UNL     1      42.629 -17.982   2.806  1.00  0.00    -0.306 N 
HETATM   10  O   UNL     1      44.368 -16.900   1.740  1.00  0.00    -0.247 OA
HETATM   11  H   UNL     1      42.389 -18.821   3.316  1.00  0.00     0.171 HD
HETATM   12  H   UNL     1      45.747 -18.530   2.614  1.00  0.00     0.170 HD
BRANCH   9  13
HETATM   13  C   UNL     1      41.599 -17.017   2.754  1.00  0.00     0.075 A 
HETATM   14  C   UNL     1      41.725 -15.908   3.604  1.00  0.00     0.146 A 
HETATM   15  F   UNL     1      42.778 -15.833   4.435  1.00  0.00    -0.204 F 
HETATM   16  C   UNL     1      40.794 -14.877   3.606  1.00  0.00     0.086 A 
HETATM   17  C   UNL     1      39.717 -14.953   2.737  1.00  0.00     0.119 A 
HETATM   18  F   UNL     1      38.817 -13.962   2.712  1.00  0.00    -0.206 F 
HETATM   19  C   UNL     1      39.561 -16.041   1.883  1.00  0.00     0.044 A 
HETATM   20  C   UNL     1      40.500 -17.079   1.895  1.00  0.00     0.036 A 
ENDBRANCH   9  13
ENDBRANCH   4   7
BRANCH   3  21
HETATM   21  C   UNL     1      44.353 -19.047   5.582  1.00  0.00     0.089 A 
HETATM   22  N   UNL     1      45.397 -18.308   5.800  1.00  0.00    -0.171 NA
HETATM   23  N   UNL     1      45.216 -17.226   6.615  1.00  0.00    -0.243 N 
HETATM   24  C   UNL     1      44.038 -16.853   7.211  1.00  0.00     0.261 A 
HETATM   25  H   UNL     1      46.026 -16.636   6.774  1.00  0.00     0.192 HD
HETATM   26  O   UNL     1      43.924 -15.859   7.919  1.00  0.00    -0.267 OA
HETATM   27  C   UNL     1      42.884 -17.736   6.960  1.00  0.00     0.078 A 
HETATM   28  C   UNL     1      43.017 -18.812   6.183  1.00  0.00     0.040 A 
ENDBRANCH   3  21
TORSDOF 3
ENDMDL
MODEL 3
REMARK VINA RESULT:      -8.5      3.703      7.935
REMARK  3 active torsions:
REMARK  status: ('A' for Active; 'I' for Inactive)
REMARK    1  A    between atoms: C_3  and  C_4 
REMARK    2  A    between atoms: C_11  and  N_12 
REMARK       I    between atoms: N_12  and  C_13 
REMARK       I    between atoms: C_13  and  N_14 
REMARK    3  A    between atoms: N_14  and  C_15 
ROOT
HETATM    1  C   UNL     1      44.062 -20.574   2.465  1.00  0.00     0.001 A 
HETATM    2  C   UNL     1      44.025 -20.026   3.745  1.00  0.00     0.016 A 
HETATM    3  C   UNL     1      43.793 -18.655   3.911  1.00  0.00     0.021 A 
HETATM    4  C   UNL     1      43.610 -17.815   2.795  1.00  0.00     0.049 A 
HETATM    5  C   UNL     1      43.668 -18.379   1.515  1.00  0.00     0.030 A 
HETATM    6  C   UNL     1      43.883 -19.752   1.352  1.00  0.00     0.002 A 
ENDROOT
BRANCH   4   7
HETATM    7  N   UNL     1      43.480 -16.425   2.981  1.00  0.00    -0.308 N 
HETATM    8  C   UNL     1      42.648 -15.498   2.416  1.00  0.00     0.325 C 
HETATM    9  N   UNL     1      41.581 -15.978   1.713  1.00  0.00    -0.306 N 
HETATM   10  O   UNL     1      42.857 -14.316   2.682  1.00  0.00    -0.247 OA
HETATM   11  H   UNL     1      41.516 -16.978   1.585  1.00  0.00     0.171 HD
HETATM   12  H   UNL     1      44.039 -16.005   3.717  1.00  0.00     0.170 HD
BRANCH   9  13
HETATM   13  C   UNL     1      40.469 -15.256   1.225  1.00  0.00     0.075 A 
HETATM   14  C   UNL     1      40.596 -14.675  -0.046  1.00  0.00     0.146 A 
HETATM   15  F   UNL     1      41.756 -14.799  -0.711  1.00  0.00    -0.204 F 
HETATM   16  C   UNL     1      39.552 -13.979  -0.641  1.00  0.00     0.086 A 
HETATM   17  C   UNL     1      38.353 -13.867   0.044  1.00  0.00     0.119 A 
HETATM   18  F   UNL     1      37.329 -13.214  -0.519  1.00  0.00    -0.206 F 
HETATM   19  C   UNL     1      38.194 -14.429   1.308  1.00  0.00     0.044 A 
HETATM   20  C   UNL     1      39.255 -15.120   1.903  1.00  0.00     0.036 A 
ENDBRANCH   9  13
ENDBRANCH   4   7
BRANCH   3  21
HETATM   21  C   UNL     1      43.682 -18.152   5.302  1.00  0.00     0.089 A 
HETATM   22  N   UNL     1      42.610 -17.520   5.669  1.00  0.00    -0.171 NA
HETATM   23  N   UNL     1      42.570 -17.094   6.967  1.00  0.00    -0.243 N 
HETATM   24  C   UNL     1      43.552 -17.281   7.907  1.00  0.00     0.261 A 
HETATM   25  H   UNL     1      41.727 -16.614   7.263  1.00  0.00     0.192 HD
HETATM   26  O   UNL     1      43.458 -16.896   9.067  1.00  0.00    -0.267 OA
HETATM   27  C   UNL     1      44.764 -17.979   7.441  1.00  0.00     0.078 A 
HETATM   28  C   UNL     1      44.853 -18.400   6.178  1.00  0.00     0.040 A 
ENDBRANCH   3  21
TORSDOF 3
ENDMDL
MODEL 4
REMARK VINA RESULT:      -8.3      3.293      7.223
REMARK  3 active torsions:
REMARK  status: ('A' for Active; 'I' for Inactive)
REMARK    1  A    between atoms: C_3  and  C_4 
REMARK    2  A    between atoms: C_11  and  N_12 
REMARK       I    between atoms: N_12  and  C_13 
REMARK       I    between atoms: C_13  and  N_14 
REMARK    3  A    between atoms: N_14  and  C_15 
ROOT
HETATM    1  C   UNL     1      43.332 -17.731   7.363  1.00  0.00     0.001 A 
HETATM    2  C   UNL     1      43.392 -18.674   6.339  1.00  0.00     0.016 A 
HETATM    3  C   UNL     1      43.499 -18.252   5.007  1.00  0.00     0.021 A 
HETATM    4  C   UNL     1      43.531 -16.881   4.687  1.00  0.00     0.049 A 
HETATM    5  C   UNL     1      43.450 -15.946   5.727  1.00  0.00     0.030 A 
HETATM    6  C   UNL     1      43.361 -16.371   7.057  1.00  0.00     0.002 A 
ENDROOT
BRANCH   4   7
HETATM    7  N   UNL     1      43.535 -16.479   3.337  1.00  0.00    -0.308 N 
HETATM    8  C   UNL     1      42.569 -15.925   2.542  1.00  0.00     0.325 C 
HETATM    9  N   UNL     1      41.459 -15.441   3.172  1.00  0.00    -0.306 N 
HETATM   10  O   UNL     1      42.825 -15.800   1.346  1.00  0.00    -0.247 OA
HETATM   11  H   UNL     1      41.382 -15.593   4.168  1.00  0.00     0.171 HD
HETATM   12  H   UNL     1      44.423 -16.522   2.846  1.00  0.00     0.170 HD
BRANCH   9  13
HETATM   13  C   UNL     1      40.433 -14.639   2.625  1.00  0.00     0.075 A 
HETATM   14  C   UNL     1      39.385 -15.306   1.971  1.00  0.00     0.146 A 
HETATM   15  F   UNL     1      39.423 -16.645   1.867  1.00  0.00    -0.204 F 
HETATM   16  C   UNL     1      38.303 -14.621   1.434  1.00  0.00     0.086 A 
HETATM   17  C   UNL     1      38.262 -13.241   1.557  1.00  0.00     0.119 A 
HETATM   18  F   UNL     1      37.220 -12.564   1.060  1.00  0.00    -0.206 F 
HETATM   19  C   UNL     1      39.286 -12.549   2.198  1.00  0.00     0.044 A 
HETATM   20  C   UNL     1      40.377 -13.247   2.727  1.00  0.00     0.036 A 
ENDBRANCH   9  13
ENDBRANCH   4   7
BRANCH   3  21
HETATM   21  C   UNL     1      43.645 -19.305   3.974  1.00  0.00     0.089 A 
HETATM   22  N   UNL     1      42.926 -19.249   2.896  1.00  0.00    -0.171 NA
HETATM   23  N   UNL     1      43.119 -20.246   1.982  1.00  0.00    -0.243 N 
HETATM   24  C   UNL     1      44.005 -21.288   2.101  1.00  0.00     0.261 A 
HETATM   25  H   UNL     1      42.570 -20.197   1.130  1.00  0.00     0.192 HD
HETATM   26  O   UNL     1      44.156 -22.148   1.241  1.00  0.00    -0.267 OA
HETATM   27  C   UNL     1      44.783 -21.330   3.353  1.00  0.00     0.078 A 
HETATM   28  C   UNL     1      44.616 -20.385   4.280  1.00  0.00     0.040 A 
ENDBRANCH   3  21
TORSDOF 3
ENDMDL
MODEL 5
REMARK VINA RESULT:      -8.2      4.215      8.161
REMARK  3 active torsions:
REMARK  status: ('A' for Active; 'I' for Inactive)
REMARK    1  A    between atoms: C_3  and  C_4 
REMARK    2  A    between atoms: C_11  and  N_12 
REMARK       I    between atoms: N_12  and  C_13 
REMARK       I    between atoms: C_13  and  N_14 
REMARK    3  A    between atoms: N_14  and  C_15 
ROOT
HETATM    1  C   UNL     1      43.180 -19.395   1.928  1.00  0.00     0.001 A 
HETATM    2  C   UNL     1      43.261 -19.087   3.284  1.00  0.00     0.016 A 
HETATM    3  C   UNL     1      43.479 -17.763   3.687  1.00  0.00     0.021 A 
HETATM    4  C   UNL     1      43.633 -16.737   2.735  1.00  0.00     0.049 A 
HETATM    5  C   UNL     1      43.568 -17.067   1.376  1.00  0.00     0.030 A 
HETATM    6  C   UNL     1      43.333 -18.387   0.976  1.00  0.00     0.002 A 
ENDROOT
BRANCH   4   7
HETATM    7  N   UNL     1      43.953 -15.433   3.161  1.00  0.00    -0.308 N 
HETATM    8  C   UNL     1      43.197 -14.301   3.296  1.00  0.00     0.325 C 
HETATM    9  N   UNL     1      41.841 -14.458   3.246  1.00  0.00    -0.306 N 
HETATM   10  O   UNL     1      43.787 -13.257   3.569  1.00  0.00    -0.247 OA
HETATM   11  H   UNL     1      41.485 -15.379   3.032  1.00  0.00     0.171 HD
HETATM   12  H   UNL     1      44.893 -15.281   3.513  1.00  0.00     0.170 HD
BRANCH   9  13
HETATM   13  C   UNL     1      40.847 -13.509   3.571  1.00  0.00     0.075 A 
HETATM   14  C   UNL     1      40.355 -12.719   2.521  1.00  0.00     0.146 A 
HETATM   15  F   UNL     1      40.867 -12.872   1.288  1.00  0.00    -0.204 F 
HETATM   16  C   UNL     1      39.347 -11.784   2.717  1.00  0.00     0.086 A 
HETATM   17  C   UNL     1      38.812 -11.641   3.988  1.00  0.00     0.119 A 
HETATM   18  F   UNL     1      37.828 -10.757   4.194  1.00  0.00    -0.206 F 
HETATM   19  C   UNL     1      39.279 -12.407   5.052  1.00  0.00     0.044 A 
HETATM   20  C   UNL     1      40.302 -13.339   4.845  1.00  0.00     0.036 A 
ENDBRANCH   9  13
ENDBRANCH   4   7
BRANCH   3  21
HETATM   21  C   UNL     1      43.468 -17.491   5.145  1.00  0.00     0.089 A 
HETATM   22  N   UNL     1      42.598 -16.664   5.635  1.00  0.00    -0.171 NA
HETATM   23  N   UNL     1      42.637 -16.468   6.987  1.00  0.00    -0.243 N 
HETATM   24  C   UNL     1      43.505 -17.069   7.863  1.00  0.00     0.261 A 
HETATM   25  H   UNL     1      41.947 -15.834   7.376  1.00  0.00     0.192 HD
HETATM   26  O   UNL     1      43.487 -16.874   9.073  1.00  0.00    -0.267 OA
HETATM   27  C   UNL     1      44.497 -17.981   7.262  1.00  0.00     0.078 A 
HETATM   28  C   UNL     1      44.504 -18.191   5.944  1.00  0.00     0.040 A 
ENDBRANCH   3  21
TORSDOF 3
ENDMDL
MODEL 6
REMARK VINA RESULT:      -8.2      2.545      4.503
REMARK  3 active torsions:
REMARK  status: ('A' for Active; 'I' for Inactive)
REMARK    1  A    between atoms: C_3  and  C_4 
REMARK    2  A    between atoms: C_11  and  N_12 
REMARK       I    between atoms: N_12  and  C_13 
REMARK       I    between atoms: C_13  and  N_14 
REMARK    3  A    between atoms: N_14  and  C_15 
ROOT
HETATM    1  C   UNL     1      42.163 -12.884  -2.377  1.00  0.00     0.001 A 
HETATM    2  C   UNL     1      42.128 -12.494  -1.040  1.00  0.00     0.016 A 
HETATM    3  C   UNL     1      41.591 -13.357  -0.076  1.00  0.00     0.021 A 
HETATM    4  C   UNL     1      41.071 -14.613  -0.444  1.00  0.00     0.049 A 
HETATM    5  C   UNL     1      41.097 -14.981  -1.795  1.00  0.00     0.030 A 
HETATM    6  C   UNL     1      41.649 -14.124  -2.753  1.00  0.00     0.002 A 
ENDROOT
BRANCH   4   7
HETATM    7  N   UNL     1      40.444 -15.420   0.526  1.00  0.00    -0.308 N 
HETATM    8  C   UNL     1      40.891 -16.485   1.261  1.00  0.00     0.325 C 
HETATM    9  N   UNL     1      42.239 -16.703   1.270  1.00  0.00    -0.306 N 
HETATM   10  O   UNL     1      40.065 -17.083   1.947  1.00  0.00    -0.247 OA
HETATM   11  H   UNL     1      42.811 -16.122   0.673  1.00  0.00     0.171 HD
HETATM   12  H   UNL     1      39.511 -15.149   0.817  1.00  0.00     0.170 HD
BRANCH   9  13
HETATM   13  C   UNL     1      42.969 -17.577   2.104  1.00  0.00     0.075 A 
HETATM   14  C   UNL     1      43.140 -17.186   3.440  1.00  0.00     0.146 A 
HETATM   15  F   UNL     1      42.643 -16.007   3.849  1.00  0.00    -0.204 F 
HETATM   16  C   UNL     1      43.805 -17.988   4.359  1.00  0.00     0.086 A 
HETATM   17  C   UNL     1      44.303 -19.210   3.936  1.00  0.00     0.119 A 
HETATM   18  F   UNL     1      44.933 -20.005   4.810  1.00  0.00    -0.206 F 
HETATM   19  C   UNL     1      44.153 -19.627   2.617  1.00  0.00     0.044 A 
HETATM   20  C   UNL     1      43.491 -18.807   1.696  1.00  0.00     0.036 A 
ENDBRANCH   9  13
ENDBRANCH   4   7
BRANCH   3  21
HETATM   21  C   UNL     1      41.663 -12.918   1.339  1.00  0.00     0.089 A 
HETATM   22  N   UNL     1      42.605 -13.377   2.104  1.00  0.00    -0.171 NA
HETATM   23  N   UNL     1      42.617 -12.922   3.393  1.00  0.00    -0.243 N 
HETATM   24  C   UNL     1      41.734 -12.026   3.940  1.00  0.00     0.261 A 
HETATM   25  H   UNL     1      43.362 -13.265   3.990  1.00  0.00     0.192 HD
HETATM   26  O   UNL     1      41.800 -11.633   5.099  1.00  0.00    -0.267 OA
HETATM   27  C   UNL     1      40.663 -11.551   3.044  1.00  0.00     0.078 A 
HETATM   28  C   UNL     1      40.603 -11.980   1.782  1.00  0.00     0.040 A 
ENDBRANCH   3  21
TORSDOF 3
ENDMDL
MODEL 7
REMARK VINA RESULT:      -8.2      3.451      7.098
REMARK  3 active torsions:
REMARK  status: ('A' for Active; 'I' for Inactive)
REMARK    1  A    between atoms: C_3  and  C_4 
REMARK    2  A    between atoms: C_11  and  N_12 
REMARK       I    between atoms: N_12  and  C_13 
REMARK       I    between atoms: C_13  and  N_14 
REMARK    3  A    between atoms: N_14  and  C_15 
ROOT
HETATM    1  C   UNL     1      44.743 -17.046   6.706  1.00  0.00     0.001 A 
HETATM    2  C   UNL     1      44.756 -18.116   5.813  1.00  0.00     0.016 A 
HETATM    3  C   UNL     1      43.755 -18.223   4.838  1.00  0.00     0.021 A 
HETATM    4  C   UNL     1      42.724 -17.268   4.757  1.00  0.00     0.049 A 
HETATM    5  C   UNL     1      42.715 -16.210   5.675  1.00  0.00     0.030 A 
HETATM    6  C   UNL     1      43.725 -16.096   6.636  1.00  0.00     0.002 A 
ENDROOT
BRANCH   4   7
HETATM    7  N   UNL     1      41.673 -17.451   3.837  1.00  0.00    -0.308 N 
HETATM    8  C   UNL     1      41.194 -16.666   2.824  1.00  0.00     0.325 C 
HETATM    9  N   UNL     1      41.976 -15.615   2.439  1.00  0.00    -0.306 N 
HETATM   10  O   UNL     1      40.165 -17.036   2.263  1.00  0.00    -0.247 OA
HETATM   11  H   UNL     1      42.812 -15.433   2.976  1.00  0.00     0.171 HD
HETATM   12  H   UNL     1      41.207 -18.353   3.844  1.00  0.00     0.170 HD
BRANCH   9  13
HETATM   13  C   UNL     1      41.827 -14.797   1.298  1.00  0.00     0.075 A 
HETATM   14  C   UNL     1      42.049 -13.422   1.468  1.00  0.00     0.146 A 
HETATM   15  F   UNL     1      42.352 -12.951   2.690  1.00  0.00    -0.204 F 
HETATM   16  C   UNL     1      41.972 -12.530   0.406  1.00  0.00     0.086 A 
HETATM   17  C   UNL     1      41.673 -13.022  -0.854  1.00  0.00     0.119 A 
HETATM   18  F   UNL     1      41.610 -12.181  -1.894  1.00  0.00    -0.206 F 
HETATM   19  C   UNL     1      41.445 -14.380  -1.057  1.00  0.00     0.044 A 
HETATM   20  C   UNL     1      41.515 -15.269   0.021  1.00  0.00     0.036 A 
ENDBRANCH   9  13
ENDBRANCH   4   7
BRANCH   3  21
HETATM   21  C   UNL     1      43.876 -19.336   3.866  1.00  0.00     0.089 A 
HETATM   22  N   UNL     1      43.458 -19.171   2.649  1.00  0.00    -0.171 NA
HETATM   23  N   UNL     1      43.610 -20.234   1.804  1.00  0.00    -0.243 N 
HETATM   24  C   UNL     1      44.167 -21.446   2.126  1.00  0.00     0.261 A 
HETATM   25  H   UNL     1      43.299 -20.104   0.847  1.00  0.00     0.192 HD
HETATM   26  O   UNL     1      44.299 -22.364   1.323  1.00  0.00    -0.267 OA
HETATM   27  C   UNL     1      44.604 -21.602   3.525  1.00  0.00     0.078 A 
HETATM   28  C   UNL     1      44.462 -20.595   4.389  1.00  0.00     0.040 A 
ENDBRANCH   3  21
TORSDOF 3
ENDMDL
MODEL 8
REMARK VINA RESULT:      -8.1      4.771      7.254
REMARK  3 active torsions:
REMARK  status: ('A' for Active; 'I' for Inactive)
REMARK    1  A    between atoms: C_3  and  C_4 
REMARK    2  A    between atoms: C_11  and  N_12 
REMARK       I    between atoms: N_12  and  C_13 
REMARK       I    between atoms: C_13  and  N_14 
REMARK    3  A    between atoms: N_14  and  C_15 
ROOT
HETATM    1  C   UNL     1      44.442 -19.632   5.644  1.00  0.00     0.001 A 
HETATM    2  C   UNL     1      43.791 -19.213   4.485  1.00  0.00     0.016 A 
HETATM    3  C   UNL     1      43.454 -17.863   4.324  1.00  0.00     0.021 A 
HETATM    4  C   UNL     1      43.752 -16.921   5.328  1.00  0.00     0.049 A 
HETATM    5  C   UNL     1      44.389 -17.363   6.495  1.00  0.00     0.030 A 
HETATM    6  C   UNL     1      44.741 -18.709   6.645  1.00  0.00     0.002 A 
ENDROOT
BRANCH   4   7
HETATM    7  N   UNL     1      43.312 -15.590   5.190  1.00  0.00    -0.308 N 
HETATM    8  C   UNL     1      43.445 -14.492   5.996  1.00  0.00     0.325 C 
HETATM    9  N   UNL     1      44.350 -14.583   7.014  1.00  0.00    -0.306 N 
HETATM   10  O   UNL     1      42.834 -13.476   5.670  1.00  0.00    -0.247 OA
HETATM   11  H   UNL     1      44.801 -15.475   7.160  1.00  0.00     0.171 HD
HETATM   12  H   UNL     1      42.876 -15.338   4.309  1.00  0.00     0.170 HD
BRANCH   9  13
HETATM   13  C   UNL     1      44.833 -13.544   7.840  1.00  0.00     0.075 A 
HETATM   14  C   UNL     1      46.022 -12.916   7.440  1.00  0.00     0.146 A 
HETATM   15  F   UNL     1      46.652 -13.344   6.334  1.00  0.00    -0.204 F 
HETATM   16  C   UNL     1      46.565 -11.855   8.153  1.00  0.00     0.086 A 
HETATM   17  C   UNL     1      45.903 -11.407   9.285  1.00  0.00     0.119 A 
HETATM   18  F   UNL     1      46.402 -10.375   9.976  1.00  0.00    -0.206 F 
HETATM   19  C   UNL     1      44.723 -12.010   9.710  1.00  0.00     0.044 A 
HETATM   20  C   UNL     1      44.189 -13.085   8.991  1.00  0.00     0.036 A 
ENDBRANCH   9  13
ENDBRANCH   4   7
BRANCH   3  21
HETATM   21  C   UNL     1      42.840 -17.469   3.032  1.00  0.00     0.089 A 
HETATM   22  N   UNL     1      41.605 -17.074   3.005  1.00  0.00    -0.171 NA
HETATM   23  N   UNL     1      41.108 -16.716   1.783  1.00  0.00    -0.243 N 
HETATM   24  C   UNL     1      41.797 -16.732   0.597  1.00  0.00     0.261 A 
HETATM   25  H   UNL     1      40.147 -16.391   1.760  1.00  0.00     0.192 HD
HETATM   26  O   UNL     1      41.310 -16.382  -0.472  1.00  0.00    -0.267 OA
HETATM   27  C   UNL     1      43.189 -17.214   0.668  1.00  0.00     0.078 A 
HETATM   28  C   UNL     1      43.712 -17.587   1.837  1.00  0.00     0.040 A 
ENDBRANCH   3  21
TORSDOF 3
ENDMDL
MODEL 9
REMARK VINA RESULT:      -8.1      3.176      4.850
REMARK  3 active torsions:
REMARK  status: ('A' for Active; 'I' for Inactive)
REMARK    1  A    between atoms: C_3  and  C_4 
REMARK    2  A    between atoms: C_11  and  N_12 
REMARK       I    between atoms: N_12  and  C_13 
REMARK       I    between atoms: C_13  and  N_14 
REMARK    3  A    between atoms: N_14  and  C_15 
ROOT
HETATM    1  C   UNL     1      39.795 -14.730   0.723  1.00  0.00     0.001 A 
HETATM    2  C   UNL     1      39.472 -14.247   1.989  1.00  0.00     0.016 A 
HETATM    3  C   UNL     1      40.432 -14.267   3.009  1.00  0.00     0.021 A 
HETATM    4  C   UNL     1      41.721 -14.784   2.775  1.00  0.00     0.049 A 
HETATM    5  C   UNL     1      42.022 -15.283   1.502  1.00  0.00     0.030 A 
HETATM    6  C   UNL     1      41.067 -15.246   0.480  1.00  0.00     0.002 A 
ENDROOT
BRANCH   4   7
HETATM    7  N   UNL     1      42.636 -14.888   3.841  1.00  0.00    -0.308 N 
HETATM    8  C   UNL     1      43.122 -15.965   4.529  1.00  0.00     0.325 C 
HETATM    9  N   UNL     1      42.897 -17.196   3.984  1.00  0.00    -0.306 N 
HETATM   10  O   UNL     1      43.823 -15.736   5.514  1.00  0.00    -0.247 OA
HETATM   11  H   UNL     1      42.319 -17.242   3.156  1.00  0.00     0.171 HD
HETATM   12  H   UNL     1      43.101 -14.034   4.133  1.00  0.00     0.170 HD
BRANCH   9  13
HETATM   13  C   UNL     1      43.468 -18.430   4.364  1.00  0.00     0.075 A 
HETATM   14  C   UNL     1      44.135 -19.157   3.367  1.00  0.00     0.146 A 
HETATM   15  F   UNL     1      44.170 -18.673   2.114  1.00  0.00    -0.204 F 
HETATM   16  C   UNL     1      44.770 -20.362   3.638  1.00  0.00     0.086 A 
HETATM   17  C   UNL     1      44.743 -20.850   4.935  1.00  0.00     0.119 A 
HETATM   18  F   UNL     1      45.362 -22.002   5.221  1.00  0.00    -0.206 F 
HETATM   19  C   UNL     1      44.087 -20.155   5.948  1.00  0.00     0.044 A 
HETATM   20  C   UNL     1      43.443 -18.946   5.662  1.00  0.00     0.036 A 
ENDBRANCH   9  13
ENDBRANCH   4   7
BRANCH   3  21
HETATM   21  C   UNL     1      40.051 -13.659   4.308  1.00  0.00     0.089 A 
HETATM   22  N   UNL     1      40.052 -14.389   5.380  1.00  0.00    -0.171 NA
HETATM   23  N   UNL     1      39.701 -13.762   6.543  1.00  0.00    -0.243 N 
HETATM   24  C   UNL     1      39.358 -12.440   6.674  1.00  0.00     0.261 A 
HETATM   25  H   UNL     1      39.717 -14.326   7.386  1.00  0.00     0.192 HD
HETATM   26  O   UNL     1      39.070 -11.920   7.746  1.00  0.00    -0.267 OA
HETATM   27  C   UNL     1      39.343 -11.653   5.427  1.00  0.00     0.078 A 
HETATM   28  C   UNL     1      39.665 -12.227   4.266  1.00  0.00     0.040 A 
ENDBRANCH   3  21
TORSDOF 3
ENDMDL
MODEL 10
REMARK VINA RESULT:      -8.0      4.068      7.026
REMARK  3 active torsions:
REMARK  status: ('A' for Active; 'I' for Inactive)
REMARK    1  A    between atoms: C_3  and  C_4 
REMARK    2  A    between atoms: C_11  and  N_12 
REMARK       I    between atoms: N_12  and  C_13 
REMARK       I    between atoms: C_13  and  N_14 
REMARK    3  A    between atoms: N_14  and  C_15 
ROOT
HETATM    1  C   UNL     1      44.026 -17.652   5.106  1.00  0.00     0.001 A 
HETATM    2  C   UNL     1      43.402 -16.458   5.459  1.00  0.00     0.016 A 
HETATM    3  C   UNL     1      42.184 -16.105   4.864  1.00  0.00     0.021 A 
HETATM    4  C   UNL     1      41.585 -16.939   3.899  1.00  0.00     0.049 A 
HETATM    5  C   UNL     1      42.236 -18.126   3.542  1.00  0.00     0.030 A 
HETATM    6  C   UNL     1      43.444 -18.484   4.150  1.00  0.00     0.002 A 
ENDROOT
BRANCH   4   7
HETATM    7  N   UNL     1      40.414 -16.515   3.241  1.00  0.00    -0.308 N 
HETATM    8  C   UNL     1      40.217 -15.795   2.095  1.00  0.00     0.325 C 
HETATM    9  N   UNL     1      41.299 -15.627   1.280  1.00  0.00    -0.306 N 
HETATM   10  O   UNL     1      39.063 -15.460   1.831  1.00  0.00    -0.247 OA
HETATM   11  H   UNL     1      42.190 -15.971   1.609  1.00  0.00     0.171 HD
HETATM   12  H   UNL     1      39.531 -16.849   3.613  1.00  0.00     0.170 HD
BRANCH   9  13
HETATM   13  C   UNL     1      41.320 -15.126  -0.040  1.00  0.00     0.075 A 
HETATM   14  C   UNL     1      41.684 -13.780  -0.204  1.00  0.00     0.146 A 
HETATM   15  F   UNL     1      41.954 -13.037   0.882  1.00  0.00    -0.204 F 
HETATM   16  C   UNL     1      41.779 -13.194  -1.459  1.00  0.00     0.086 A 
HETATM   17  C   UNL     1      41.513 -13.970  -2.576  1.00  0.00     0.119 A 
HETATM   18  F   UNL     1      41.615 -13.428  -3.796  1.00  0.00    -0.206 F 
HETATM   19  C   UNL     1      41.147 -15.307  -2.449  1.00  0.00     0.044 A 
HETATM   20  C   UNL     1      41.044 -15.885  -1.179  1.00  0.00     0.036 A 
ENDBRANCH   9  13
ENDBRANCH   4   7
BRANCH   3  21
HETATM   21  C   UNL     1      41.530 -14.865   5.347  1.00  0.00     0.089 A 
HETATM   22  N   UNL     1      40.429 -14.945   6.027  1.00  0.00    -0.171 NA
HETATM   23  N   UNL     1      39.887 -13.763   6.450  1.00  0.00    -0.243 N 
HETATM   24  C   UNL     1      40.406 -12.513   6.226  1.00  0.00     0.261 A 
HETATM   25  H   UNL     1      39.034 -13.823   6.997  1.00  0.00     0.192 HD
HETATM   26  O   UNL     1      39.891 -11.483   6.645  1.00  0.00    -0.267 OA
HETATM   27  C   UNL     1      41.644 -12.465   5.426  1.00  0.00     0.078 A 
HETATM   28  C   UNL     1      42.200 -13.593   4.980  1.00  0.00     0.040 A 
ENDBRANCH   3  21
TORSDOF 3
ENDMDL
