MODEL 1
REMARK VINA RESULT:      -9.1      0.000      0.000
REMARK  6 active torsions:
REMARK  status: ('A' for Active; 'I' for Inactive)
REMARK    1  A    between atoms: C_4  and  C_5 
REMARK    2  A    between atoms: C_7  and  C_8 
REMARK    3  A    between atoms: C_11  and  C_12 
REMARK       I    between atoms: C_12  and  N_13 
REMARK    4  A    between atoms: N_13  and  C_14 
REMARK    5  A    between atoms: C_14  and  C_15 
REMARK    6  A    between atoms: C_18  and  N_19 
REMARK       I    between atoms: N_19  and  C_20 
REMARK       I    between atoms: C_20  and  N_21 
ROOT
HETATM    1  C   UNL     1      43.025 -14.688   2.738  1.00  0.00     0.273 C 
HETATM    2  N   UNL     1      42.052 -14.677   1.764  1.00  0.00    -0.351 N 
HETATM    3  O   UNL     1      43.636 -13.680   3.078  1.00  0.00    -0.266 OA
HETATM    4  H   UNL     1      41.527 -15.534   1.620  1.00  0.00     0.163 HD
ENDROOT
BRANCH   1   5
HETATM    5  C   UNL     1      43.249 -16.009   3.315  1.00  0.00     0.157 A 
HETATM    6  C   UNL     1      43.312 -16.354   4.652  1.00  0.00     0.094 A 
HETATM    7  O   UNL     1      43.558 -17.699   4.719  1.00  0.00    -0.293 OA
HETATM    8  C   UNL     1      43.632 -18.111   3.417  1.00  0.00     0.180 A 
HETATM    9  N   UNL     1      43.442 -17.148   2.535  1.00  0.00    -0.216 NA
BRANCH   6  10
HETATM   10  C   UNL     1      43.145 -15.466   5.871  1.00  0.00     0.046 A 
HETATM   11  C   UNL     1      43.688 -15.974   7.192  1.00  0.00     0.012 A 
HETATM   12  C   UNL     1      44.394 -14.867   6.487  1.00  0.00     0.012 A 
ENDBRANCH   6  10
BRANCH   8  13
HETATM   13  C   UNL     1      43.919 -19.527   3.199  1.00  0.00     0.017 A 
HETATM   14  C   UNL     1      43.573 -20.178   2.004  1.00  0.00     0.016 A 
HETATM   15  C   UNL     1      43.848 -21.536   1.822  1.00  0.00     0.001 A 
HETATM   16  C   UNL     1      44.472 -22.262   2.834  1.00  0.00     0.000 A 
HETATM   17  C   UNL     1      44.823 -21.633   4.026  1.00  0.00     0.001 A 
HETATM   18  C   UNL     1      44.549 -20.274   4.207  1.00  0.00     0.016 A 
ENDBRANCH   8  13
ENDBRANCH   1   5
BRANCH   2  19
HETATM   19  C   UNL     1      41.665 -13.446   1.126  1.00  0.00     0.161 C 
BRANCH  19  20
HETATM   20  C   UNL     1      40.690 -13.637  -0.005  1.00  0.00    -0.040 A 
HETATM   21  C   UNL     1      39.331 -13.826   0.273  1.00  0.00     0.011 A 
HETATM   22  C   UNL     1      38.392 -13.932  -0.758  1.00  0.00     0.030 A 
HETATM   23  C   UNL     1      38.791 -13.841  -2.091  1.00  0.00     0.035 A 
HETATM   24  C   UNL     1      40.150 -13.659  -2.376  1.00  0.00     0.030 A 
HETATM   25  C   UNL     1      41.090 -13.546  -1.344  1.00  0.00     0.011 A 
BRANCH  23  26
HETATM   26  N   UNL     1      37.902 -13.926  -3.180  1.00  0.00    -0.314 N 
HETATM   27  C   UNL     1      37.684 -15.003  -3.996  1.00  0.00     0.296 C 
HETATM   28  N   UNL     1      36.797 -14.712  -4.992  1.00  0.00    -0.254 NA
HETATM   29  O   UNL     1      38.158 -16.127  -3.921  1.00  0.00    -0.254 OA
HETATM   30  H   UNL     1      36.892 -13.809  -5.434  1.00  0.00     0.128 HD
HETATM   31  H   UNL     1      36.697 -15.480  -5.647  1.00  0.00     0.128 HD
HETATM   32  H   UNL     1      37.247 -13.168  -3.293  1.00  0.00     0.170 HD
ENDBRANCH  23  26
ENDBRANCH  19  20
ENDBRANCH   2  19
TORSDOF 6
ENDMDL
MODEL 2
REMARK VINA RESULT:      -8.9      1.678      2.172
REMARK  6 active torsions:
REMARK  status: ('A' for Active; 'I' for Inactive)
REMARK    1  A    between atoms: C_4  and  C_5 
REMARK    2  A    between atoms: C_7  and  C_8 
REMARK    3  A    between atoms: C_11  and  C_12 
REMARK       I    between atoms: C_12  and  N_13 
REMARK    4  A    between atoms: N_13  and  C_14 
REMARK    5  A    between atoms: C_14  and  C_15 
REMARK    6  A    between atoms: C_18  and  N_19 
REMARK       I    between atoms: N_19  and  C_20 
REMARK       I    between atoms: C_20  and  N_21 
ROOT
HETATM    1  C   UNL     1      42.104 -15.131   1.217  1.00  0.00     0.273 C 
HETATM    2  N   UNL     1      41.834 -15.428  -0.099  1.00  0.00    -0.351 N 
HETATM    3  O   UNL     1      42.186 -13.980   1.636  1.00  0.00    -0.266 OA
HETATM    4  H   UNL     1      41.681 -16.403  -0.336  1.00  0.00     0.163 HD
ENDROOT
BRANCH   1   5
HETATM    5  C   UNL     1      42.278 -16.315   2.051  1.00  0.00     0.157 A 
HETATM    6  C   UNL     1      41.798 -16.535   3.328  1.00  0.00     0.094 A 
HETATM    7  O   UNL     1      42.225 -17.775   3.721  1.00  0.00    -0.293 OA
HETATM    8  C   UNL     1      42.945 -18.254   2.662  1.00  0.00     0.180 A 
HETATM    9  N   UNL     1      43.000 -17.432   1.631  1.00  0.00    -0.216 NA
BRANCH   6  10
HETATM   10  C   UNL     1      40.949 -15.623   4.194  1.00  0.00     0.046 A 
HETATM   11  C   UNL     1      40.899 -15.909   5.681  1.00  0.00     0.012 A 
HETATM   12  C   UNL     1      41.659 -14.727   5.189  1.00  0.00     0.012 A 
ENDBRANCH   6  10
BRANCH   8  13
HETATM   13  C   UNL     1      43.547 -19.574   2.830  1.00  0.00     0.017 A 
HETATM   14  C   UNL     1      44.267 -19.919   3.985  1.00  0.00     0.016 A 
HETATM   15  C   UNL     1      44.844 -21.185   4.120  1.00  0.00     0.001 A 
HETATM   16  C   UNL     1      44.709 -22.123   3.101  1.00  0.00     0.000 A 
HETATM   17  C   UNL     1      43.998 -21.800   1.947  1.00  0.00     0.001 A 
HETATM   18  C   UNL     1      43.421 -20.534   1.814  1.00  0.00     0.016 A 
ENDBRANCH   8  13
ENDBRANCH   1   5
BRANCH   2  19
HETATM   19  C   UNL     1      41.580 -14.379  -1.052  1.00  0.00     0.161 C 
BRANCH  19  20
HETATM   20  C   UNL     1      40.317 -14.581  -1.846  1.00  0.00    -0.040 A 
HETATM   21  C   UNL     1      39.138 -13.936  -1.455  1.00  0.00     0.011 A 
HETATM   22  C   UNL     1      37.969 -14.047  -2.215  1.00  0.00     0.030 A 
HETATM   23  C   UNL     1      37.957 -14.798  -3.389  1.00  0.00     0.035 A 
HETATM   24  C   UNL     1      39.131 -15.452  -3.783  1.00  0.00     0.030 A 
HETATM   25  C   UNL     1      40.303 -15.336  -3.026  1.00  0.00     0.011 A 
BRANCH  23  26
HETATM   26  N   UNL     1      36.823 -14.944  -4.211  1.00  0.00    -0.314 N 
HETATM   27  C   UNL     1      36.073 -13.949  -4.780  1.00  0.00     0.296 C 
HETATM   28  N   UNL     1      35.004 -14.451  -5.466  1.00  0.00    -0.254 NA
HETATM   29  O   UNL     1      36.257 -12.742  -4.751  1.00  0.00    -0.254 OA
HETATM   30  H   UNL     1      34.507 -15.216  -5.034  1.00  0.00     0.128 HD
HETATM   31  H   UNL     1      34.400 -13.717  -5.818  1.00  0.00     0.128 HD
HETATM   32  H   UNL     1      36.615 -15.874  -4.541  1.00  0.00     0.170 HD
ENDBRANCH  23  26
ENDBRANCH  19  20
ENDBRANCH   2  19
TORSDOF 6
ENDMDL
MODEL 3
REMARK VINA RESULT:      -8.4      5.761      9.455
REMARK  6 active torsions:
REMARK  status: ('A' for Active; 'I' for Inactive)
REMARK    1  A    between atoms: C_4  and  C_5 
REMARK    2  A    between atoms: C_7  and  C_8 
REMARK    3  A    between atoms: C_11  and  C_12 
REMARK       I    between atoms: C_12  and  N_13 
REMARK    4  A    between atoms: N_13  and  C_14 
REMARK    5  A    between atoms: C_14  and  C_15 
REMARK    6  A    between atoms: C_18  and  N_19 
REMARK       I    between atoms: N_19  and  C_20 
REMARK       I    between atoms: C_20  and  N_21 
ROOT
HETATM    1  C   UNL     1      45.076 -13.934   6.968  1.00  0.00     0.273 C 
HETATM    2  N   UNL     1      44.673 -13.432   8.184  1.00  0.00    -0.351 N 
HETATM    3  O   UNL     1      45.925 -13.386   6.271  1.00  0.00    -0.266 OA
HETATM    4  H   UNL     1      44.043 -14.002   8.739  1.00  0.00     0.163 HD
ENDROOT
BRANCH   1   5
HETATM    5  C   UNL     1      44.396 -15.171   6.601  1.00  0.00     0.157 A 
HETATM    6  C   UNL     1      43.109 -15.325   6.119  1.00  0.00     0.094 A 
HETATM    7  O   UNL     1      42.896 -16.664   5.934  1.00  0.00    -0.293 OA
HETATM    8  C   UNL     1      44.066 -17.265   6.310  1.00  0.00     0.180 A 
HETATM    9  N   UNL     1      45.002 -16.422   6.705  1.00  0.00    -0.216 NA
BRANCH   6  10
HETATM   10  C   UNL     1      42.071 -14.258   5.823  1.00  0.00     0.046 A 
HETATM   11  C   UNL     1      41.338 -14.336   4.500  1.00  0.00     0.012 A 
HETATM   12  C   UNL     1      40.618 -14.682   5.757  1.00  0.00     0.012 A 
ENDBRANCH   6  10
BRANCH   8  13
HETATM   13  C   UNL     1      44.101 -18.723   6.234  1.00  0.00     0.017 A 
HETATM   14  C   UNL     1      43.590 -19.531   7.263  1.00  0.00     0.016 A 
HETATM   15  C   UNL     1      43.643 -20.925   7.173  1.00  0.00     0.001 A 
HETATM   16  C   UNL     1      44.210 -21.530   6.054  1.00  0.00     0.000 A 
HETATM   17  C   UNL     1      44.721 -20.744   5.024  1.00  0.00     0.001 A 
HETATM   18  C   UNL     1      44.666 -19.351   5.113  1.00  0.00     0.016 A 
ENDBRANCH   8  13
ENDBRANCH   1   5
BRANCH   2  19
HETATM   19  C   UNL     1      45.280 -12.245   8.727  1.00  0.00     0.161 C 
BRANCH  19  20
HETATM   20  C   UNL     1      44.334 -11.406   9.545  1.00  0.00    -0.040 A 
HETATM   21  C   UNL     1      43.096 -11.030   9.009  1.00  0.00     0.011 A 
HETATM   22  C   UNL     1      42.167 -10.315   9.772  1.00  0.00     0.030 A 
HETATM   23  C   UNL     1      42.454  -9.968  11.092  1.00  0.00     0.035 A 
HETATM   24  C   UNL     1      43.692 -10.334  11.631  1.00  0.00     0.030 A 
HETATM   25  C   UNL     1      44.620 -11.056  10.871  1.00  0.00     0.011 A 
BRANCH  23  26
HETATM   26  N   UNL     1      41.564  -9.261  11.923  1.00  0.00    -0.314 N 
HETATM   27  C   UNL     1      40.407  -9.724  12.491  1.00  0.00     0.296 C 
HETATM   28  N   UNL     1      39.759  -8.746  13.188  1.00  0.00    -0.254 NA
HETATM   29  O   UNL     1      39.935 -10.851  12.453  1.00  0.00    -0.254 OA
HETATM   30  H   UNL     1      39.731  -7.829  12.765  1.00  0.00     0.128 HD
HETATM   31  H   UNL     1      38.861  -9.062  13.539  1.00  0.00     0.128 HD
HETATM   32  H   UNL     1      41.872  -8.362  12.261  1.00  0.00     0.170 HD
ENDBRANCH  23  26
ENDBRANCH  19  20
ENDBRANCH   2  19
TORSDOF 6
ENDMDL
MODEL 4
REMARK VINA RESULT:      -8.4      1.186      1.713
REMARK  6 active torsions:
REMARK  status: ('A' for Active; 'I' for Inactive)
REMARK    1  A    between atoms: C_4  and  C_5 
REMARK    2  A    between atoms: C_7  and  C_8 
REMARK    3  A    between atoms: C_11  and  C_12 
REMARK       I    between atoms: C_12  and  N_13 
REMARK    4  A    between atoms: N_13  and  C_14 
REMARK    5  A    between atoms: C_14  and  C_15 
REMARK    6  A    between atoms: C_18  and  N_19 
REMARK       I    between atoms: N_19  and  C_20 
REMARK       I    between atoms: C_20  and  N_21 
ROOT
HETATM    1  C   UNL     1      43.366 -14.529   3.086  1.00  0.00     0.273 C 
HETATM    2  N   UNL     1      42.378 -14.361   2.142  1.00  0.00    -0.351 N 
HETATM    3  O   UNL     1      44.086 -13.610   3.465  1.00  0.00    -0.266 OA
HETATM    4  H   UNL     1      41.764 -15.149   1.964  1.00  0.00     0.163 HD
ENDROOT
BRANCH   1   5
HETATM    5  C   UNL     1      43.463 -15.897   3.581  1.00  0.00     0.157 A 
HETATM    6  C   UNL     1      43.390 -16.336   4.890  1.00  0.00     0.094 A 
HETATM    7  O   UNL     1      43.553 -17.695   4.879  1.00  0.00    -0.293 OA
HETATM    8  C   UNL     1      43.716 -18.022   3.560  1.00  0.00     0.180 A 
HETATM    9  N   UNL     1      43.658 -16.990   2.738  1.00  0.00    -0.216 NA
BRANCH   6  10
HETATM   10  C   UNL     1      43.169 -15.524   6.153  1.00  0.00     0.046 A 
HETATM   11  C   UNL     1      43.624 -16.128   7.467  1.00  0.00     0.012 A 
HETATM   12  C   UNL     1      44.391 -14.995   6.877  1.00  0.00     0.012 A 
ENDBRANCH   6  10
BRANCH   8  13
HETATM   13  C   UNL     1      43.940 -19.434   3.264  1.00  0.00     0.017 A 
HETATM   14  C   UNL     1      44.582 -20.290   4.174  1.00  0.00     0.016 A 
HETATM   15  C   UNL     1      44.795 -21.636   3.865  1.00  0.00     0.001 A 
HETATM   16  C   UNL     1      44.369 -22.145   2.641  1.00  0.00     0.000 A 
HETATM   17  C   UNL     1      43.730 -21.312   1.726  1.00  0.00     0.001 A 
HETATM   18  C   UNL     1      43.517 -19.966   2.036  1.00  0.00     0.016 A 
ENDBRANCH   8  13
ENDBRANCH   1   5
BRANCH   2  19
HETATM   19  C   UNL     1      42.108 -13.061   1.585  1.00  0.00     0.161 C 
BRANCH  19  20
HETATM   20  C   UNL     1      41.195 -13.098   0.389  1.00  0.00    -0.040 A 
HETATM   21  C   UNL     1      41.445 -12.259  -0.704  1.00  0.00     0.011 A 
HETATM   22  C   UNL     1      40.657 -12.325  -1.858  1.00  0.00     0.030 A 
HETATM   23  C   UNL     1      39.608 -13.238  -1.948  1.00  0.00     0.035 A 
HETATM   24  C   UNL     1      39.348 -14.075  -0.856  1.00  0.00     0.030 A 
HETATM   25  C   UNL     1      40.140 -14.015   0.297  1.00  0.00     0.011 A 
BRANCH  23  26
HETATM   26  N   UNL     1      38.782 -13.369  -3.081  1.00  0.00    -0.314 N 
HETATM   27  C   UNL     1      37.624 -12.690  -3.352  1.00  0.00     0.296 C 
HETATM   28  N   UNL     1      37.048 -13.116  -4.514  1.00  0.00    -0.254 NA
HETATM   29  O   UNL     1      37.097 -11.793  -2.711  1.00  0.00    -0.254 OA
HETATM   30  H   UNL     1      37.051 -14.111  -4.683  1.00  0.00     0.128 HD
HETATM   31  H   UNL     1      36.149 -12.675  -4.675  1.00  0.00     0.128 HD
HETATM   32  H   UNL     1      39.144 -13.913  -3.849  1.00  0.00     0.170 HD
ENDBRANCH  23  26
ENDBRANCH  19  20
ENDBRANCH   2  19
TORSDOF 6
ENDMDL
MODEL 5
REMARK VINA RESULT:      -8.4      4.362      6.679
REMARK  6 active torsions:
REMARK  status: ('A' for Active; 'I' for Inactive)
REMARK    1  A    between atoms: C_4  and  C_5 
REMARK    2  A    between atoms: C_7  and  C_8 
REMARK    3  A    between atoms: C_11  and  C_12 
REMARK       I    between atoms: C_12  and  N_13 
REMARK    4  A    between atoms: N_13  and  C_14 
REMARK    5  A    between atoms: C_14  and  C_15 
REMARK    6  A    between atoms: C_18  and  N_19 
REMARK       I    between atoms: N_19  and  C_20 
REMARK       I    between atoms: C_20  and  N_21 
ROOT
HETATM    1  C   UNL     1      42.981 -14.827   3.876  1.00  0.00     0.273 C 
HETATM    2  N   UNL     1      41.676 -14.403   3.979  1.00  0.00    -0.351 N 
HETATM    3  O   UNL     1      43.902 -14.073   3.576  1.00  0.00    -0.266 OA
HETATM    4  H   UNL     1      40.996 -15.069   4.331  1.00  0.00     0.163 HD
ENDROOT
BRANCH   1   5
HETATM    5  C   UNL     1      43.151 -16.247   4.157  1.00  0.00     0.157 A 
HETATM    6  C   UNL     1      43.073 -16.889   5.379  1.00  0.00     0.094 A 
HETATM    7  O   UNL     1      43.320 -18.218   5.163  1.00  0.00    -0.293 OA
HETATM    8  C   UNL     1      43.535 -18.325   3.817  1.00  0.00     0.180 A 
HETATM    9  N   UNL     1      43.433 -17.183   3.162  1.00  0.00    -0.216 NA
BRANCH   6  10
HETATM   10  C   UNL     1      42.772 -16.298   6.744  1.00  0.00     0.046 A 
HETATM   11  C   UNL     1      43.381 -16.977   7.955  1.00  0.00     0.012 A 
HETATM   12  C   UNL     1      43.915 -15.660   7.507  1.00  0.00     0.012 A 
ENDBRANCH   6  10
BRANCH   8  13
HETATM   13  C   UNL     1      43.853 -19.659   3.314  1.00  0.00     0.017 A 
HETATM   14  C   UNL     1      43.468 -20.077   2.030  1.00  0.00     0.016 A 
HETATM   15  C   UNL     1      43.774 -21.362   1.573  1.00  0.00     0.001 A 
HETATM   16  C   UNL     1      44.468 -22.247   2.395  1.00  0.00     0.000 A 
HETATM   17  C   UNL     1      44.857 -21.849   3.673  1.00  0.00     0.001 A 
HETATM   18  C   UNL     1      44.553 -20.563   4.127  1.00  0.00     0.016 A 
ENDBRANCH   8  13
ENDBRANCH   1   5
BRANCH   2  19
HETATM   19  C   UNL     1      41.335 -13.018   3.787  1.00  0.00     0.161 C 
BRANCH  19  20
HETATM   20  C   UNL     1      40.799 -12.353   5.027  1.00  0.00    -0.040 A 
HETATM   21  C   UNL     1      41.110 -11.013   5.288  1.00  0.00     0.011 A 
HETATM   22  C   UNL     1      40.567 -10.349   6.393  1.00  0.00     0.030 A 
HETATM   23  C   UNL     1      39.693 -11.009   7.256  1.00  0.00     0.035 A 
HETATM   24  C   UNL     1      39.383 -12.351   7.004  1.00  0.00     0.030 A 
HETATM   25  C   UNL     1      39.921 -13.014   5.895  1.00  0.00     0.011 A 
BRANCH  23  26
HETATM   26  N   UNL     1      39.098 -10.402   8.378  1.00  0.00    -0.314 N 
HETATM   27  C   UNL     1      39.462 -10.540   9.692  1.00  0.00     0.296 C 
HETATM   28  N   UNL     1      38.624  -9.855  10.524  1.00  0.00    -0.254 NA
HETATM   29  O   UNL     1      40.404 -11.160  10.162  1.00  0.00    -0.254 OA
HETATM   30  H   UNL     1      37.638  -9.898  10.310  1.00  0.00     0.128 HD
HETATM   31  H   UNL     1      38.839 -10.023  11.500  1.00  0.00     0.128 HD
HETATM   32  H   UNL     1      38.423  -9.674   8.200  1.00  0.00     0.170 HD
ENDBRANCH  23  26
ENDBRANCH  19  20
ENDBRANCH   2  19
TORSDOF 6
ENDMDL
MODEL 6
REMARK VINA RESULT:      -8.4      2.398      2.846
REMARK  6 active torsions:
REMARK  status: ('A' for Active; 'I' for Inactive)
REMARK    1  A    between atoms: C_4  and  C_5 
REMARK    2  A    between atoms: C_7  and  C_8 
REMARK    3  A    between atoms: C_11  and  C_12 
REMARK       I    between atoms: C_12  and  N_13 
REMARK    4  A    between atoms: N_13  and  C_14 
REMARK    5  A    between atoms: C_14  and  C_15 
REMARK    6  A    between atoms: C_18  and  N_19 
REMARK       I    between atoms: N_19  and  C_20 
REMARK       I    between atoms: C_20  and  N_21 
ROOT
HETATM    1  C   UNL     1      42.766 -14.441   3.159  1.00  0.00     0.273 C 
HETATM    2  N   UNL     1      41.456 -14.274   2.772  1.00  0.00    -0.351 N 
HETATM    3  O   UNL     1      43.596 -13.538   3.105  1.00  0.00    -0.266 OA
HETATM    4  H   UNL     1      40.816 -15.041   2.947  1.00  0.00     0.163 HD
ENDROOT
BRANCH   1   5
HETATM    5  C   UNL     1      43.059 -15.788   3.635  1.00  0.00     0.157 A 
HETATM    6  C   UNL     1      43.228 -16.213   4.940  1.00  0.00     0.094 A 
HETATM    7  O   UNL     1      43.507 -17.552   4.905  1.00  0.00    -0.293 OA
HETATM    8  C   UNL     1      43.493 -17.883   3.578  1.00  0.00     0.180 A 
HETATM    9  N   UNL     1      43.218 -16.873   2.773  1.00  0.00    -0.216 NA
BRANCH   6  10
HETATM   10  C   UNL     1      43.133 -15.405   6.221  1.00  0.00     0.046 A 
HETATM   11  C   UNL     1      43.941 -15.877   7.413  1.00  0.00     0.012 A 
HETATM   12  C   UNL     1      44.368 -14.654   6.678  1.00  0.00     0.012 A 
ENDBRANCH   6  10
BRANCH   8  13
HETATM   13  C   UNL     1      43.792 -19.275   3.252  1.00  0.00     0.017 A 
HETATM   14  C   UNL     1      44.548 -20.091   4.110  1.00  0.00     0.016 A 
HETATM   15  C   UNL     1      44.831 -21.417   3.773  1.00  0.00     0.001 A 
HETATM   16  C   UNL     1      44.363 -21.945   2.572  1.00  0.00     0.000 A 
HETATM   17  C   UNL     1      43.612 -21.151   1.708  1.00  0.00     0.001 A 
HETATM   18  C   UNL     1      43.328 -19.825   2.047  1.00  0.00     0.016 A 
ENDBRANCH   8  13
ENDBRANCH   1   5
BRANCH   2  19
HETATM   19  C   UNL     1      40.980 -12.990   2.326  1.00  0.00     0.161 C 
BRANCH  19  20
HETATM   20  C   UNL     1      41.383 -12.658   0.913  1.00  0.00    -0.040 A 
HETATM   21  C   UNL     1      42.034 -11.449   0.642  1.00  0.00     0.011 A 
HETATM   22  C   UNL     1      42.485 -11.147  -0.648  1.00  0.00     0.030 A 
HETATM   23  C   UNL     1      42.301 -12.053  -1.692  1.00  0.00     0.035 A 
HETATM   24  C   UNL     1      41.644 -13.261  -1.428  1.00  0.00     0.030 A 
HETATM   25  C   UNL     1      41.199 -13.567  -0.136  1.00  0.00     0.011 A 
BRANCH  23  26
HETATM   26  N   UNL     1      42.739 -11.823  -3.010  1.00  0.00    -0.314 N 
HETATM   27  C   UNL     1      41.985 -11.424  -4.081  1.00  0.00     0.296 C 
HETATM   28  N   UNL     1      42.726 -11.361  -5.226  1.00  0.00    -0.254 NA
HETATM   29  O   UNL     1      40.801 -11.124  -4.113  1.00  0.00    -0.254 OA
HETATM   30  H   UNL     1      43.388 -12.108  -5.379  1.00  0.00     0.128 HD
HETATM   31  H   UNL     1      42.154 -11.148  -6.036  1.00  0.00     0.128 HD
HETATM   32  H   UNL     1      43.736 -11.809  -3.164  1.00  0.00     0.170 HD
ENDBRANCH  23  26
ENDBRANCH  19  20
ENDBRANCH   2  19
TORSDOF 6
ENDMDL
MODEL 7
REMARK VINA RESULT:      -8.3      5.745     10.161
REMARK  6 active torsions:
REMARK  status: ('A' for Active; 'I' for Inactive)
REMARK    1  A    between atoms: C_4  and  C_5 
REMARK    2  A    between atoms: C_7  and  C_8 
REMARK    3  A    between atoms: C_11  and  C_12 
REMARK       I    between atoms: C_12  and  N_13 
REMARK    4  A    between atoms: N_13  and  C_14 
REMARK    5  A    between atoms: C_14  and  C_15 
REMARK    6  A    between atoms: C_18  and  N_19 
REMARK       I    between atoms: N_19  and  C_20 
REMARK       I    between atoms: C_20  and  N_21 
ROOT
HETATM    1  C   UNL     1      44.812 -13.722   6.877  1.00  0.00     0.273 C 
HETATM    2  N   UNL     1      44.307 -13.227   8.058  1.00  0.00    -0.351 N 
HETATM    3  O   UNL     1      45.949 -13.475   6.486  1.00  0.00    -0.266 OA
HETATM    4  H   UNL     1      43.397 -13.564   8.355  1.00  0.00     0.163 HD
ENDROOT
BRANCH   1   5
HETATM    5  C   UNL     1      43.865 -14.560   6.152  1.00  0.00     0.157 A 
HETATM    6  C   UNL     1      43.694 -15.929   6.245  1.00  0.00     0.094 A 
HETATM    7  O   UNL     1      42.707 -16.282   5.365  1.00  0.00    -0.293 OA
HETATM    8  C   UNL     1      42.320 -15.109   4.777  1.00  0.00     0.180 A 
HETATM    9  N   UNL     1      42.967 -14.046   5.217  1.00  0.00    -0.216 NA
BRANCH   6  10
HETATM   10  C   UNL     1      44.423 -16.919   7.134  1.00  0.00     0.046 A 
HETATM   11  C   UNL     1      43.964 -18.363   7.106  1.00  0.00     0.012 A 
HETATM   12  C   UNL     1      45.256 -17.993   6.464  1.00  0.00     0.012 A 
ENDBRANCH   6  10
BRANCH   8  13
HETATM   13  C   UNL     1      41.278 -15.206   3.758  1.00  0.00     0.017 A 
HETATM   14  C   UNL     1      40.412 -14.136   3.479  1.00  0.00     0.016 A 
HETATM   15  C   UNL     1      39.415 -14.255   2.507  1.00  0.00     0.001 A 
HETATM   16  C   UNL     1      39.270 -15.447   1.801  1.00  0.00     0.000 A 
HETATM   17  C   UNL     1      40.119 -16.519   2.064  1.00  0.00     0.001 A 
HETATM   18  C   UNL     1      41.117 -16.398   3.035  1.00  0.00     0.016 A 
ENDBRANCH   8  13
ENDBRANCH   1   5
BRANCH   2  19
HETATM   19  C   UNL     1      45.126 -12.424   8.928  1.00  0.00     0.161 C 
BRANCH  19  20
HETATM   20  C   UNL     1      44.339 -11.448   9.762  1.00  0.00    -0.040 A 
HETATM   21  C   UNL     1      43.116 -10.958   9.290  1.00  0.00     0.011 A 
HETATM   22  C   UNL     1      42.328 -10.109  10.075  1.00  0.00     0.030 A 
HETATM   23  C   UNL     1      42.744  -9.739  11.354  1.00  0.00     0.035 A 
HETATM   24  C   UNL     1      43.970 -10.220  11.829  1.00  0.00     0.030 A 
HETATM   25  C   UNL     1      44.755 -11.076  11.047  1.00  0.00     0.011 A 
BRANCH  23  26
HETATM   26  N   UNL     1      41.999  -8.900  12.204  1.00  0.00    -0.314 N 
HETATM   27  C   UNL     1      41.188  -9.274  13.242  1.00  0.00     0.296 C 
HETATM   28  N   UNL     1      40.569  -8.199  13.813  1.00  0.00    -0.254 NA
HETATM   29  O   UNL     1      40.985 -10.393  13.689  1.00  0.00    -0.254 OA
HETATM   30  H   UNL     1      40.219  -7.491  13.184  1.00  0.00     0.128 HD
HETATM   31  H   UNL     1      39.904  -8.479  14.526  1.00  0.00     0.128 HD
HETATM   32  H   UNL     1      42.185  -7.910  12.146  1.00  0.00     0.170 HD
ENDBRANCH  23  26
ENDBRANCH  19  20
ENDBRANCH   2  19
TORSDOF 6
ENDMDL
MODEL 8
REMARK VINA RESULT:      -8.2      3.227      4.196
REMARK  6 active torsions:
REMARK  status: ('A' for Active; 'I' for Inactive)
REMARK    1  A    between atoms: C_4  and  C_5 
REMARK    2  A    between atoms: C_7  and  C_8 
REMARK    3  A    between atoms: C_11  and  C_12 
REMARK       I    between atoms: C_12  and  N_13 
REMARK    4  A    between atoms: N_13  and  C_14 
REMARK    5  A    between atoms: C_14  and  C_15 
REMARK    6  A    between atoms: C_18  and  N_19 
REMARK       I    between atoms: N_19  and  C_20 
REMARK       I    between atoms: C_20  and  N_21 
ROOT
HETATM    1  C   UNL     1      41.184 -15.748   0.777  1.00  0.00     0.273 C 
HETATM    2  N   UNL     1      41.800 -15.576  -0.442  1.00  0.00    -0.351 N 
HETATM    3  O   UNL     1      40.098 -15.246   1.050  1.00  0.00    -0.266 OA
HETATM    4  H   UNL     1      42.644 -16.110  -0.618  1.00  0.00     0.163 HD
ENDROOT
BRANCH   1   5
HETATM    5  C   UNL     1      41.950 -16.582   1.697  1.00  0.00     0.157 A 
HETATM    6  C   UNL     1      42.518 -16.218   2.904  1.00  0.00     0.094 A 
HETATM    7  O   UNL     1      43.155 -17.319   3.408  1.00  0.00    -0.293 OA
HETATM    8  C   UNL     1      42.944 -18.306   2.484  1.00  0.00     0.180 A 
HETATM    9  N   UNL     1      42.219 -17.927   1.447  1.00  0.00    -0.216 NA
BRANCH   6  10
HETATM   10  C   UNL     1      42.482 -14.872   3.604  1.00  0.00     0.046 A 
HETATM   11  C   UNL     1      43.374 -14.682   4.813  1.00  0.00     0.012 A 
HETATM   12  C   UNL     1      43.721 -14.004   3.534  1.00  0.00     0.012 A 
ENDBRANCH   6  10
BRANCH   8  13
HETATM   13  C   UNL     1      43.551 -19.603   2.768  1.00  0.00     0.017 A 
HETATM   14  C   UNL     1      44.260 -19.845   3.956  1.00  0.00     0.016 A 
HETATM   15  C   UNL     1      44.841 -21.092   4.202  1.00  0.00     0.001 A 
HETATM   16  C   UNL     1      44.723 -22.113   3.263  1.00  0.00     0.000 A 
HETATM   17  C   UNL     1      44.023 -21.892   2.079  1.00  0.00     0.001 A 
HETATM   18  C   UNL     1      43.441 -20.645   1.834  1.00  0.00     0.016 A 
ENDBRANCH   8  13
ENDBRANCH   1   5
BRANCH   2  19
HETATM   19  C   UNL     1      41.158 -14.825  -1.489  1.00  0.00     0.161 C 
BRANCH  19  20
HETATM   20  C   UNL     1      41.760 -13.461  -1.706  1.00  0.00    -0.040 A 
HETATM   21  C   UNL     1      41.968 -12.992  -3.008  1.00  0.00     0.011 A 
HETATM   22  C   UNL     1      42.455 -11.701  -3.240  1.00  0.00     0.030 A 
HETATM   23  C   UNL     1      42.737 -10.849  -2.172  1.00  0.00     0.035 A 
HETATM   24  C   UNL     1      42.538 -11.315  -0.868  1.00  0.00     0.030 A 
HETATM   25  C   UNL     1      42.043 -12.604  -0.635  1.00  0.00     0.011 A 
BRANCH  23  26
HETATM   26  N   UNL     1      43.218  -9.535  -2.329  1.00  0.00    -0.314 N 
HETATM   27  C   UNL     1      42.505  -8.369  -2.229  1.00  0.00     0.296 C 
HETATM   28  N   UNL     1      43.279  -7.279  -2.504  1.00  0.00    -0.254 NA
HETATM   29  O   UNL     1      41.331  -8.215  -1.926  1.00  0.00    -0.254 OA
HETATM   30  H   UNL     1      43.922  -7.363  -3.278  1.00  0.00     0.128 HD
HETATM   31  H   UNL     1      42.736  -6.422  -2.514  1.00  0.00     0.128 HD
HETATM   32  H   UNL     1      44.218  -9.417  -2.378  1.00  0.00     0.170 HD
ENDBRANCH  23  26
ENDBRANCH  19  20
ENDBRANCH   2  19
TORSDOF 6
ENDMDL
MODEL 9
REMARK VINA RESULT:      -8.0      1.742      2.060
REMARK  6 active torsions:
REMARK  status: ('A' for Active; 'I' for Inactive)
REMARK    1  A    between atoms: C_4  and  C_5 
REMARK    2  A    between atoms: C_7  and  C_8 
REMARK    3  A    between atoms: C_11  and  C_12 
REMARK       I    between atoms: C_12  and  N_13 
REMARK    4  A    between atoms: N_13  and  C_14 
REMARK    5  A    between atoms: C_14  and  C_15 
REMARK    6  A    between atoms: C_18  and  N_19 
REMARK       I    between atoms: N_19  and  C_20 
REMARK       I    between atoms: C_20  and  N_21 
ROOT
HETATM    1  C   UNL     1      43.282 -14.506   3.089  1.00  0.00     0.273 C 
HETATM    2  N   UNL     1      42.248 -14.129   2.263  1.00  0.00    -0.351 N 
HETATM    3  O   UNL     1      44.172 -13.735   3.435  1.00  0.00    -0.266 OA
HETATM    4  H   UNL     1      41.503 -14.800   2.112  1.00  0.00     0.163 HD
ENDROOT
BRANCH   1   5
HETATM    5  C   UNL     1      43.208 -15.902   3.506  1.00  0.00     0.157 A 
HETATM    6  C   UNL     1      42.659 -16.416   4.665  1.00  0.00     0.094 A 
HETATM    7  O   UNL     1      42.834 -17.773   4.638  1.00  0.00    -0.293 OA
HETATM    8  C   UNL     1      43.481 -18.024   3.459  1.00  0.00     0.180 A 
HETATM    9  N   UNL     1      43.718 -16.945   2.735  1.00  0.00    -0.216 NA
BRANCH   6  10
HETATM   10  C   UNL     1      41.972 -15.678   5.800  1.00  0.00     0.046 A 
HETATM   11  C   UNL     1      40.647 -15.007   5.504  1.00  0.00     0.012 A 
HETATM   12  C   UNL     1      40.671 -16.246   6.329  1.00  0.00     0.012 A 
ENDBRANCH   6  10
BRANCH   8  13
HETATM   13  C   UNL     1      43.819 -19.418   3.187  1.00  0.00     0.017 A 
HETATM   14  C   UNL     1      43.457 -20.047   1.985  1.00  0.00     0.016 A 
HETATM   15  C   UNL     1      43.782 -21.386   1.750  1.00  0.00     0.001 A 
HETATM   16  C   UNL     1      44.473 -22.114   2.715  1.00  0.00     0.000 A 
HETATM   17  C   UNL     1      44.840 -21.507   3.914  1.00  0.00     0.001 A 
HETATM   18  C   UNL     1      44.516 -20.168   4.147  1.00  0.00     0.016 A 
ENDBRANCH   8  13
ENDBRANCH   1   5
BRANCH   2  19
HETATM   19  C   UNL     1      42.136 -12.770   1.800  1.00  0.00     0.161 C 
BRANCH  19  20
HETATM   20  C   UNL     1      41.249 -12.618   0.593  1.00  0.00    -0.040 A 
HETATM   21  C   UNL     1      41.343 -13.537  -0.459  1.00  0.00     0.011 A 
HETATM   22  C   UNL     1      40.481 -13.464  -1.559  1.00  0.00     0.030 A 
HETATM   23  C   UNL     1      39.501 -12.475  -1.625  1.00  0.00     0.035 A 
HETATM   24  C   UNL     1      39.407 -11.549  -0.580  1.00  0.00     0.030 A 
HETATM   25  C   UNL     1      40.264 -11.625   0.525  1.00  0.00     0.011 A 
BRANCH  23  26
HETATM   26  N   UNL     1      38.591 -12.348  -2.692  1.00  0.00    -0.314 N 
HETATM   27  C   UNL     1      38.757 -11.632  -3.848  1.00  0.00     0.296 C 
HETATM   28  N   UNL     1      37.644 -11.679  -4.637  1.00  0.00    -0.254 NA
HETATM   29  O   UNL     1      39.738 -11.009  -4.227  1.00  0.00    -0.254 OA
HETATM   30  H   UNL     1      36.753 -11.602  -4.168  1.00  0.00     0.128 HD
HETATM   31  H   UNL     1      37.731 -11.083  -5.453  1.00  0.00     0.128 HD
HETATM   32  H   UNL     1      37.788 -12.958  -2.683  1.00  0.00     0.170 HD
ENDBRANCH  23  26
ENDBRANCH  19  20
ENDBRANCH   2  19
TORSDOF 6
ENDMDL
MODEL 10
REMARK VINA RESULT:      -8.0      2.812      9.084
REMARK  6 active torsions:
REMARK  status: ('A' for Active; 'I' for Inactive)
REMARK    1  A    between atoms: C_4  and  C_5 
REMARK    2  A    between atoms: C_7  and  C_8 
REMARK    3  A    between atoms: C_11  and  C_12 
REMARK       I    between atoms: C_12  and  N_13 
REMARK    4  A    between atoms: N_13  and  C_14 
REMARK    5  A    between atoms: C_14  and  C_15 
REMARK    6  A    between atoms: C_18  and  N_19 
REMARK       I    between atoms: N_19  and  C_20 
REMARK       I    between atoms: C_20  and  N_21 
ROOT
HETATM    1  C   UNL     1      41.628 -16.885   0.631  1.00  0.00     0.273 C 
HETATM    2  N   UNL     1      42.991 -17.052   0.712  1.00  0.00    -0.351 N 
HETATM    3  O   UNL     1      40.831 -17.771   0.928  1.00  0.00    -0.266 OA
HETATM    4  H   UNL     1      43.572 -16.237   0.546  1.00  0.00     0.163 HD
ENDROOT
BRANCH   1   5
HETATM    5  C   UNL     1      41.236 -15.561   0.162  1.00  0.00     0.157 A 
HETATM    6  C   UNL     1      40.351 -14.677   0.750  1.00  0.00     0.094 A 
HETATM    7  O   UNL     1      40.279 -13.571  -0.052  1.00  0.00    -0.293 OA
HETATM    8  C   UNL     1      41.127 -13.832  -1.093  1.00  0.00     0.180 A 
HETATM    9  N   UNL     1      41.736 -15.000  -1.012  1.00  0.00    -0.216 NA
BRANCH   6  10
HETATM   10  C   UNL     1      39.571 -14.832   2.043  1.00  0.00     0.046 A 
HETATM   11  C   UNL     1      40.358 -15.049   3.319  1.00  0.00     0.012 A 
HETATM   12  C   UNL     1      39.696 -13.736   3.082  1.00  0.00     0.012 A 
ENDBRANCH   6  10
BRANCH   8  13
HETATM   13  C   UNL     1      41.220 -12.805  -2.128  1.00  0.00     0.017 A 
HETATM   14  C   UNL     1      42.337 -11.960  -2.234  1.00  0.00     0.016 A 
HETATM   15  C   UNL     1      42.400 -10.978  -3.226  1.00  0.00     0.001 A 
HETATM   16  C   UNL     1      41.347 -10.827  -4.125  1.00  0.00     0.000 A 
HETATM   17  C   UNL     1      40.231 -11.656  -4.035  1.00  0.00     0.001 A 
HETATM   18  C   UNL     1      40.170 -12.639  -3.043  1.00  0.00     0.016 A 
ENDBRANCH   8  13
ENDBRANCH   1   5
BRANCH   2  19
HETATM   19  C   UNL     1      43.553 -18.282   1.208  1.00  0.00     0.161 C 
BRANCH  19  20
HETATM   20  C   UNL     1      43.805 -18.272   2.692  1.00  0.00    -0.040 A 
HETATM   21  C   UNL     1      43.569 -17.105   3.429  1.00  0.00     0.011 A 
HETATM   22  C   UNL     1      43.723 -17.088   4.820  1.00  0.00     0.030 A 
HETATM   23  C   UNL     1      44.108 -18.240   5.504  1.00  0.00     0.035 A 
HETATM   24  C   UNL     1      44.352 -19.408   4.771  1.00  0.00     0.030 A 
HETATM   25  C   UNL     1      44.191 -19.428   3.381  1.00  0.00     0.011 A 
BRANCH  23  26
HETATM   26  N   UNL     1      44.270 -18.301   6.901  1.00  0.00    -0.314 N 
HETATM   27  C   UNL     1      43.430 -17.802   7.860  1.00  0.00     0.296 C 
HETATM   28  N   UNL     1      43.932 -17.984   9.117  1.00  0.00    -0.254 NA
HETATM   29  O   UNL     1      42.344 -17.260   7.718  1.00  0.00    -0.254 OA
HETATM   30  H   UNL     1      44.921 -17.821   9.238  1.00  0.00     0.128 HD
HETATM   31  H   UNL     1      43.354 -17.542   9.824  1.00  0.00     0.128 HD
HETATM   32  H   UNL     1      45.005 -18.897   7.250  1.00  0.00     0.170 HD
ENDBRANCH  23  26
ENDBRANCH  19  20
ENDBRANCH   2  19
TORSDOF 6
ENDMDL
