MODEL 1
REMARK VINA RESULT:      -9.7      0.000      0.000
REMARK  8 active torsions:
REMARK  status: ('A' for Active; 'I' for Inactive)
REMARK    1  A    between atoms: C_4  and  S_5 
REMARK    2  A    between atoms: S_5  and  C_6 
REMARK    3  A    between atoms: C_6  and  C_7 
REMARK       I    between atoms: C_7  and  N_8 
REMARK    4  A    between atoms: N_8  and  C_9 
REMARK    5  A    between atoms: C_20  and  C_21 
REMARK    6  A    between atoms: C_27  and  C_28 
REMARK       I    between atoms: C_28  and  N_29 
REMARK    7  A    between atoms: N_29  and  C_30 
REMARK    8  A    between atoms: C_31  and  O_32 
ROOT
HETATM    1  C   UNL     1      44.291 -15.756   6.472  1.00  0.00     0.069 C 
HETATM    2  C   UNL     1      43.090 -15.023   5.920  1.00  0.00     0.019 C 
HETATM    3  N   UNL     1      42.948 -13.711   6.340  1.00  0.00    -0.353 N 
HETATM    4  C   UNL     1      41.835 -12.923   6.124  1.00  0.00     0.087 C 
HETATM    5  C   UNL     1      40.866 -13.383   5.296  1.00  0.00     0.055 C 
HETATM    6  C   UNL     1      39.543 -12.653   5.134  1.00  0.00     0.019 C 
HETATM    7  N   UNL     1      38.445 -12.047   5.001  1.00  0.00    -0.096 N 
HETATM    8  C   UNL     1      41.089 -14.653   4.477  1.00  0.00     0.104 C 
HETATM    9  C   UNL     1      42.202 -15.543   5.034  1.00  0.00     0.046 C 
HETATM   10  H   UNL     1      43.627 -13.344   7.001  1.00  0.00     0.166 HD
ENDROOT
BRANCH   4  11
HETATM   11  S   UNL     1      41.793 -11.305   6.782  1.00  0.00    -0.102 SA
BRANCH  11  12
HETATM   12  C   UNL     1      42.999 -11.383   8.144  1.00  0.00     0.184 C 
BRANCH  12  13
HETATM   13  C   UNL     1      42.530 -10.629   9.398  1.00  0.00     0.231 C 
HETATM   14  N   UNL     1      42.864 -11.225  10.599  1.00  0.00    -0.327 N 
HETATM   15  H   UNL     1      43.385 -12.093  10.513  1.00  0.00     0.169 HD
HETATM   16  O   UNL     1      41.878  -9.595   9.273  1.00  0.00    -0.272 OA
BRANCH  14  17
HETATM   17  C   UNL     1      42.618 -10.778  11.909  1.00  0.00     0.034 A 
HETATM   18  C   UNL     1      41.493 -11.126  12.658  1.00  0.00     0.031 A 
HETATM   19  C   UNL     1      41.322 -10.621  13.953  1.00  0.00     0.026 A 
HETATM   20  C   UNL     1      42.278  -9.771  14.503  1.00  0.00     0.034 A 
HETATM   21 CL   UNL     1      42.067  -9.153  16.094  1.00  0.00    -0.084 Cl
HETATM   22  C   UNL     1      43.406  -9.417  13.768  1.00  0.00     0.026 A 
HETATM   23  C   UNL     1      43.573  -9.918  12.474  1.00  0.00     0.031 A 
ENDBRANCH  14  17
ENDBRANCH  12  13
ENDBRANCH  11  12
ENDBRANCH   4  11
BRANCH   8  24
HETATM   24  C   UNL     1      41.351 -14.236   3.020  1.00  0.00    -0.044 A 
HETATM   25  C   UNL     1      42.131 -13.104   2.711  1.00  0.00     0.008 A 
HETATM   26  C   UNL     1      42.314 -12.697   1.390  1.00  0.00     0.001 A 
HETATM   27  C   UNL     1      41.709 -13.405   0.355  1.00  0.00     0.000 A 
HETATM   28  C   UNL     1      40.924 -14.520   0.642  1.00  0.00     0.001 A 
HETATM   29  C   UNL     1      40.742 -14.935   1.964  1.00  0.00     0.008 A 
ENDBRANCH   8  24
BRANCH   9  30
HETATM   30  C   UNL     1      42.289 -16.992   4.641  1.00  0.00     0.255 C 
HETATM   31  N   UNL     1      43.325 -17.326   3.795  1.00  0.00    -0.321 N 
HETATM   32  H   UNL     1      43.771 -16.612   3.242  1.00  0.00     0.169 HD
HETATM   33  O   UNL     1      41.400 -17.770   4.980  1.00  0.00    -0.268 OA
BRANCH  31  34
HETATM   34  C   UNL     1      43.691 -18.656   3.479  1.00  0.00     0.068 A 
HETATM   35  C   UNL     1      44.396 -19.495   4.367  1.00  0.00     0.095 A 
HETATM   36  C   UNL     1      44.678 -20.810   3.977  1.00  0.00     0.039 A 
HETATM   37  C   UNL     1      44.302 -21.273   2.713  1.00  0.00     0.003 A 
HETATM   38  C   UNL     1      43.665 -20.420   1.816  1.00  0.00     0.002 A 
HETATM   39  C   UNL     1      43.376 -19.109   2.191  1.00  0.00     0.032 A 
BRANCH  35  40
HETATM   40  O   UNL     1      44.864 -18.921   5.522  1.00  0.00    -0.354 OA
HETATM   41  C   UNL     1      44.282 -19.330   6.749  1.00  0.00     0.210 C 
ENDBRANCH  35  40
ENDBRANCH  31  34
ENDBRANCH   9  30
TORSDOF 8
ENDMDL
MODEL 2
REMARK VINA RESULT:      -9.5      0.739      1.485
REMARK  8 active torsions:
REMARK  status: ('A' for Active; 'I' for Inactive)
REMARK    1  A    between atoms: C_4  and  S_5 
REMARK    2  A    between atoms: S_5  and  C_6 
REMARK    3  A    between atoms: C_6  and  C_7 
REMARK       I    between atoms: C_7  and  N_8 
REMARK    4  A    between atoms: N_8  and  C_9 
REMARK    5  A    between atoms: C_20  and  C_21 
REMARK    6  A    between atoms: C_27  and  C_28 
REMARK       I    between atoms: C_28  and  N_29 
REMARK    7  A    between atoms: N_29  and  C_30 
REMARK    8  A    between atoms: C_31  and  O_32 
ROOT
HETATM    1  C   UNL     1      44.291 -15.777   6.606  1.00  0.00     0.069 C 
HETATM    2  C   UNL     1      43.106 -15.038   6.030  1.00  0.00     0.019 C 
HETATM    3  N   UNL     1      42.960 -13.727   6.452  1.00  0.00    -0.353 N 
HETATM    4  C   UNL     1      41.855 -12.934   6.215  1.00  0.00     0.087 C 
HETATM    5  C   UNL     1      40.904 -13.386   5.363  1.00  0.00     0.055 C 
HETATM    6  C   UNL     1      39.587 -12.650   5.175  1.00  0.00     0.019 C 
HETATM    7  N   UNL     1      38.495 -12.039   5.019  1.00  0.00    -0.096 N 
HETATM    8  C   UNL     1      41.140 -14.653   4.544  1.00  0.00     0.104 C 
HETATM    9  C   UNL     1      42.236 -15.551   5.122  1.00  0.00     0.046 C 
HETATM   10  H   UNL     1      43.625 -13.365   7.130  1.00  0.00     0.166 HD
ENDROOT
BRANCH   4  11
HETATM   11  S   UNL     1      41.804 -11.318   6.879  1.00  0.00    -0.102 SA
BRANCH  11  12
HETATM   12  C   UNL     1      43.023 -11.390   8.231  1.00  0.00     0.184 C 
BRANCH  12  13
HETATM   13  C   UNL     1      42.577 -10.609   9.476  1.00  0.00     0.231 C 
HETATM   14  N   UNL     1      42.848 -11.225  10.682  1.00  0.00    -0.327 N 
HETATM   15  H   UNL     1      43.315 -12.124  10.605  1.00  0.00     0.169 HD
HETATM   16  O   UNL     1      41.992  -9.536   9.339  1.00  0.00    -0.272 OA
BRANCH  14  17
HETATM   17  C   UNL     1      42.605 -10.764  11.988  1.00  0.00     0.034 A 
HETATM   18  C   UNL     1      41.487 -11.113  12.747  1.00  0.00     0.031 A 
HETATM   19  C   UNL     1      41.317 -10.593  14.036  1.00  0.00     0.026 A 
HETATM   20  C   UNL     1      42.267  -9.727  14.571  1.00  0.00     0.034 A 
HETATM   21 CL   UNL     1      42.058  -9.091  16.154  1.00  0.00    -0.084 Cl
HETATM   22  C   UNL     1      43.388  -9.371  13.826  1.00  0.00     0.026 A 
HETATM   23  C   UNL     1      43.553  -9.887  12.537  1.00  0.00     0.031 A 
ENDBRANCH  14  17
ENDBRANCH  12  13
ENDBRANCH  11  12
ENDBRANCH   4  11
BRANCH   8  24
HETATM   24  C   UNL     1      41.436 -14.231   3.095  1.00  0.00    -0.044 A 
HETATM   25  C   UNL     1      42.055 -12.999   2.804  1.00  0.00     0.008 A 
HETATM   26  C   UNL     1      42.265 -12.597   1.485  1.00  0.00     0.001 A 
HETATM   27  C   UNL     1      41.849 -13.410   0.435  1.00  0.00     0.000 A 
HETATM   28  C   UNL     1      41.224 -14.626   0.704  1.00  0.00     0.001 A 
HETATM   29  C   UNL     1      41.016 -15.037   2.023  1.00  0.00     0.008 A 
ENDBRANCH   8  24
BRANCH   9  30
HETATM   30  C   UNL     1      42.326 -16.998   4.725  1.00  0.00     0.255 C 
HETATM   31  N   UNL     1      43.465 -17.365   4.040  1.00  0.00    -0.321 N 
HETATM   32  H   UNL     1      44.016 -16.665   3.571  1.00  0.00     0.169 HD
HETATM   33  O   UNL     1      41.367 -17.743   4.914  1.00  0.00    -0.268 OA
BRANCH  31  34
HETATM   34  C   UNL     1      43.824 -18.706   3.763  1.00  0.00     0.068 A 
HETATM   35  C   UNL     1      43.594 -19.326   2.518  1.00  0.00     0.095 A 
HETATM   36  C   UNL     1      44.022 -20.646   2.328  1.00  0.00     0.039 A 
HETATM   37  C   UNL     1      44.633 -21.352   3.369  1.00  0.00     0.003 A 
HETATM   38  C   UNL     1      44.797 -20.756   4.616  1.00  0.00     0.002 A 
HETATM   39  C   UNL     1      44.378 -19.442   4.818  1.00  0.00     0.032 A 
BRANCH  35  40
HETATM   40  O   UNL     1      42.854 -18.622   1.602  1.00  0.00    -0.354 OA
HETATM   41  C   UNL     1      43.519 -17.644   0.820  1.00  0.00     0.210 C 
ENDBRANCH  35  40
ENDBRANCH  31  34
ENDBRANCH   9  30
TORSDOF 8
ENDMDL
MODEL 3
REMARK VINA RESULT:      -9.3      6.408      8.946
REMARK  8 active torsions:
REMARK  status: ('A' for Active; 'I' for Inactive)
REMARK    1  A    between atoms: C_4  and  S_5 
REMARK    2  A    between atoms: S_5  and  C_6 
REMARK    3  A    between atoms: C_6  and  C_7 
REMARK       I    between atoms: C_7  and  N_8 
REMARK    4  A    between atoms: N_8  and  C_9 
REMARK    5  A    between atoms: C_20  and  C_21 
REMARK    6  A    between atoms: C_27  and  C_28 
REMARK       I    between atoms: C_28  and  N_29 
REMARK    7  A    between atoms: N_29  and  C_30 
REMARK    8  A    between atoms: C_31  and  O_32 
ROOT
HETATM    1  C   UNL     1      43.759 -14.030   3.668  1.00  0.00     0.069 C 
HETATM    2  C   UNL     1      42.483 -14.173   2.872  1.00  0.00     0.019 C 
HETATM    3  N   UNL     1      41.610 -13.100   2.949  1.00  0.00    -0.353 N 
HETATM    4  C   UNL     1      40.315 -13.094   2.470  1.00  0.00     0.087 C 
HETATM    5  C   UNL     1      39.898 -14.138   1.714  1.00  0.00     0.055 C 
HETATM    6  C   UNL     1      38.446 -14.284   1.287  1.00  0.00     0.019 C 
HETATM    7  N   UNL     1      37.242 -14.405   0.933  1.00  0.00    -0.096 N 
HETATM    8  C   UNL     1      40.893 -15.198   1.246  1.00  0.00     0.104 C 
HETATM    9  C   UNL     1      42.176 -15.232   2.079  1.00  0.00     0.046 C 
HETATM   10  H   UNL     1      41.863 -12.319   3.546  1.00  0.00     0.166 HD
ENDROOT
BRANCH   4  11
HETATM   11  S   UNL     1      39.322 -11.676   2.711  1.00  0.00    -0.102 SA
BRANCH  11  12
HETATM   12  C   UNL     1      39.506 -10.773   1.140  1.00  0.00     0.184 C 
BRANCH  12  13
HETATM   13  C   UNL     1      38.391 -11.095   0.134  1.00  0.00     0.231 C 
HETATM   14  N   UNL     1      38.804 -11.752  -1.009  1.00  0.00    -0.327 N 
HETATM   15  H   UNL     1      39.800 -11.949  -1.050  1.00  0.00     0.169 HD
HETATM   16  O   UNL     1      37.240 -10.735   0.372  1.00  0.00    -0.272 OA
BRANCH  14  17
HETATM   17  C   UNL     1      38.037 -12.215  -2.093  1.00  0.00     0.034 A 
HETATM   18  C   UNL     1      37.195 -11.408  -2.859  1.00  0.00     0.031 A 
HETATM   19  C   UNL     1      36.454 -11.958  -3.912  1.00  0.00     0.026 A 
HETATM   20  C   UNL     1      36.557 -13.315  -4.205  1.00  0.00     0.034 A 
HETATM   21 CL   UNL     1      35.649 -13.988  -5.499  1.00  0.00    -0.084 Cl
HETATM   22  C   UNL     1      37.395 -14.132  -3.450  1.00  0.00     0.026 A 
HETATM   23  C   UNL     1      38.130 -13.582  -2.396  1.00  0.00     0.031 A 
ENDBRANCH  14  17
ENDBRANCH  12  13
ENDBRANCH  11  12
ENDBRANCH   4  11
BRANCH   8  24
HETATM   24  C   UNL     1      41.174 -14.958  -0.247  1.00  0.00    -0.044 A 
HETATM   25  C   UNL     1      41.706 -13.736  -0.703  1.00  0.00     0.008 A 
HETATM   26  C   UNL     1      41.902 -13.503  -2.065  1.00  0.00     0.001 A 
HETATM   27  C   UNL     1      41.556 -14.480  -2.994  1.00  0.00     0.000 A 
HETATM   28  C   UNL     1      41.017 -15.690  -2.561  1.00  0.00     0.001 A 
HETATM   29  C   UNL     1      40.824 -15.930  -1.198  1.00  0.00     0.008 A 
ENDBRANCH   8  24
BRANCH   9  30
HETATM   30  C   UNL     1      43.068 -16.442   2.058  1.00  0.00     0.255 C 
HETATM   31  N   UNL     1      42.742 -17.446   2.946  1.00  0.00    -0.321 N 
HETATM   32  H   UNL     1      42.167 -17.241   3.746  1.00  0.00     0.169 HD
HETATM   33  O   UNL     1      44.082 -16.441   1.363  1.00  0.00    -0.268 OA
BRANCH  31  34
HETATM   34  C   UNL     1      43.331 -18.733   2.935  1.00  0.00     0.068 A 
HETATM   35  C   UNL     1      44.178 -19.204   3.960  1.00  0.00     0.095 A 
HETATM   36  C   UNL     1      44.680 -20.509   3.878  1.00  0.00     0.039 A 
HETATM   37  C   UNL     1      44.379 -21.319   2.779  1.00  0.00     0.003 A 
HETATM   38  C   UNL     1      43.596 -20.826   1.739  1.00  0.00     0.002 A 
HETATM   39  C   UNL     1      43.088 -19.530   1.809  1.00  0.00     0.032 A 
BRANCH  35  40
HETATM   40  O   UNL     1      44.550 -18.299   4.921  1.00  0.00    -0.354 OA
HETATM   41  C   UNL     1      44.724 -18.773   6.247  1.00  0.00     0.210 C 
ENDBRANCH  35  40
ENDBRANCH  31  34
ENDBRANCH   9  30
TORSDOF 8
ENDMDL
MODEL 4
REMARK VINA RESULT:      -9.3      2.641      3.758
REMARK  8 active torsions:
REMARK  status: ('A' for Active; 'I' for Inactive)
REMARK    1  A    between atoms: C_4  and  S_5 
REMARK    2  A    between atoms: S_5  and  C_6 
REMARK    3  A    between atoms: C_6  and  C_7 
REMARK       I    between atoms: C_7  and  N_8 
REMARK    4  A    between atoms: N_8  and  C_9 
REMARK    5  A    between atoms: C_20  and  C_21 
REMARK    6  A    between atoms: C_27  and  C_28 
REMARK       I    between atoms: C_28  and  N_29 
REMARK    7  A    between atoms: N_29  and  C_30 
REMARK    8  A    between atoms: C_31  and  O_32 
ROOT
HETATM    1  C   UNL     1      43.970 -14.078   3.687  1.00  0.00     0.069 C 
HETATM    2  C   UNL     1      42.684 -14.160   2.898  1.00  0.00     0.019 C 
HETATM    3  N   UNL     1      41.857 -13.052   2.991  1.00  0.00    -0.353 N 
HETATM    4  C   UNL     1      40.560 -12.988   2.521  1.00  0.00     0.087 C 
HETATM    5  C   UNL     1      40.096 -14.005   1.758  1.00  0.00     0.055 C 
HETATM    6  C   UNL     1      38.637 -14.087   1.340  1.00  0.00     0.019 C 
HETATM    7  N   UNL     1      37.426 -14.154   0.993  1.00  0.00    -0.096 N 
HETATM    8  C   UNL     1      41.042 -15.102   1.274  1.00  0.00     0.104 C 
HETATM    9  C   UNL     1      42.328 -15.197   2.098  1.00  0.00     0.046 C 
HETATM   10  H   UNL     1      42.147 -12.288   3.594  1.00  0.00     0.166 HD
ENDROOT
BRANCH   4  11
HETATM   11  S   UNL     1      39.629 -11.531   2.782  1.00  0.00    -0.102 SA
BRANCH  11  12
HETATM   12  C   UNL     1      38.677 -11.915   4.285  1.00  0.00     0.184 C 
BRANCH  12  13
HETATM   13  C   UNL     1      39.568 -12.107   5.521  1.00  0.00     0.231 C 
HETATM   14  N   UNL     1      39.677 -11.000   6.342  1.00  0.00    -0.327 N 
HETATM   15  H   UNL     1      39.151 -10.188   6.034  1.00  0.00     0.169 HD
HETATM   16  O   UNL     1      40.144 -13.179   5.691  1.00  0.00    -0.272 OA
BRANCH  14  17
HETATM   17  C   UNL     1      40.377 -10.860   7.554  1.00  0.00     0.034 A 
HETATM   18  C   UNL     1      41.743 -10.588   7.643  1.00  0.00     0.031 A 
HETATM   19  C   UNL     1      42.362 -10.480   8.895  1.00  0.00     0.026 A 
HETATM   20  C   UNL     1      41.616 -10.640  10.059  1.00  0.00     0.034 A 
HETATM   21 CL   UNL     1      42.377 -10.506  11.595  1.00  0.00    -0.084 Cl
HETATM   22  C   UNL     1      40.252 -10.911   9.985  1.00  0.00     0.026 A 
HETATM   23  C   UNL     1      39.637 -11.023   8.735  1.00  0.00     0.031 A 
ENDBRANCH  14  17
ENDBRANCH  12  13
ENDBRANCH  11  12
ENDBRANCH   4  11
BRANCH   8  24
HETATM   24  C   UNL     1      41.324 -14.859  -0.219  1.00  0.00    -0.044 A 
HETATM   25  C   UNL     1      41.871 -13.642  -0.671  1.00  0.00     0.008 A 
HETATM   26  C   UNL     1      42.067 -13.406  -2.032  1.00  0.00     0.001 A 
HETATM   27  C   UNL     1      41.707 -14.375  -2.964  1.00  0.00     0.000 A 
HETATM   28  C   UNL     1      41.153 -15.579  -2.536  1.00  0.00     0.001 A 
HETATM   29  C   UNL     1      40.959 -15.823  -1.174  1.00  0.00     0.008 A 
ENDBRANCH   8  24
BRANCH   9  30
HETATM   30  C   UNL     1      43.169 -16.443   2.060  1.00  0.00     0.255 C 
HETATM   31  N   UNL     1      42.857 -17.410   2.993  1.00  0.00    -0.321 N 
HETATM   32  H   UNL     1      42.338 -17.160   3.819  1.00  0.00     0.169 HD
HETATM   33  O   UNL     1      44.139 -16.502   1.307  1.00  0.00    -0.268 OA
BRANCH  31  34
HETATM   34  C   UNL     1      43.392 -18.719   2.984  1.00  0.00     0.068 A 
HETATM   35  C   UNL     1      44.237 -19.215   3.999  1.00  0.00     0.095 A 
HETATM   36  C   UNL     1      44.684 -20.540   3.921  1.00  0.00     0.039 A 
HETATM   37  C   UNL     1      44.332 -21.347   2.836  1.00  0.00     0.003 A 
HETATM   38  C   UNL     1      43.552 -20.832   1.804  1.00  0.00     0.002 A 
HETATM   39  C   UNL     1      43.098 -19.515   1.870  1.00  0.00     0.032 A 
BRANCH  35  40
HETATM   40  O   UNL     1      44.662 -18.318   4.946  1.00  0.00    -0.354 OA
HETATM   41  C   UNL     1      44.769 -18.769   6.286  1.00  0.00     0.210 C 
ENDBRANCH  35  40
ENDBRANCH  31  34
ENDBRANCH   9  30
TORSDOF 8
ENDMDL
MODEL 5
REMARK VINA RESULT:      -9.3      3.827      9.289
REMARK  8 active torsions:
REMARK  status: ('A' for Active; 'I' for Inactive)
REMARK    1  A    between atoms: C_4  and  S_5 
REMARK    2  A    between atoms: S_5  and  C_6 
REMARK    3  A    between atoms: C_6  and  C_7 
REMARK       I    between atoms: C_7  and  N_8 
REMARK    4  A    between atoms: N_8  and  C_9 
REMARK    5  A    between atoms: C_20  and  C_21 
REMARK    6  A    between atoms: C_27  and  C_28 
REMARK       I    between atoms: C_28  and  N_29 
REMARK    7  A    between atoms: N_29  and  C_30 
REMARK    8  A    between atoms: C_31  and  O_32 
ROOT
HETATM    1  C   UNL     1      42.941 -16.285   6.536  1.00  0.00     0.069 C 
HETATM    2  C   UNL     1      42.656 -15.293   5.433  1.00  0.00     0.019 C 
HETATM    3  N   UNL     1      41.979 -15.801   4.336  1.00  0.00    -0.353 N 
HETATM    4  C   UNL     1      41.789 -15.135   3.142  1.00  0.00     0.087 C 
HETATM    5  C   UNL     1      42.126 -13.825   3.069  1.00  0.00     0.055 C 
HETATM    6  C   UNL     1      42.099 -13.067   1.752  1.00  0.00     0.019 C 
HETATM    7  N   UNL     1      42.077 -12.439   0.658  1.00  0.00    -0.096 N 
HETATM    8  C   UNL     1      42.528 -13.060   4.328  1.00  0.00     0.104 C 
HETATM    9  C   UNL     1      42.970 -13.972   5.474  1.00  0.00     0.046 C 
HETATM   10  H   UNL     1      41.752 -16.792   4.330  1.00  0.00     0.166 HD
ENDROOT
BRANCH   4  11
HETATM   11  S   UNL     1      40.969 -15.950   1.831  1.00  0.00    -0.102 SA
BRANCH  11  12
HETATM   12  C   UNL     1      42.331 -16.387   0.702  1.00  0.00     0.184 C 
BRANCH  12  13
HETATM   13  C   UNL     1      43.356 -17.332   1.346  1.00  0.00     0.231 C 
HETATM   14  N   UNL     1      42.816 -18.376   2.072  1.00  0.00    -0.327 N 
HETATM   15  H   UNL     1      41.801 -18.400   2.092  1.00  0.00     0.169 HD
HETATM   16  O   UNL     1      44.557 -17.099   1.219  1.00  0.00    -0.272 OA
BRANCH  14  17
HETATM   17  C   UNL     1      43.473 -19.422   2.745  1.00  0.00     0.034 A 
HETATM   18  C   UNL     1      43.792 -20.650   2.163  1.00  0.00     0.031 A 
HETATM   19  C   UNL     1      44.435 -21.642   2.914  1.00  0.00     0.026 A 
HETATM   20  C   UNL     1      44.764 -21.407   4.246  1.00  0.00     0.034 A 
HETATM   21 CL   UNL     1      45.554 -22.625   5.166  1.00  0.00    -0.084 Cl
HETATM   22  C   UNL     1      44.453 -20.186   4.839  1.00  0.00     0.026 A 
HETATM   23  C   UNL     1      43.807 -19.198   4.089  1.00  0.00     0.031 A 
ENDBRANCH  14  17
ENDBRANCH  12  13
ENDBRANCH  11  12
ENDBRANCH   4  11
BRANCH   8  24
HETATM   24  C   UNL     1      41.351 -12.154   4.726  1.00  0.00    -0.044 A 
HETATM   25  C   UNL     1      40.084 -12.691   5.030  1.00  0.00     0.008 A 
HETATM   26  C   UNL     1      39.006 -11.859   5.332  1.00  0.00     0.001 A 
HETATM   27  C   UNL     1      39.171 -10.477   5.322  1.00  0.00     0.000 A 
HETATM   28  C   UNL     1      40.413  -9.927   5.011  1.00  0.00     0.001 A 
HETATM   29  C   UNL     1      41.497 -10.757   4.714  1.00  0.00     0.008 A 
ENDBRANCH   8  24
BRANCH   9  30
HETATM   30  C   UNL     1      43.785 -13.426   6.614  1.00  0.00     0.255 C 
HETATM   31  N   UNL     1      43.184 -12.436   7.363  1.00  0.00    -0.321 N 
HETATM   32  H   UNL     1      42.416 -11.912   6.977  1.00  0.00     0.169 HD
HETATM   33  O   UNL     1      44.952 -13.784   6.756  1.00  0.00    -0.268 OA
BRANCH  31  34
HETATM   34  C   UNL     1      43.702 -11.946   8.585  1.00  0.00     0.068 A 
HETATM   35  C   UNL     1      43.272 -10.741   9.179  1.00  0.00     0.095 A 
HETATM   36  C   UNL     1      43.816 -10.360  10.412  1.00  0.00     0.039 A 
HETATM   37  C   UNL     1      44.799 -11.142  11.026  1.00  0.00     0.003 A 
HETATM   38  C   UNL     1      45.267 -12.295  10.404  1.00  0.00     0.002 A 
HETATM   39  C   UNL     1      44.732 -12.688   9.178  1.00  0.00     0.032 A 
BRANCH  35  40
HETATM   40  O   UNL     1      42.422  -9.956   8.442  1.00  0.00    -0.354 OA
HETATM   41  C   UNL     1      41.072  -9.859   8.865  1.00  0.00     0.210 C 
ENDBRANCH  35  40
ENDBRANCH  31  34
ENDBRANCH   9  30
TORSDOF 8
ENDMDL
MODEL 6
REMARK VINA RESULT:      -9.1      5.957      7.691
REMARK  8 active torsions:
REMARK  status: ('A' for Active; 'I' for Inactive)
REMARK    1  A    between atoms: C_4  and  S_5 
REMARK    2  A    between atoms: S_5  and  C_6 
REMARK    3  A    between atoms: C_6  and  C_7 
REMARK       I    between atoms: C_7  and  N_8 
REMARK    4  A    between atoms: N_8  and  C_9 
REMARK    5  A    between atoms: C_20  and  C_21 
REMARK    6  A    between atoms: C_27  and  C_28 
REMARK       I    between atoms: C_28  and  N_29 
REMARK    7  A    between atoms: N_29  and  C_30 
REMARK    8  A    between atoms: C_31  and  O_32 
ROOT
HETATM    1  C   UNL     1      43.619 -14.342   4.031  1.00  0.00     0.069 C 
HETATM    2  C   UNL     1      42.386 -14.407   3.160  1.00  0.00     0.019 C 
HETATM    3  N   UNL     1      41.507 -13.344   3.291  1.00  0.00    -0.353 N 
HETATM    4  C   UNL     1      40.239 -13.291   2.749  1.00  0.00     0.087 C 
HETATM    5  C   UNL     1      39.865 -14.257   1.877  1.00  0.00     0.055 C 
HETATM    6  C   UNL     1      38.438 -14.360   1.363  1.00  0.00     0.019 C 
HETATM    7  N   UNL     1      37.254 -14.445   0.938  1.00  0.00    -0.096 N 
HETATM    8  C   UNL     1      40.886 -15.271   1.364  1.00  0.00     0.104 C 
HETATM    9  C   UNL     1      42.124 -15.386   2.256  1.00  0.00     0.046 C 
HETATM   10  H   UNL     1      41.727 -12.623   3.972  1.00  0.00     0.166 HD
ENDROOT
BRANCH   4  11
HETATM   11  S   UNL     1      39.231 -11.899   3.070  1.00  0.00    -0.102 SA
BRANCH  11  12
HETATM   12  C   UNL     1      40.441 -10.556   3.288  1.00  0.00     0.184 C 
BRANCH  12  13
HETATM   13  C   UNL     1      40.676  -9.752   2.000  1.00  0.00     0.231 C 
HETATM   14  N   UNL     1      41.438 -10.393   1.041  1.00  0.00    -0.327 N 
HETATM   15  H   UNL     1      41.751 -11.324   1.299  1.00  0.00     0.169 HD
HETATM   16  O   UNL     1      40.224  -8.613   1.907  1.00  0.00    -0.272 OA
BRANCH  14  17
HETATM   17  C   UNL     1      41.800  -9.952  -0.244  1.00  0.00     0.034 A 
HETATM   18  C   UNL     1      43.097  -9.591  -0.613  1.00  0.00     0.031 A 
HETATM   19  C   UNL     1      43.365  -9.148  -1.914  1.00  0.00     0.026 A 
HETATM   20  C   UNL     1      42.337  -9.068  -2.850  1.00  0.00     0.034 A 
HETATM   21 CL   UNL     1      42.668  -8.525  -4.447  1.00  0.00    -0.084 Cl
HETATM   22  C   UNL     1      41.039  -9.426  -2.496  1.00  0.00     0.026 A 
HETATM   23  C   UNL     1      40.773  -9.864  -1.196  1.00  0.00     0.031 A 
ENDBRANCH  14  17
ENDBRANCH  12  13
ENDBRANCH  11  12
ENDBRANCH   4  11
BRANCH   8  24
HETATM   24  C   UNL     1      41.243 -14.892  -0.083  1.00  0.00    -0.044 A 
HETATM   25  C   UNL     1      41.860 -13.661  -0.386  1.00  0.00     0.008 A 
HETATM   26  C   UNL     1      42.126 -13.298  -1.706  1.00  0.00     0.001 A 
HETATM   27  C   UNL     1      41.769 -14.151  -2.747  1.00  0.00     0.000 A 
HETATM   28  C   UNL     1      41.148 -15.366  -2.467  1.00  0.00     0.001 A 
HETATM   29  C   UNL     1      40.884 -15.737  -1.146  1.00  0.00     0.008 A 
ENDBRANCH   8  24
BRANCH   9  30
HETATM   30  C   UNL     1      43.020 -16.590   2.167  1.00  0.00     0.255 C 
HETATM   31  N   UNL     1      42.758 -17.603   3.067  1.00  0.00    -0.321 N 
HETATM   32  H   UNL     1      42.235 -17.406   3.904  1.00  0.00     0.169 HD
HETATM   33  O   UNL     1      43.986 -16.578   1.408  1.00  0.00    -0.268 OA
BRANCH  31  34
HETATM   34  C   UNL     1      43.352 -18.886   3.008  1.00  0.00     0.068 A 
HETATM   35  C   UNL     1      44.263 -19.361   3.973  1.00  0.00     0.095 A 
HETATM   36  C   UNL     1      44.767 -20.662   3.849  1.00  0.00     0.039 A 
HETATM   37  C   UNL     1      44.403 -21.464   2.763  1.00  0.00     0.003 A 
HETATM   38  C   UNL     1      43.555 -20.966   1.779  1.00  0.00     0.002 A 
HETATM   39  C   UNL     1      43.044 -19.674   1.891  1.00  0.00     0.032 A 
BRANCH  35  40
HETATM   40  O   UNL     1      44.690 -18.462   4.918  1.00  0.00    -0.354 OA
HETATM   41  C   UNL     1      44.560 -18.823   6.284  1.00  0.00     0.210 C 
ENDBRANCH  35  40
ENDBRANCH  31  34
ENDBRANCH   9  30
TORSDOF 8
ENDMDL
MODEL 7
REMARK VINA RESULT:      -9.1      1.606      1.981
REMARK  8 active torsions:
REMARK  status: ('A' for Active; 'I' for Inactive)
REMARK    1  A    between atoms: C_4  and  S_5 
REMARK    2  A    between atoms: S_5  and  C_6 
REMARK    3  A    between atoms: C_6  and  C_7 
REMARK       I    between atoms: C_7  and  N_8 
REMARK    4  A    between atoms: N_8  and  C_9 
REMARK    5  A    between atoms: C_20  and  C_21 
REMARK    6  A    between atoms: C_27  and  C_28 
REMARK       I    between atoms: C_28  and  N_29 
REMARK    7  A    between atoms: N_29  and  C_30 
REMARK    8  A    between atoms: C_31  and  O_32 
ROOT
HETATM    1  C   UNL     1      43.691 -14.570   5.532  1.00  0.00     0.069 C 
HETATM    2  C   UNL     1      42.554 -14.016   4.706  1.00  0.00     0.019 C 
HETATM    3  N   UNL     1      42.339 -12.652   4.828  1.00  0.00    -0.353 N 
HETATM    4  C   UNL     1      41.247 -11.972   4.328  1.00  0.00     0.087 C 
HETATM    5  C   UNL     1      40.394 -12.629   3.507  1.00  0.00     0.055 C 
HETATM    6  C   UNL     1      39.088 -12.003   3.047  1.00  0.00     0.019 C 
HETATM    7  N   UNL     1      38.003 -11.483   2.667  1.00  0.00    -0.096 N 
HETATM    8  C   UNL     1      40.737 -14.028   2.998  1.00  0.00     0.104 C 
HETATM    9  C   UNL     1      41.789 -14.740   3.850  1.00  0.00     0.046 C 
HETATM   10  H   UNL     1      42.927 -12.131   5.474  1.00  0.00     0.166 HD
ENDROOT
BRANCH   4  11
HETATM   11  S   UNL     1      41.097 -10.257   4.631  1.00  0.00    -0.102 SA
BRANCH  11  12
HETATM   12  C   UNL     1      40.251 -10.196   6.243  1.00  0.00     0.184 C 
BRANCH  12  13
HETATM   13  C   UNL     1      41.164  -9.701   7.375  1.00  0.00     0.231 C 
HETATM   14  N   UNL     1      40.953 -10.301   8.602  1.00  0.00    -0.327 N 
HETATM   15  H   UNL     1      40.220 -11.004   8.611  1.00  0.00     0.169 HD
HETATM   16  O   UNL     1      41.977  -8.807   7.149  1.00  0.00    -0.272 OA
BRANCH  14  17
HETATM   17  C   UNL     1      41.635 -10.102   9.815  1.00  0.00     0.034 A 
HETATM   18  C   UNL     1      42.692 -10.898  10.260  1.00  0.00     0.031 A 
HETATM   19  C   UNL     1      43.305 -10.637  11.492  1.00  0.00     0.026 A 
HETATM   20  C   UNL     1      42.865  -9.576  12.279  1.00  0.00     0.034 A 
HETATM   21 CL   UNL     1      43.619  -9.255  13.790  1.00  0.00    -0.084 Cl
HETATM   22  C   UNL     1      41.812  -8.773  11.848  1.00  0.00     0.026 A 
HETATM   23  C   UNL     1      41.199  -9.039  10.620  1.00  0.00     0.031 A 
ENDBRANCH  14  17
ENDBRANCH  12  13
ENDBRANCH  11  12
ENDBRANCH   4  11
BRANCH   8  24
HETATM   24  C   UNL     1      41.165 -13.903   1.526  1.00  0.00    -0.044 A 
HETATM   25  C   UNL     1      41.910 -12.797   1.072  1.00  0.00     0.008 A 
HETATM   26  C   UNL     1      42.244 -12.661  -0.276  1.00  0.00     0.001 A 
HETATM   27  C   UNL     1      41.828 -13.620  -1.195  1.00  0.00     0.000 A 
HETATM   28  C   UNL     1      41.080 -14.715  -0.766  1.00  0.00     0.001 A 
HETATM   29  C   UNL     1      40.748 -14.858   0.584  1.00  0.00     0.008 A 
ENDBRANCH   8  24
BRANCH   9  30
HETATM   30  C   UNL     1      41.948 -16.234   3.776  1.00  0.00     0.255 C 
HETATM   31  N   UNL     1      43.059 -16.689   3.097  1.00  0.00    -0.321 N 
HETATM   32  H   UNL     1      43.528 -16.085   2.442  1.00  0.00     0.169 HD
HETATM   33  O   UNL     1      41.056 -16.964   4.203  1.00  0.00    -0.268 OA
BRANCH  31  34
HETATM   34  C   UNL     1      43.487 -18.037   3.094  1.00  0.00     0.068 A 
HETATM   35  C   UNL     1      44.153 -18.639   4.181  1.00  0.00     0.095 A 
HETATM   36  C   UNL     1      44.502 -19.993   4.098  1.00  0.00     0.039 A 
HETATM   37  C   UNL     1      44.228 -20.727   2.940  1.00  0.00     0.003 A 
HETATM   38  C   UNL     1      43.629 -20.111   1.846  1.00  0.00     0.002 A 
HETATM   39  C   UNL     1      43.275 -18.765   1.916  1.00  0.00     0.032 A 
BRANCH  35  40
HETATM   40  O   UNL     1      44.524 -17.815   5.214  1.00  0.00    -0.354 OA
HETATM   41  C   UNL     1      44.937 -18.419   6.429  1.00  0.00     0.210 C 
ENDBRANCH  35  40
ENDBRANCH  31  34
ENDBRANCH   9  30
TORSDOF 8
ENDMDL
MODEL 8
REMARK VINA RESULT:      -8.9      5.774      9.676
REMARK  8 active torsions:
REMARK  status: ('A' for Active; 'I' for Inactive)
REMARK    1  A    between atoms: C_4  and  S_5 
REMARK    2  A    between atoms: S_5  and  C_6 
REMARK    3  A    between atoms: C_6  and  C_7 
REMARK       I    between atoms: C_7  and  N_8 
REMARK    4  A    between atoms: N_8  and  C_9 
REMARK    5  A    between atoms: C_20  and  C_21 
REMARK    6  A    between atoms: C_27  and  C_28 
REMARK       I    between atoms: C_28  and  N_29 
REMARK    7  A    between atoms: N_29  and  C_30 
REMARK    8  A    between atoms: C_31  and  O_32 
ROOT
HETATM    1  C   UNL     1      41.403 -15.794  -0.937  1.00  0.00     0.069 C 
HETATM    2  C   UNL     1      41.318 -14.521  -0.128  1.00  0.00     0.019 C 
HETATM    3  N   UNL     1      41.967 -14.550   1.096  1.00  0.00    -0.353 N 
HETATM    4  C   UNL     1      41.858 -13.584   2.076  1.00  0.00     0.087 C 
HETATM    5  C   UNL     1      41.214 -12.429   1.780  1.00  0.00     0.055 C 
HETATM    6  C   UNL     1      40.911 -11.389   2.846  1.00  0.00     0.019 C 
HETATM    7  N   UNL     1      40.660 -10.526   3.730  1.00  0.00    -0.096 N 
HETATM    8  C   UNL     1      40.788 -12.130   0.344  1.00  0.00     0.104 C 
HETATM    9  C   UNL     1      40.706 -13.379  -0.535  1.00  0.00     0.046 C 
HETATM   10  H   UNL     1      42.420 -15.415   1.378  1.00  0.00     0.166 HD
ENDROOT
BRANCH   4  11
HETATM   11  S   UNL     1      42.694 -13.809   3.595  1.00  0.00    -0.102 SA
BRANCH  11  12
HETATM   12  C   UNL     1      41.504 -14.772   4.581  1.00  0.00     0.184 C 
BRANCH  12  13
HETATM   13  C   UNL     1      41.707 -16.288   4.443  1.00  0.00     0.231 C 
HETATM   14  N   UNL     1      42.781 -16.667   3.660  1.00  0.00    -0.327 N 
HETATM   15  H   UNL     1      43.315 -15.896   3.269  1.00  0.00     0.169 HD
HETATM   16  O   UNL     1      40.915 -17.057   4.985  1.00  0.00    -0.272 OA
BRANCH  14  17
HETATM   17  C   UNL     1      43.255 -17.958   3.369  1.00  0.00     0.034 A 
HETATM   18  C   UNL     1      44.120 -18.681   4.192  1.00  0.00     0.031 A 
HETATM   19  C   UNL     1      44.554 -19.957   3.814  1.00  0.00     0.026 A 
HETATM   20  C   UNL     1      44.120 -20.516   2.615  1.00  0.00     0.034 A 
HETATM   21 CL   UNL     1      44.653 -22.084   2.154  1.00  0.00    -0.084 Cl
HETATM   22  C   UNL     1      43.256 -19.807   1.784  1.00  0.00     0.026 A 
HETATM   23  C   UNL     1      42.828 -18.531   2.161  1.00  0.00     0.031 A 
ENDBRANCH  14  17
ENDBRANCH  12  13
ENDBRANCH  11  12
ENDBRANCH   4  11
BRANCH   8  24
HETATM   24  C   UNL     1      41.754 -11.078  -0.227  1.00  0.00    -0.044 A 
HETATM   25  C   UNL     1      41.527  -9.700  -0.040  1.00  0.00     0.008 A 
HETATM   26  C   UNL     1      42.374  -8.750  -0.612  1.00  0.00     0.001 A 
HETATM   27  C   UNL     1      43.453  -9.160  -1.390  1.00  0.00     0.000 A 
HETATM   28  C   UNL     1      43.686 -10.518  -1.595  1.00  0.00     0.001 A 
HETATM   29  C   UNL     1      42.843 -11.473  -1.020  1.00  0.00     0.008 A 
ENDBRANCH   8  24
BRANCH   9  30
HETATM   30  C   UNL     1      39.920 -13.362  -1.817  1.00  0.00     0.255 C 
HETATM   31  N   UNL     1      38.591 -13.713  -1.713  1.00  0.00    -0.321 N 
HETATM   32  H   UNL     1      38.273 -14.242  -0.918  1.00  0.00     0.169 HD
HETATM   33  O   UNL     1      40.497 -13.158  -2.883  1.00  0.00    -0.268 OA
BRANCH  31  34
HETATM   34  C   UNL     1      37.649 -13.561  -2.758  1.00  0.00     0.068 A 
HETATM   35  C   UNL     1      37.242 -14.624  -3.591  1.00  0.00     0.095 A 
HETATM   36  C   UNL     1      36.273 -14.382  -4.574  1.00  0.00     0.039 A 
HETATM   37  C   UNL     1      35.746 -13.100  -4.752  1.00  0.00     0.003 A 
HETATM   38  C   UNL     1      36.200 -12.041  -3.970  1.00  0.00     0.002 A 
HETATM   39  C   UNL     1      37.162 -12.268  -2.987  1.00  0.00     0.032 A 
BRANCH  35  40
HETATM   40  O   UNL     1      37.916 -15.811  -3.457  1.00  0.00    -0.354 OA
HETATM   41  C   UNL     1      38.984 -16.072  -4.353  1.00  0.00     0.210 C 
ENDBRANCH  35  40
ENDBRANCH  31  34
ENDBRANCH   9  30
TORSDOF 8
ENDMDL
MODEL 9
REMARK VINA RESULT:      -8.7      5.815     10.144
REMARK  8 active torsions:
REMARK  status: ('A' for Active; 'I' for Inactive)
REMARK    1  A    between atoms: C_4  and  S_5 
REMARK    2  A    between atoms: S_5  and  C_6 
REMARK    3  A    between atoms: C_6  and  C_7 
REMARK       I    between atoms: C_7  and  N_8 
REMARK    4  A    between atoms: N_8  and  C_9 
REMARK    5  A    between atoms: C_20  and  C_21 
REMARK    6  A    between atoms: C_27  and  C_28 
REMARK       I    between atoms: C_28  and  N_29 
REMARK    7  A    between atoms: N_29  and  C_30 
REMARK    8  A    between atoms: C_31  and  O_32 
ROOT
HETATM    1  C   UNL     1      41.368 -17.573   0.968  1.00  0.00     0.069 C 
HETATM    2  C   UNL     1      41.290 -16.161   0.435  1.00  0.00     0.019 C 
HETATM    3  N   UNL     1      41.167 -16.050  -0.940  1.00  0.00    -0.353 N 
HETATM    4  C   UNL     1      41.276 -14.874  -1.655  1.00  0.00     0.087 C 
HETATM    5  C   UNL     1      41.335 -13.705  -0.974  1.00  0.00     0.055 C 
HETATM    6  C   UNL     1      41.618 -12.387  -1.677  1.00  0.00     0.019 C 
HETATM    7  N   UNL     1      41.853 -11.293  -2.260  1.00  0.00    -0.096 N 
HETATM    8  C   UNL     1      41.097 -13.676   0.534  1.00  0.00     0.104 C 
HETATM    9  C   UNL     1      41.286 -15.040   1.202  1.00  0.00     0.046 C 
HETATM   10  H   UNL     1      41.169 -16.904  -1.491  1.00  0.00     0.166 HD
ENDROOT
BRANCH   4  11
HETATM   11  S   UNL     1      41.163 -14.921  -3.398  1.00  0.00    -0.102 SA
BRANCH  11  12
HETATM   12  C   UNL     1      39.556 -15.728  -3.685  1.00  0.00     0.184 C 
BRANCH  12  13
HETATM   13  C   UNL     1      38.367 -14.780  -3.469  1.00  0.00     0.231 C 
HETATM   14  N   UNL     1      38.660 -13.436  -3.594  1.00  0.00    -0.327 N 
HETATM   15  H   UNL     1      39.629 -13.230  -3.819  1.00  0.00     0.169 HD
HETATM   16  O   UNL     1      37.269 -15.246  -3.171  1.00  0.00    -0.272 OA
BRANCH  14  17
HETATM   17  C   UNL     1      37.800 -12.328  -3.493  1.00  0.00     0.034 A 
HETATM   18  C   UNL     1      36.734 -12.081  -4.360  1.00  0.00     0.031 A 
HETATM   19  C   UNL     1      35.937 -10.942  -4.195  1.00  0.00     0.026 A 
HETATM   20  C   UNL     1      36.201 -10.049  -3.159  1.00  0.00     0.034 A 
HETATM   21 CL   UNL     1      35.220  -8.652  -2.957  1.00  0.00    -0.084 Cl
HETATM   22  C   UNL     1      37.260 -10.283  -2.286  1.00  0.00     0.026 A 
HETATM   23  C   UNL     1      38.057 -11.419  -2.456  1.00  0.00     0.031 A 
ENDBRANCH  14  17
ENDBRANCH  12  13
ENDBRANCH  11  12
ENDBRANCH   4  11
BRANCH   8  24
HETATM   24  C   UNL     1      39.693 -13.097   0.780  1.00  0.00    -0.044 A 
HETATM   25  C   UNL     1      38.533 -13.817   0.429  1.00  0.00     0.008 A 
HETATM   26  C   UNL     1      37.265 -13.260   0.600  1.00  0.00     0.001 A 
HETATM   27  C   UNL     1      37.135 -11.972   1.109  1.00  0.00     0.000 A 
HETATM   28  C   UNL     1      38.271 -11.241   1.449  1.00  0.00     0.001 A 
HETATM   29  C   UNL     1      39.543 -11.796   1.286  1.00  0.00     0.008 A 
ENDBRANCH   8  24
BRANCH   9  30
HETATM   30  C   UNL     1      41.511 -15.139   2.685  1.00  0.00     0.255 C 
HETATM   31  N   UNL     1      42.812 -15.361   3.083  1.00  0.00    -0.321 N 
HETATM   32  H   UNL     1      43.478 -15.744   2.431  1.00  0.00     0.169 HD
HETATM   33  O   UNL     1      40.549 -15.138   3.449  1.00  0.00    -0.268 OA
BRANCH  31  34
HETATM   34  C   UNL     1      43.253 -15.282   4.425  1.00  0.00     0.068 A 
HETATM   35  C   UNL     1      43.427 -16.413   5.249  1.00  0.00     0.095 A 
HETATM   36  C   UNL     1      43.906 -16.235   6.554  1.00  0.00     0.039 A 
HETATM   37  C   UNL     1      44.171 -14.953   7.044  1.00  0.00     0.003 A 
HETATM   38  C   UNL     1      43.935 -13.836   6.248  1.00  0.00     0.002 A 
HETATM   39  C   UNL     1      43.461 -13.999   4.948  1.00  0.00     0.032 A 
BRANCH  35  40
HETATM   40  O   UNL     1      42.999 -17.617   4.749  1.00  0.00    -0.354 OA
HETATM   41  C   UNL     1      41.702 -18.062   5.110  1.00  0.00     0.210 C 
ENDBRANCH  35  40
ENDBRANCH  31  34
ENDBRANCH   9  30
TORSDOF 8
ENDMDL
MODEL 10
REMARK VINA RESULT:      -8.6      5.414      9.294
REMARK  8 active torsions:
REMARK  status: ('A' for Active; 'I' for Inactive)
REMARK    1  A    between atoms: C_4  and  S_5 
REMARK    2  A    between atoms: S_5  and  C_6 
REMARK    3  A    between atoms: C_6  and  C_7 
REMARK       I    between atoms: C_7  and  N_8 
REMARK    4  A    between atoms: N_8  and  C_9 
REMARK    5  A    between atoms: C_20  and  C_21 
REMARK    6  A    between atoms: C_27  and  C_28 
REMARK       I    between atoms: C_28  and  N_29 
REMARK    7  A    between atoms: N_29  and  C_30 
REMARK    8  A    between atoms: C_31  and  O_32 
ROOT
HETATM    1  C   UNL     1      41.058 -15.995   0.319  1.00  0.00     0.069 C 
HETATM    2  C   UNL     1      41.108 -14.748   1.172  1.00  0.00     0.019 C 
HETATM    3  N   UNL     1      42.129 -14.707   2.107  1.00  0.00    -0.353 N 
HETATM    4  C   UNL     1      42.247 -13.769   3.113  1.00  0.00     0.087 C 
HETATM    5  C   UNL     1      41.415 -12.700   3.104  1.00  0.00     0.055 C 
HETATM    6  C   UNL     1      41.373 -11.714   4.260  1.00  0.00     0.019 C 
HETATM    7  N   UNL     1      41.338 -10.895   5.219  1.00  0.00    -0.096 N 
HETATM    8  C   UNL     1      40.500 -12.444   1.909  1.00  0.00     0.104 C 
HETATM    9  C   UNL     1      40.270 -13.687   1.047  1.00  0.00     0.046 C 
HETATM   10  H   UNL     1      42.745 -15.512   2.179  1.00  0.00     0.166 HD
ENDROOT
BRANCH   4  11
HETATM   11  S   UNL     1      43.564 -13.902   4.254  1.00  0.00    -0.102 SA
BRANCH  11  12
HETATM   12  C   UNL     1      42.862 -14.942   5.575  1.00  0.00     0.184 C 
BRANCH  12  13
HETATM   13  C   UNL     1      42.721 -16.414   5.160  1.00  0.00     0.231 C 
HETATM   14  N   UNL     1      43.688 -16.872   4.287  1.00  0.00    -0.327 N 
HETATM   15  H   UNL     1      44.384 -16.181   4.022  1.00  0.00     0.169 HD
HETATM   16  O   UNL     1      41.772 -17.073   5.582  1.00  0.00    -0.272 OA
BRANCH  14  17
HETATM   17  C   UNL     1      43.862 -18.161   3.752  1.00  0.00     0.034 A 
HETATM   18  C   UNL     1      44.515 -19.203   4.413  1.00  0.00     0.031 A 
HETATM   19  C   UNL     1      44.656 -20.453   3.797  1.00  0.00     0.026 A 
HETATM   20  C   UNL     1      44.140 -20.665   2.521  1.00  0.00     0.034 A 
HETATM   21 CL   UNL     1      44.313 -22.200   1.768  1.00  0.00    -0.084 Cl
HETATM   22  C   UNL     1      43.485 -19.635   1.851  1.00  0.00     0.026 A 
HETATM   23  C   UNL     1      43.350 -18.387   2.465  1.00  0.00     0.031 A 
ENDBRANCH  14  17
ENDBRANCH  12  13
ENDBRANCH  11  12
ENDBRANCH   4  11
BRANCH   8  24
HETATM   24  C   UNL     1      41.093 -11.277   1.101  1.00  0.00    -0.044 A 
HETATM   25  C   UNL     1      40.527  -9.987   1.157  1.00  0.00     0.008 A 
HETATM   26  C   UNL     1      41.033  -8.948   0.376  1.00  0.00     0.001 A 
HETATM   27  C   UNL     1      42.102  -9.182  -0.483  1.00  0.00     0.000 A 
HETATM   28  C   UNL     1      42.667 -10.454  -0.560  1.00  0.00     0.001 A 
HETATM   29  C   UNL     1      42.167 -11.497   0.224  1.00  0.00     0.008 A 
ENDBRANCH   8  24
BRANCH   9  30
HETATM   30  C   UNL     1      39.102 -13.756   0.102  1.00  0.00     0.255 C 
HETATM   31  N   UNL     1      39.356 -13.374  -1.198  1.00  0.00    -0.321 N 
HETATM   32  H   UNL     1      40.156 -12.799  -1.405  1.00  0.00     0.169 HD
HETATM   33  O   UNL     1      37.983 -14.024   0.534  1.00  0.00    -0.268 OA
BRANCH  31  34
HETATM   34  C   UNL     1      38.449 -13.561  -2.268  1.00  0.00     0.068 A 
HETATM   35  C   UNL     1      37.554 -12.563  -2.706  1.00  0.00     0.095 A 
HETATM   36  C   UNL     1      36.723 -12.831  -3.802  1.00  0.00     0.039 A 
HETATM   37  C   UNL     1      36.752 -14.081  -4.427  1.00  0.00     0.003 A 
HETATM   38  C   UNL     1      37.590 -15.084  -3.949  1.00  0.00     0.002 A 
HETATM   39  C   UNL     1      38.424 -14.830  -2.861  1.00  0.00     0.032 A 
BRANCH  35  40
HETATM   40  O   UNL     1      37.476 -11.424  -1.947  1.00  0.00    -0.354 OA
HETATM   41  C   UNL     1      36.234 -11.117  -1.335  1.00  0.00     0.210 C 
ENDBRANCH  35  40
ENDBRANCH  31  34
ENDBRANCH   9  30
TORSDOF 8
ENDMDL
