MODEL 1
REMARK VINA RESULT:      -8.5      0.000      0.000
REMARK  3 active torsions:
REMARK  status: ('A' for Active; 'I' for Inactive)
REMARK    1  A    between atoms: C_7  and  C_8 
REMARK    2  A    between atoms: C_17  and  C_18 
REMARK       I    between atoms: C_18  and  N_19 
REMARK    3  A    between atoms: N_19  and  C_20 
ROOT
HETATM    1  C   UNL     1      41.061 -14.975   4.390  1.00  0.00     0.206 C 
HETATM    2  N   UNL     1      40.879 -13.658   5.007  1.00  0.00    -0.084 N 
HETATM    3  C   UNL     1      41.777 -13.087   5.867  1.00  0.00     0.725 A 
HETATM    4  N   UNL     1      41.329 -11.918   6.252  1.00  0.00    -0.054 NA
HETATM    5  C   UNL     1      40.113 -11.839   5.624  1.00  0.00     0.275 A 
HETATM    6  N   UNL     1      39.775 -12.892   4.870  1.00  0.00    -0.149 NA
HETATM    7  N   UNL     1      42.883 -13.770   6.221  1.00  0.00    -0.192 N 
HETATM    8  C   UNL     1      43.072 -15.112   5.904  1.00  0.00     0.037 C 
HETATM    9  C   UNL     1      44.176 -15.807   6.662  1.00  0.00     0.070 C 
HETATM   10  C   UNL     1      42.235 -15.716   5.023  1.00  0.00     0.063 C 
HETATM   11  H   UNL     1      43.462 -13.376   6.959  1.00  0.00     0.184 HD
ENDROOT
BRANCH  10  12
HETATM   12  C   UNL     1      42.280 -17.164   4.683  1.00  0.00     0.256 C 
HETATM   13  N   UNL     1      43.275 -17.491   3.789  1.00  0.00    -0.323 N 
HETATM   14  H   UNL     1      43.836 -16.732   3.425  1.00  0.00     0.169 HD
HETATM   15  O   UNL     1      41.445 -17.907   5.182  1.00  0.00    -0.267 OA
BRANCH  13  16
HETATM   16  C   UNL     1      43.639 -18.782   3.352  1.00  0.00     0.035 A 
HETATM   17  C   UNL     1      43.197 -19.357   2.159  1.00  0.00     0.029 A 
HETATM   18  C   UNL     1      43.582 -20.656   1.811  1.00  0.00     0.002 A 
HETATM   19  C   UNL     1      44.409 -21.393   2.654  1.00  0.00     0.000 A 
HETATM   20  C   UNL     1      44.859 -20.829   3.845  1.00  0.00     0.002 A 
HETATM   21  C   UNL     1      44.480 -19.529   4.189  1.00  0.00     0.029 A 
ENDBRANCH  13  16
ENDBRANCH  10  12
BRANCH   1  22
HETATM   22  C   UNL     1      41.232 -14.796   2.904  1.00  0.00     0.015 A 
HETATM   23  C   UNL     1      40.775 -15.672   1.876  1.00  0.00     0.061 A 
HETATM   24  C   UNL     1      40.028 -16.948   2.025  1.00  0.00     0.073 C 
HETATM   25  N   UNL     1      41.078 -15.212   0.657  1.00  0.00    -0.178 NA
HETATM   26  N   UNL     1      41.682 -14.038   0.887  1.00  0.00    -0.284 N 
HETATM   27  C   UNL     1      42.110 -13.221  -0.222  1.00  0.00     0.179 C 
HETATM   28  C   UNL     1      41.816 -13.748   2.211  1.00  0.00     0.123 A 
ENDBRANCH   1  22
TORSDOF 3
ENDMDL
MODEL 2
REMARK VINA RESULT:      -8.3      1.913      4.120
REMARK  3 active torsions:
REMARK  status: ('A' for Active; 'I' for Inactive)
REMARK    1  A    between atoms: C_7  and  C_8 
REMARK    2  A    between atoms: C_17  and  C_18 
REMARK       I    between atoms: C_18  and  N_19 
REMARK    3  A    between atoms: N_19  and  C_20 
ROOT
HETATM    1  C   UNL     1      43.165 -15.527   4.362  1.00  0.00     0.206 C 
HETATM    2  N   UNL     1      42.478 -14.250   4.572  1.00  0.00    -0.084 N 
HETATM    3  C   UNL     1      41.308 -13.900   3.953  1.00  0.00     0.725 A 
HETATM    4  N   UNL     1      40.953 -12.701   4.338  1.00  0.00    -0.054 NA
HETATM    5  C   UNL     1      41.977 -12.335   5.173  1.00  0.00     0.275 A 
HETATM    6  N   UNL     1      42.953 -13.237   5.330  1.00  0.00    -0.149 NA
HETATM    7  N   UNL     1      40.754 -14.742   3.059  1.00  0.00    -0.192 N 
HETATM    8  C   UNL     1      41.410 -15.876   2.586  1.00  0.00     0.037 C 
HETATM    9  C   UNL     1      40.810 -16.504   1.353  1.00  0.00     0.070 C 
HETATM   10  C   UNL     1      42.552 -16.291   3.193  1.00  0.00     0.063 C 
HETATM   11  H   UNL     1      39.961 -14.401   2.521  1.00  0.00     0.184 HD
ENDROOT
BRANCH  10  12
HETATM   12  C   UNL     1      43.387 -17.426   2.717  1.00  0.00     0.256 C 
HETATM   13  N   UNL     1      43.102 -18.620   3.342  1.00  0.00    -0.323 N 
HETATM   14  H   UNL     1      42.404 -18.603   4.073  1.00  0.00     0.169 HD
HETATM   15  O   UNL     1      44.241 -17.207   1.868  1.00  0.00    -0.267 OA
BRANCH  13  16
HETATM   16  C   UNL     1      43.643 -19.889   3.044  1.00  0.00     0.035 A 
HETATM   17  C   UNL     1      43.448 -20.557   1.833  1.00  0.00     0.029 A 
HETATM   18  C   UNL     1      43.995 -21.827   1.626  1.00  0.00     0.002 A 
HETATM   19  C   UNL     1      44.740 -22.443   2.629  1.00  0.00     0.000 A 
HETATM   20  C   UNL     1      44.944 -21.786   3.839  1.00  0.00     0.002 A 
HETATM   21  C   UNL     1      44.403 -20.514   4.043  1.00  0.00     0.029 A 
ENDBRANCH  13  16
ENDBRANCH  10  12
BRANCH   1  22
HETATM   22  C   UNL     1      43.124 -16.317   5.645  1.00  0.00     0.015 A 
HETATM   23  C   UNL     1      41.969 -16.650   6.411  1.00  0.00     0.061 A 
HETATM   24  C   UNL     1      40.551 -16.307   6.127  1.00  0.00     0.073 C 
HETATM   25  N   UNL     1      42.278 -17.375   7.492  1.00  0.00    -0.178 NA
HETATM   26  N   UNL     1      43.604 -17.547   7.406  1.00  0.00    -0.284 N 
HETATM   27  C   UNL     1      44.292 -18.339   8.396  1.00  0.00     0.179 C 
HETATM   28  C   UNL     1      44.164 -16.921   6.333  1.00  0.00     0.123 A 
ENDBRANCH   1  22
TORSDOF 3
ENDMDL
MODEL 3
REMARK VINA RESULT:      -7.6      1.874      4.117
REMARK  3 active torsions:
REMARK  status: ('A' for Active; 'I' for Inactive)
REMARK    1  A    between atoms: C_7  and  C_8 
REMARK    2  A    between atoms: C_17  and  C_18 
REMARK       I    between atoms: C_18  and  N_19 
REMARK    3  A    between atoms: N_19  and  C_20 
ROOT
HETATM    1  C   UNL     1      42.808 -14.651   2.171  1.00  0.00     0.206 C 
HETATM    2  N   UNL     1      41.937 -13.658   1.537  1.00  0.00    -0.084 N 
HETATM    3  C   UNL     1      40.750 -13.961   0.928  1.00  0.00     0.725 A 
HETATM    4  N   UNL     1      40.212 -12.866   0.452  1.00  0.00    -0.054 NA
HETATM    5  C   UNL     1      41.147 -11.912   0.761  1.00  0.00     0.275 A 
HETATM    6  N   UNL     1      42.238 -12.348   1.401  1.00  0.00    -0.149 NA
HETATM    7  N   UNL     1      40.350 -15.246   0.855  1.00  0.00    -0.192 N 
HETATM    8  C   UNL     1      41.178 -16.311   1.200  1.00  0.00     0.037 C 
HETATM    9  C   UNL     1      40.713 -17.669   0.735  1.00  0.00     0.070 C 
HETATM   10  C   UNL     1      42.348 -16.069   1.844  1.00  0.00     0.063 C 
HETATM   11  H   UNL     1      39.534 -15.452   0.286  1.00  0.00     0.184 HD
ENDROOT
BRANCH  10  12
HETATM   12  C   UNL     1      43.353 -17.114   2.175  1.00  0.00     0.256 C 
HETATM   13  N   UNL     1      42.958 -17.959   3.189  1.00  0.00    -0.323 N 
HETATM   14  H   UNL     1      42.067 -17.767   3.628  1.00  0.00     0.169 HD
HETATM   15  O   UNL     1      44.415 -17.118   1.567  1.00  0.00    -0.267 OA
BRANCH  13  16
HETATM   16  C   UNL     1      43.636 -19.104   3.659  1.00  0.00     0.035 A 
HETATM   17  C   UNL     1      44.050 -20.157   2.842  1.00  0.00     0.029 A 
HETATM   18  C   UNL     1      44.692 -21.272   3.391  1.00  0.00     0.002 A 
HETATM   19  C   UNL     1      44.923 -21.345   4.762  1.00  0.00     0.000 A 
HETATM   20  C   UNL     1      44.516 -20.300   5.587  1.00  0.00     0.002 A 
HETATM   21  C   UNL     1      43.881 -19.183   5.037  1.00  0.00     0.029 A 
ENDBRANCH  13  16
ENDBRANCH  10  12
BRANCH   1  22
HETATM   22  C   UNL     1      42.843 -14.390   3.655  1.00  0.00     0.015 A 
HETATM   23  C   UNL     1      41.755 -14.495   4.570  1.00  0.00     0.061 A 
HETATM   24  C   UNL     1      40.351 -14.887   4.282  1.00  0.00     0.073 C 
HETATM   25  N   UNL     1      42.126 -14.207   5.823  1.00  0.00    -0.178 NA
HETATM   26  N   UNL     1      43.441 -13.962   5.730  1.00  0.00    -0.284 N 
HETATM   27  C   UNL     1      44.201 -13.660   6.917  1.00  0.00     0.179 C 
HETATM   28  C   UNL     1      43.918 -14.040   4.456  1.00  0.00     0.123 A 
ENDBRANCH   1  22
TORSDOF 3
ENDMDL
MODEL 4
REMARK VINA RESULT:      -7.6      2.486      5.409
REMARK  3 active torsions:
REMARK  status: ('A' for Active; 'I' for Inactive)
REMARK    1  A    between atoms: C_7  and  C_8 
REMARK    2  A    between atoms: C_17  and  C_18 
REMARK       I    between atoms: C_18  and  N_19 
REMARK    3  A    between atoms: N_19  and  C_20 
ROOT
HETATM    1  C   UNL     1      42.110 -13.130   0.448  1.00  0.00     0.206 C 
HETATM    2  N   UNL     1      42.385 -12.111  -0.569  1.00  0.00    -0.084 N 
HETATM    3  C   UNL     1      42.017 -12.224  -1.883  1.00  0.00     0.725 A 
HETATM    4  N   UNL     1      42.410 -11.161  -2.538  1.00  0.00    -0.054 NA
HETATM    5  C   UNL     1      43.064 -10.437  -1.575  1.00  0.00     0.275 A 
HETATM    6  N   UNL     1      43.103 -10.987  -0.356  1.00  0.00    -0.149 NA
HETATM    7  N   UNL     1      41.401 -13.346  -2.305  1.00  0.00    -0.192 N 
HETATM    8  C   UNL     1      41.287 -14.485  -1.512  1.00  0.00     0.037 C 
HETATM    9  C   UNL     1      40.893 -15.744  -2.242  1.00  0.00     0.070 C 
HETATM   10  C   UNL     1      41.598 -14.416  -0.193  1.00  0.00     0.063 C 
HETATM   11  H   UNL     1      41.258 -13.454  -3.306  1.00  0.00     0.184 HD
ENDROOT
BRANCH  10  12
HETATM   12  C   UNL     1      41.607 -15.585   0.726  1.00  0.00     0.256 C 
HETATM   13  N   UNL     1      42.866 -16.091   0.965  1.00  0.00    -0.323 N 
HETATM   14  H   UNL     1      43.637 -15.659   0.473  1.00  0.00     0.169 HD
HETATM   15  O   UNL     1      40.538 -16.002   1.152  1.00  0.00    -0.267 OA
BRANCH  13  16
HETATM   16  C   UNL     1      43.216 -17.121   1.864  1.00  0.00     0.035 A 
HETATM   17  C   UNL     1      43.305 -16.955   3.247  1.00  0.00     0.029 A 
HETATM   18  C   UNL     1      43.687 -18.021   4.068  1.00  0.00     0.002 A 
HETATM   19  C   UNL     1      43.986 -19.262   3.513  1.00  0.00     0.000 A 
HETATM   20  C   UNL     1      43.898 -19.441   2.135  1.00  0.00     0.002 A 
HETATM   21  C   UNL     1      43.509 -18.378   1.316  1.00  0.00     0.029 A 
ENDBRANCH  13  16
ENDBRANCH  10  12
BRANCH   1  22
HETATM   22  C   UNL     1      41.138 -12.564   1.451  1.00  0.00     0.015 A 
HETATM   23  C   UNL     1      41.292 -12.529   2.867  1.00  0.00     0.061 A 
HETATM   24  C   UNL     1      42.432 -13.028   3.678  1.00  0.00     0.073 C 
HETATM   25  N   UNL     1      40.249 -11.943   3.468  1.00  0.00    -0.178 NA
HETATM   26  N   UNL     1      39.454 -11.567   2.457  1.00  0.00    -0.284 N 
HETATM   27  C   UNL     1      38.235 -10.846   2.732  1.00  0.00     0.179 C 
HETATM   28  C   UNL     1      39.927 -11.928   1.232  1.00  0.00     0.123 A 
ENDBRANCH   1  22
TORSDOF 3
ENDMDL
MODEL 5
REMARK VINA RESULT:      -7.6      2.209      6.186
REMARK  3 active torsions:
REMARK  status: ('A' for Active; 'I' for Inactive)
REMARK    1  A    between atoms: C_7  and  C_8 
REMARK    2  A    between atoms: C_17  and  C_18 
REMARK       I    between atoms: C_18  and  N_19 
REMARK    3  A    between atoms: N_19  and  C_20 
ROOT
HETATM    1  C   UNL     1      42.563 -16.554   4.755  1.00  0.00     0.206 C 
HETATM    2  N   UNL     1      43.071 -17.768   5.399  1.00  0.00    -0.084 N 
HETATM    3  C   UNL     1      43.964 -18.626   4.818  1.00  0.00     0.725 A 
HETATM    4  N   UNL     1      44.215 -19.616   5.636  1.00  0.00    -0.054 NA
HETATM    5  C   UNL     1      43.403 -19.337   6.705  1.00  0.00     0.275 A 
HETATM    6  N   UNL     1      42.658 -18.230   6.600  1.00  0.00    -0.149 NA
HETATM    7  N   UNL     1      44.389 -18.388   3.560  1.00  0.00    -0.192 N 
HETATM    8  C   UNL     1      43.819 -17.414   2.745  1.00  0.00     0.037 C 
HETATM    9  C   UNL     1      44.163 -17.514   1.280  1.00  0.00     0.070 C 
HETATM   10  C   UNL     1      42.958 -16.512   3.282  1.00  0.00     0.063 C 
HETATM   11  H   UNL     1      44.947 -19.109   3.110  1.00  0.00     0.184 HD
ENDROOT
BRANCH  10  12
HETATM   12  C   UNL     1      42.217 -15.491   2.494  1.00  0.00     0.256 C 
HETATM   13  N   UNL     1      41.022 -15.947   1.985  1.00  0.00    -0.323 N 
HETATM   14  H   UNL     1      40.789 -16.917   2.154  1.00  0.00     0.169 HD
HETATM   15  O   UNL     1      42.724 -14.387   2.345  1.00  0.00    -0.267 OA
BRANCH  13  16
HETATM   16  C   UNL     1      40.049 -15.198   1.289  1.00  0.00     0.035 A 
HETATM   17  C   UNL     1      38.774 -14.920   1.785  1.00  0.00     0.029 A 
HETATM   18  C   UNL     1      37.856 -14.194   1.019  1.00  0.00     0.002 A 
HETATM   19  C   UNL     1      38.203 -13.743  -0.251  1.00  0.00     0.000 A 
HETATM   20  C   UNL     1      39.472 -14.012  -0.756  1.00  0.00     0.002 A 
HETATM   21  C   UNL     1      40.392 -14.731   0.012  1.00  0.00     0.029 A 
ENDBRANCH  13  16
ENDBRANCH  10  12
BRANCH   1  22
HETATM   22  C   UNL     1      43.066 -15.354   5.516  1.00  0.00     0.015 A 
HETATM   23  C   UNL     1      42.351 -14.151   5.790  1.00  0.00     0.061 A 
HETATM   24  C   UNL     1      40.960 -13.804   5.401  1.00  0.00     0.073 C 
HETATM   25  N   UNL     1      43.082 -13.288   6.504  1.00  0.00    -0.178 NA
HETATM   26  N   UNL     1      44.234 -13.934   6.727  1.00  0.00    -0.284 N 
HETATM   27  C   UNL     1      45.264 -13.315   7.523  1.00  0.00     0.179 C 
HETATM   28  C   UNL     1      44.286 -15.166   6.145  1.00  0.00     0.123 A 
ENDBRANCH   1  22
TORSDOF 3
ENDMDL
MODEL 6
REMARK VINA RESULT:      -7.5      1.947      4.248
REMARK  3 active torsions:
REMARK  status: ('A' for Active; 'I' for Inactive)
REMARK    1  A    between atoms: C_7  and  C_8 
REMARK    2  A    between atoms: C_17  and  C_18 
REMARK       I    between atoms: C_18  and  N_19 
REMARK    3  A    between atoms: N_19  and  C_20 
ROOT
HETATM    1  C   UNL     1      42.716 -14.883   2.935  1.00  0.00     0.206 C 
HETATM    2  N   UNL     1      42.010 -13.629   2.656  1.00  0.00    -0.084 N 
HETATM    3  C   UNL     1      41.085 -13.479   1.659  1.00  0.00     0.725 A 
HETATM    4  N   UNL     1      40.641 -12.247   1.657  1.00  0.00    -0.054 NA
HETATM    5  C   UNL     1      41.371 -11.663   2.660  1.00  0.00     0.275 A 
HETATM    6  N   UNL     1      42.246 -12.458   3.286  1.00  0.00    -0.149 NA
HETATM    7  N   UNL     1      40.816 -14.516   0.841  1.00  0.00    -0.192 N 
HETATM    8  C   UNL     1      41.573 -15.685   0.835  1.00  0.00     0.037 C 
HETATM    9  C   UNL     1      41.366 -16.585  -0.357  1.00  0.00     0.070 C 
HETATM   10  C   UNL     1      42.476 -15.903   1.826  1.00  0.00     0.063 C 
HETATM   11  H   UNL     1      40.226 -14.336   0.033  1.00  0.00     0.184 HD
ENDROOT
BRANCH  10  12
HETATM   12  C   UNL     1      43.404 -17.064   1.871  1.00  0.00     0.256 C 
HETATM   13  N   UNL     1      42.916 -18.134   2.588  1.00  0.00    -0.323 N 
HETATM   14  H   UNL     1      42.018 -18.016   3.039  1.00  0.00     0.169 HD
HETATM   15  O   UNL     1      44.491 -16.965   1.317  1.00  0.00    -0.267 OA
BRANCH  13  16
HETATM   16  C   UNL     1      43.506 -19.408   2.729  1.00  0.00     0.035 A 
HETATM   17  C   UNL     1      44.353 -19.764   3.780  1.00  0.00     0.029 A 
HETATM   18  C   UNL     1      44.922 -21.041   3.832  1.00  0.00     0.002 A 
HETATM   19  C   UNL     1      44.653 -21.972   2.833  1.00  0.00     0.000 A 
HETATM   20  C   UNL     1      43.807 -21.629   1.781  1.00  0.00     0.002 A 
HETATM   21  C   UNL     1      43.233 -20.356   1.732  1.00  0.00     0.029 A 
ENDBRANCH  13  16
ENDBRANCH  10  12
BRANCH   1  22
HETATM   22  C   UNL     1      42.284 -15.393   4.285  1.00  0.00     0.015 A 
HETATM   23  C   UNL     1      42.918 -15.148   5.538  1.00  0.00     0.061 A 
HETATM   24  C   UNL     1      44.135 -14.338   5.805  1.00  0.00     0.073 C 
HETATM   25  N   UNL     1      42.271 -15.737   6.549  1.00  0.00    -0.178 NA
HETATM   26  N   UNL     1      41.211 -16.318   5.970  1.00  0.00    -0.284 N 
HETATM   27  C   UNL     1      40.244 -17.018   6.779  1.00  0.00     0.179 C 
HETATM   28  C   UNL     1      41.178 -16.159   4.617  1.00  0.00     0.123 A 
ENDBRANCH   1  22
TORSDOF 3
ENDMDL
MODEL 7
REMARK VINA RESULT:      -7.3      2.193      5.843
REMARK  3 active torsions:
REMARK  status: ('A' for Active; 'I' for Inactive)
REMARK    1  A    between atoms: C_7  and  C_8 
REMARK    2  A    between atoms: C_17  and  C_18 
REMARK       I    between atoms: C_18  and  N_19 
REMARK    3  A    between atoms: N_19  and  C_20 
ROOT
HETATM    1  C   UNL     1      41.461 -16.566   4.834  1.00  0.00     0.206 C 
HETATM    2  N   UNL     1      42.465 -17.128   5.741  1.00  0.00    -0.084 N 
HETATM    3  C   UNL     1      43.709 -17.538   5.344  1.00  0.00     0.725 A 
HETATM    4  N   UNL     1      44.367 -17.999   6.377  1.00  0.00    -0.054 NA
HETATM    5  C   UNL     1      43.452 -17.889   7.392  1.00  0.00     0.275 A 
HETATM    6  N   UNL     1      42.259 -17.387   7.051  1.00  0.00    -0.149 NA
HETATM    7  N   UNL     1      44.044 -17.473   4.040  1.00  0.00    -0.192 N 
HETATM    8  C   UNL     1      43.119 -17.186   3.039  1.00  0.00     0.037 C 
HETATM    9  C   UNL     1      43.570 -17.494   1.633  1.00  0.00     0.070 C 
HETATM   10  C   UNL     1      41.884 -16.735   3.378  1.00  0.00     0.063 C 
HETATM   11  H   UNL     1      44.921 -17.904   3.758  1.00  0.00     0.184 HD
ENDROOT
BRANCH  10  12
HETATM   12  C   UNL     1      40.787 -16.489   2.405  1.00  0.00     0.256 C 
HETATM   13  N   UNL     1      40.687 -15.174   2.006  1.00  0.00    -0.323 N 
HETATM   14  H   UNL     1      41.322 -14.513   2.434  1.00  0.00     0.169 HD
HETATM   15  O   UNL     1      40.076 -17.429   2.076  1.00  0.00    -0.267 OA
BRANCH  13  16
HETATM   16  C   UNL     1      39.825 -14.643   1.024  1.00  0.00     0.035 A 
HETATM   17  C   UNL     1      40.224 -14.322  -0.275  1.00  0.00     0.029 A 
HETATM   18  C   UNL     1      39.313 -13.771  -1.183  1.00  0.00     0.002 A 
HETATM   19  C   UNL     1      37.996 -13.534  -0.799  1.00  0.00     0.000 A 
HETATM   20  C   UNL     1      37.585 -13.853   0.492  1.00  0.00     0.002 A 
HETATM   21  C   UNL     1      38.494 -14.409   1.397  1.00  0.00     0.029 A 
ENDBRANCH  13  16
ENDBRANCH  10  12
BRANCH   1  22
HETATM   22  C   UNL     1      41.230 -15.122   5.199  1.00  0.00     0.015 A 
HETATM   23  C   UNL     1      42.180 -14.061   5.139  1.00  0.00     0.061 A 
HETATM   24  C   UNL     1      43.598 -14.125   4.703  1.00  0.00     0.073 C 
HETATM   25  N   UNL     1      41.648 -12.894   5.520  1.00  0.00    -0.178 NA
HETATM   26  N   UNL     1      40.366 -13.184   5.781  1.00  0.00    -0.284 N 
HETATM   27  C   UNL     1      39.459 -12.136   6.179  1.00  0.00     0.179 C 
HETATM   28  C   UNL     1      40.066 -14.503   5.623  1.00  0.00     0.123 A 
ENDBRANCH   1  22
TORSDOF 3
ENDMDL
MODEL 8
REMARK VINA RESULT:      -7.1      2.443      6.042
REMARK  3 active torsions:
REMARK  status: ('A' for Active; 'I' for Inactive)
REMARK    1  A    between atoms: C_7  and  C_8 
REMARK    2  A    between atoms: C_17  and  C_18 
REMARK       I    between atoms: C_18  and  N_19 
REMARK    3  A    between atoms: N_19  and  C_20 
ROOT
HETATM    1  C   UNL     1      43.302 -16.268   3.873  1.00  0.00     0.206 C 
HETATM    2  N   UNL     1      43.475 -17.563   3.209  1.00  0.00    -0.084 N 
HETATM    3  C   UNL     1      43.328 -18.770   3.837  1.00  0.00     0.725 A 
HETATM    4  N   UNL     1      43.555 -19.736   2.984  1.00  0.00    -0.054 NA
HETATM    5  C   UNL     1      43.886 -19.058   1.840  1.00  0.00     0.275 A 
HETATM    6  N   UNL     1      43.880 -17.722   1.930  1.00  0.00    -0.149 NA
HETATM    7  N   UNL     1      43.049 -18.801   5.155  1.00  0.00    -0.192 N 
HETATM    8  C   UNL     1      43.089 -17.666   5.960  1.00  0.00     0.037 C 
HETATM    9  C   UNL     1      43.099 -17.925   7.446  1.00  0.00     0.070 C 
HETATM   10  C   UNL     1      43.191 -16.440   5.384  1.00  0.00     0.063 C 
HETATM   11  H   UNL     1      43.076 -19.706   5.619  1.00  0.00     0.184 HD
ENDROOT
BRANCH  10  12
HETATM   12  C   UNL     1      43.339 -15.169   6.143  1.00  0.00     0.256 C 
HETATM   13  N   UNL     1      44.597 -14.985   6.672  1.00  0.00    -0.323 N 
HETATM   14  H   UNL     1      45.268 -15.730   6.536  1.00  0.00     0.169 HD
HETATM   15  O   UNL     1      42.363 -14.438   6.254  1.00  0.00    -0.267 OA
BRANCH  13  16
HETATM   16  C   UNL     1      45.080 -13.845   7.349  1.00  0.00     0.035 A 
HETATM   17  C   UNL     1      46.277 -13.200   7.035  1.00  0.00     0.029 A 
HETATM   18  C   UNL     1      46.701 -12.090   7.774  1.00  0.00     0.002 A 
HETATM   19  C   UNL     1      45.933 -11.618   8.835  1.00  0.00     0.000 A 
HETATM   20  C   UNL     1      44.736 -12.252   9.155  1.00  0.00     0.002 A 
HETATM   21  C   UNL     1      44.309 -13.356   8.413  1.00  0.00     0.029 A 
ENDBRANCH  13  16
ENDBRANCH  10  12
BRANCH   1  22
HETATM   22  C   UNL     1      42.096 -15.579   3.286  1.00  0.00     0.015 A 
HETATM   23  C   UNL     1      41.989 -14.207   2.915  1.00  0.00     0.061 A 
HETATM   24  C   UNL     1      43.027 -13.148   3.012  1.00  0.00     0.073 C 
HETATM   25  N   UNL     1      40.784 -13.919   2.410  1.00  0.00    -0.178 NA
HETATM   26  N   UNL     1      40.136 -15.092   2.412  1.00  0.00    -0.284 N 
HETATM   27  C   UNL     1      38.798 -15.175   1.880  1.00  0.00     0.179 C 
HETATM   28  C   UNL     1      40.866 -16.114   2.941  1.00  0.00     0.123 A 
ENDBRANCH   1  22
TORSDOF 3
ENDMDL
MODEL 9
REMARK VINA RESULT:      -7.0      1.918      4.639
REMARK  3 active torsions:
REMARK  status: ('A' for Active; 'I' for Inactive)
REMARK    1  A    between atoms: C_7  and  C_8 
REMARK    2  A    between atoms: C_17  and  C_18 
REMARK       I    between atoms: C_18  and  N_19 
REMARK    3  A    between atoms: N_19  and  C_20 
ROOT
HETATM    1  C   UNL     1      42.049 -14.296   2.369  1.00  0.00     0.206 C 
HETATM    2  N   UNL     1      41.371 -13.624   1.257  1.00  0.00    -0.084 N 
HETATM    3  C   UNL     1      40.508 -14.249   0.399  1.00  0.00     0.725 A 
HETATM    4  N   UNL     1      40.075 -13.388  -0.488  1.00  0.00    -0.054 NA
HETATM    5  C   UNL     1      40.750 -12.243  -0.151  1.00  0.00     0.275 A 
HETATM    6  N   UNL     1      41.579 -12.339   0.894  1.00  0.00    -0.149 NA
HETATM    7  N   UNL     1      40.279 -15.570   0.533  1.00  0.00    -0.192 N 
HETATM    8  C   UNL     1      41.025 -16.379   1.386  1.00  0.00     0.037 C 
HETATM    9  C   UNL     1      40.881 -17.864   1.160  1.00  0.00     0.070 C 
HETATM   10  C   UNL     1      41.866 -15.808   2.286  1.00  0.00     0.063 C 
HETATM   11  H   UNL     1      39.739 -16.029  -0.195  1.00  0.00     0.184 HD
ENDROOT
BRANCH  10  12
HETATM   12  C   UNL     1      42.780 -16.570   3.178  1.00  0.00     0.256 C 
HETATM   13  N   UNL     1      42.215 -16.911   4.387  1.00  0.00    -0.323 N 
HETATM   14  H   UNL     1      41.275 -16.582   4.566  1.00  0.00     0.169 HD
HETATM   15  O   UNL     1      43.919 -16.796   2.792  1.00  0.00    -0.267 OA
BRANCH  13  16
HETATM   16  C   UNL     1      42.783 -17.715   5.398  1.00  0.00     0.035 A 
HETATM   17  C   UNL     1      43.291 -18.998   5.183  1.00  0.00     0.029 A 
HETATM   18  C   UNL     1      43.812 -19.743   6.246  1.00  0.00     0.002 A 
HETATM   19  C   UNL     1      43.827 -19.214   7.534  1.00  0.00     0.000 A 
HETATM   20  C   UNL     1      43.326 -17.935   7.760  1.00  0.00     0.002 A 
HETATM   21  C   UNL     1      42.811 -17.188   6.697  1.00  0.00     0.029 A 
ENDBRANCH  13  16
ENDBRANCH  10  12
BRANCH   1  22
HETATM   22  C   UNL     1      41.534 -13.728   3.666  1.00  0.00     0.015 A 
HETATM   23  C   UNL     1      42.285 -13.479   4.852  1.00  0.00     0.061 A 
HETATM   24  C   UNL     1      43.734 -13.712   5.084  1.00  0.00     0.073 C 
HETATM   25  N   UNL     1      41.527 -12.955   5.822  1.00  0.00    -0.178 NA
HETATM   26  N   UNL     1      40.316 -12.826   5.263  1.00  0.00    -0.284 N 
HETATM   27  C   UNL     1      39.236 -12.237   6.016  1.00  0.00     0.179 C 
HETATM   28  C   UNL     1      40.259 -13.288   3.982  1.00  0.00     0.123 A 
ENDBRANCH   1  22
TORSDOF 3
ENDMDL
MODEL 10
REMARK VINA RESULT:      -6.9      1.945      5.421
REMARK  3 active torsions:
REMARK  status: ('A' for Active; 'I' for Inactive)
REMARK    1  A    between atoms: C_7  and  C_8 
REMARK    2  A    between atoms: C_17  and  C_18 
REMARK       I    between atoms: C_18  and  N_19 
REMARK    3  A    between atoms: N_19  and  C_20 
ROOT
HETATM    1  C   UNL     1      43.135 -15.250   4.145  1.00  0.00     0.206 C 
HETATM    2  N   UNL     1      43.741 -14.570   5.293  1.00  0.00    -0.084 N 
HETATM    3  C   UNL     1      43.024 -13.990   6.304  1.00  0.00     0.725 A 
HETATM    4  N   UNL     1      43.846 -13.460   7.174  1.00  0.00    -0.054 NA
HETATM    5  C   UNL     1      45.075 -13.708   6.618  1.00  0.00     0.275 A 
HETATM    6  N   UNL     1      45.067 -14.362   5.450  1.00  0.00    -0.149 NA
HETATM    7  N   UNL     1      41.677 -13.990   6.246  1.00  0.00    -0.192 N 
HETATM    8  C   UNL     1      40.973 -14.384   5.112  1.00  0.00     0.037 C 
HETATM    9  C   UNL     1      39.516 -13.998   5.087  1.00  0.00     0.070 C 
HETATM   10  C   UNL     1      41.630 -15.004   4.098  1.00  0.00     0.063 C 
HETATM   11  H   UNL     1      41.178 -13.440   6.940  1.00  0.00     0.184 HD
ENDROOT
BRANCH  10  12
HETATM   12  C   UNL     1      41.004 -15.382   2.803  1.00  0.00     0.256 C 
HETATM   13  N   UNL     1      41.142 -14.425   1.822  1.00  0.00    -0.323 N 
HETATM   14  H   UNL     1      41.604 -13.562   2.081  1.00  0.00     0.169 HD
HETATM   15  O   UNL     1      40.417 -16.453   2.728  1.00  0.00    -0.267 OA
BRANCH  13  16
HETATM   16  C   UNL     1      40.752 -14.526   0.470  1.00  0.00     0.035 A 
HETATM   17  C   UNL     1      41.418 -15.304  -0.479  1.00  0.00     0.029 A 
HETATM   18  C   UNL     1      40.984 -15.327  -1.809  1.00  0.00     0.002 A 
HETATM   19  C   UNL     1      39.884 -14.571  -2.203  1.00  0.00     0.000 A 
HETATM   20  C   UNL     1      39.210 -13.794  -1.265  1.00  0.00     0.002 A 
HETATM   21  C   UNL     1      39.639 -13.775   0.065  1.00  0.00     0.029 A 
ENDBRANCH  13  16
ENDBRANCH  10  12
BRANCH   1  22
HETATM   22  C   UNL     1      43.473 -16.717   4.215  1.00  0.00     0.015 A 
HETATM   23  C   UNL     1      43.858 -17.560   3.133  1.00  0.00     0.061 A 
HETATM   24  C   UNL     1      44.021 -17.197   1.701  1.00  0.00     0.073 C 
HETATM   25  N   UNL     1      44.103 -18.812   3.538  1.00  0.00    -0.178 NA
HETATM   26  N   UNL     1      43.922 -18.771   4.865  1.00  0.00    -0.284 N 
HETATM   27  C   UNL     1      44.152 -19.953   5.658  1.00  0.00     0.179 C 
HETATM   28  C   UNL     1      43.528 -17.549   5.321  1.00  0.00     0.123 A 
ENDBRANCH   1  22
TORSDOF 3
ENDMDL
