MODEL 1
REMARK VINA RESULT:      -8.2      0.000      0.000
REMARK  5 active torsions:
REMARK  status: ('A' for Active; 'I' for Inactive)
REMARK    1  A    between atoms: C_3  and  O_4 
REMARK    2  A    between atoms: O_4  and  C_5 
REMARK    3  A    between atoms: C_5  and  C_6 
REMARK       I    between atoms: C_6  and  N_7 
REMARK    4  A    between atoms: N_7  and  N_8 
REMARK    5  A    between atoms: C_9  and  C_10 
ROOT
HETATM    1  C   UNL     1      44.615 -13.733   7.081  1.00  0.00     0.261 C 
HETATM    2  N   UNL     1      43.509 -14.522   6.780  1.00  0.00    -0.246 N 
HETATM    3  O   UNL     1      45.621 -13.607   6.382  1.00  0.00    -0.269 OA
HETATM    4  H   UNL     1      42.655 -14.319   7.299  1.00  0.00     0.192 HD
ENDROOT
BRANCH   2   5
HETATM    5  N   UNL     1      43.313 -15.199   5.596  1.00  0.00    -0.184 NA
HETATM    6  C   UNL     1      43.122 -16.480   5.659  1.00  0.00     0.152 C 
BRANCH   6   7
HETATM    7  C   UNL     1      42.959 -17.253   4.443  1.00  0.00     0.011 A 
HETATM    8  C   UNL     1      43.620 -18.484   4.122  1.00  0.00     0.004 A 
HETATM    9  C   UNL     1      43.168 -18.886   2.864  1.00  0.00     0.043 A 
HETATM   10  C   UNL     1      44.570 -19.291   4.784  1.00  0.00     0.014 A 
HETATM   11  C   UNL     1      43.611 -20.060   2.241  1.00  0.00     0.030 A 
HETATM   12  N   UNL     1      42.272 -17.936   2.435  1.00  0.00    -0.364 N 
HETATM   13  C   UNL     1      44.550 -20.842   2.920  1.00  0.00     0.002 A 
HETATM   14  C   UNL     1      45.024 -20.466   4.173  1.00  0.00     0.001 A 
HETATM   15  H   UNL     1      41.786 -17.966   1.548  1.00  0.00     0.165 HD
HETATM   16  C   UNL     1      42.141 -16.948   3.373  1.00  0.00     0.102 A 
ENDBRANCH   6   7
ENDBRANCH   2   5
BRANCH   1  17
HETATM   17  C   UNL     1      44.519 -13.051   8.440  1.00  0.00     0.280 C 
BRANCH  17  18
HETATM   18  O   UNL     1      44.574 -11.625   8.338  1.00  0.00    -0.341 OA
BRANCH  18  19
HETATM   19  C   UNL     1      43.863 -11.068   9.375  1.00  0.00     0.081 A 
HETATM   20  C   UNL     1      42.537 -10.647   9.176  1.00  0.00    -0.028 A 
HETATM   21  C   UNL     1      41.852 -10.759   7.845  1.00  0.00     0.051 C 
HETATM   22  C   UNL     1      41.822 -10.145  10.272  1.00  0.00     0.009 A 
HETATM   23  C   UNL     1      42.434 -10.010  11.519  1.00  0.00     0.001 A 
HETATM   24  C   UNL     1      43.770 -10.370  11.685  1.00  0.00     0.009 A 
HETATM   25  C   UNL     1      44.502 -10.905  10.617  1.00  0.00    -0.028 A 
HETATM   26  C   UNL     1      45.956 -11.236  10.804  1.00  0.00     0.051 C 
ENDBRANCH  18  19
ENDBRANCH  17  18
ENDBRANCH   1  17
TORSDOF 5
ENDMDL
MODEL 2
REMARK VINA RESULT:      -8.1      1.991      9.688
REMARK  5 active torsions:
REMARK  status: ('A' for Active; 'I' for Inactive)
REMARK    1  A    between atoms: C_3  and  O_4 
REMARK    2  A    between atoms: O_4  and  C_5 
REMARK    3  A    between atoms: C_5  and  C_6 
REMARK       I    between atoms: C_6  and  N_7 
REMARK    4  A    between atoms: N_7  and  N_8 
REMARK    5  A    between atoms: C_9  and  C_10 
ROOT
HETATM    1  C   UNL     1      43.729 -15.954   6.709  1.00  0.00     0.261 C 
HETATM    2  N   UNL     1      44.449 -14.767   6.794  1.00  0.00    -0.246 N 
HETATM    3  O   UNL     1      43.252 -16.577   7.658  1.00  0.00    -0.269 OA
HETATM    4  H   UNL     1      44.542 -14.232   5.931  1.00  0.00     0.192 HD
ENDROOT
BRANCH   2   5
HETATM    5  N   UNL     1      44.645 -14.035   7.945  1.00  0.00    -0.184 NA
HETATM    6  C   UNL     1      44.195 -12.820   7.970  1.00  0.00     0.152 C 
BRANCH   6   7
HETATM    7  C   UNL     1      44.415 -11.985   9.136  1.00  0.00     0.011 A 
HETATM    8  C   UNL     1      43.492 -11.041   9.693  1.00  0.00     0.004 A 
HETATM    9  C   UNL     1      44.103 -10.466  10.808  1.00  0.00     0.043 A 
HETATM   10  C   UNL     1      42.191 -10.615   9.346  1.00  0.00     0.014 A 
HETATM   11  C   UNL     1      43.476  -9.494  11.599  1.00  0.00     0.030 A 
HETATM   12  N   UNL     1      45.350 -11.034  10.923  1.00  0.00    -0.364 N 
HETATM   13  C   UNL     1      42.186  -9.094  11.234  1.00  0.00     0.002 A 
HETATM   14  C   UNL     1      41.552  -9.643  10.124  1.00  0.00     0.001 A 
HETATM   15  H   UNL     1      46.021 -10.803  11.643  1.00  0.00     0.165 HD
HETATM   16  C   UNL     1      45.551 -11.945   9.921  1.00  0.00     0.102 A 
ENDBRANCH   6   7
ENDBRANCH   2   5
BRANCH   1  17
HETATM   17  C   UNL     1      43.624 -16.497   5.289  1.00  0.00     0.280 C 
BRANCH  17  18
HETATM   18  O   UNL     1      42.705 -17.588   5.191  1.00  0.00    -0.341 OA
BRANCH  18  19
HETATM   19  C   UNL     1      43.161 -18.483   4.251  1.00  0.00     0.081 A 
HETATM   20  C   UNL     1      42.717 -18.397   2.921  1.00  0.00    -0.028 A 
HETATM   21  C   UNL     1      41.725 -17.364   2.472  1.00  0.00     0.051 C 
HETATM   22  C   UNL     1      43.253 -19.284   1.977  1.00  0.00     0.009 A 
HETATM   23  C   UNL     1      44.163 -20.269   2.363  1.00  0.00     0.001 A 
HETATM   24  C   UNL     1      44.544 -20.384   3.699  1.00  0.00     0.009 A 
HETATM   25  C   UNL     1      44.050 -19.493   4.660  1.00  0.00    -0.028 A 
HETATM   26  C   UNL     1      44.432 -19.668   6.103  1.00  0.00     0.051 C 
ENDBRANCH  18  19
ENDBRANCH  17  18
ENDBRANCH   1  17
TORSDOF 5
ENDMDL
MODEL 3
REMARK VINA RESULT:      -8.1      4.874      9.266
REMARK  5 active torsions:
REMARK  status: ('A' for Active; 'I' for Inactive)
REMARK    1  A    between atoms: C_3  and  O_4 
REMARK    2  A    between atoms: O_4  and  C_5 
REMARK    3  A    between atoms: C_5  and  C_6 
REMARK       I    between atoms: C_6  and  N_7 
REMARK    4  A    between atoms: N_7  and  N_8 
REMARK    5  A    between atoms: C_9  and  C_10 
ROOT
HETATM    1  C   UNL     1      42.889 -17.471   5.463  1.00  0.00     0.261 C 
HETATM    2  N   UNL     1      41.687 -17.300   4.784  1.00  0.00    -0.246 N 
HETATM    3  O   UNL     1      43.574 -16.573   5.952  1.00  0.00    -0.269 OA
HETATM    4  H   UNL     1      41.104 -18.130   4.680  1.00  0.00     0.192 HD
ENDROOT
BRANCH   2   5
HETATM    5  N   UNL     1      41.011 -16.106   4.651  1.00  0.00    -0.184 NA
HETATM    6  C   UNL     1      41.057 -15.513   3.498  1.00  0.00     0.152 C 
BRANCH   6   7
HETATM    7  C   UNL     1      40.406 -14.230   3.312  1.00  0.00     0.011 A 
HETATM    8  C   UNL     1      39.342 -13.941   2.398  1.00  0.00     0.004 A 
HETATM    9  C   UNL     1      39.013 -12.593   2.552  1.00  0.00     0.043 A 
HETATM   10  C   UNL     1      38.629 -14.701   1.445  1.00  0.00     0.014 A 
HETATM   11  C   UNL     1      38.003 -11.970   1.807  1.00  0.00     0.030 A 
HETATM   12  N   UNL     1      39.848 -12.081   3.517  1.00  0.00    -0.364 N 
HETATM   13  C   UNL     1      37.311 -12.748   0.873  1.00  0.00     0.002 A 
HETATM   14  C   UNL     1      37.618 -14.093   0.692  1.00  0.00     0.001 A 
HETATM   15  H   UNL     1      39.839 -11.121   3.833  1.00  0.00     0.165 HD
HETATM   16  C   UNL     1      40.693 -13.055   3.979  1.00  0.00     0.102 A 
ENDBRANCH   6   7
ENDBRANCH   2   5
BRANCH   1  17
HETATM   17  C   UNL     1      43.359 -18.920   5.503  1.00  0.00     0.280 C 
BRANCH  17  18
HETATM   18  O   UNL     1      44.600 -19.108   4.817  1.00  0.00    -0.341 OA
BRANCH  18  19
HETATM   19  C   UNL     1      44.426 -20.028   3.809  1.00  0.00     0.081 A 
HETATM   20  C   UNL     1      44.599 -21.398   4.066  1.00  0.00    -0.028 A 
HETATM   21  C   UNL     1      44.997 -21.916   5.418  1.00  0.00     0.051 C 
HETATM   22  C   UNL     1      44.350 -22.311   3.032  1.00  0.00     0.009 A 
HETATM   23  C   UNL     1      43.996 -21.863   1.759  1.00  0.00     0.001 A 
HETATM   24  C   UNL     1      43.892 -20.497   1.501  1.00  0.00     0.009 A 
HETATM   25  C   UNL     1      44.105 -19.562   2.522  1.00  0.00    -0.028 A 
HETATM   26  C   UNL     1      44.040 -18.093   2.209  1.00  0.00     0.051 C 
ENDBRANCH  18  19
ENDBRANCH  17  18
ENDBRANCH   1  17
TORSDOF 5
ENDMDL
MODEL 4
REMARK VINA RESULT:      -7.9      1.702      2.876
REMARK  5 active torsions:
REMARK  status: ('A' for Active; 'I' for Inactive)
REMARK    1  A    between atoms: C_3  and  O_4 
REMARK    2  A    between atoms: O_4  and  C_5 
REMARK    3  A    between atoms: C_5  and  C_6 
REMARK       I    between atoms: C_6  and  N_7 
REMARK    4  A    between atoms: N_7  and  N_8 
REMARK    5  A    between atoms: C_9  and  C_10 
ROOT
HETATM    1  C   UNL     1      44.732 -12.655   8.496  1.00  0.00     0.261 C 
HETATM    2  N   UNL     1      44.010 -13.513   7.672  1.00  0.00    -0.246 N 
HETATM    3  O   UNL     1      45.838 -12.887   8.985  1.00  0.00    -0.269 OA
HETATM    4  H   UNL     1      43.258 -13.091   7.129  1.00  0.00     0.192 HD
ENDROOT
BRANCH   2   5
HETATM    5  N   UNL     1      44.469 -14.715   7.177  1.00  0.00    -0.184 NA
HETATM    6  C   UNL     1      43.617 -15.482   6.572  1.00  0.00     0.152 C 
BRANCH   6   7
HETATM    7  C   UNL     1      44.031 -16.781   6.075  1.00  0.00     0.011 A 
HETATM    8  C   UNL     1      43.670 -17.364   4.817  1.00  0.00     0.004 A 
HETATM    9  C   UNL     1      44.291 -18.612   4.741  1.00  0.00     0.043 A 
HETATM   10  C   UNL     1      42.864 -16.948   3.735  1.00  0.00     0.014 A 
HETATM   11  C   UNL     1      44.153 -19.460   3.634  1.00  0.00     0.030 A 
HETATM   12  N   UNL     1      44.997 -18.783   5.909  1.00  0.00    -0.364 N 
HETATM   13  C   UNL     1      43.352 -19.022   2.576  1.00  0.00     0.002 A 
HETATM   14  C   UNL     1      42.715 -17.785   2.623  1.00  0.00     0.001 A 
HETATM   15  H   UNL     1      45.544 -19.604   6.133  1.00  0.00     0.165 HD
HETATM   16  C   UNL     1      44.845 -17.691   6.720  1.00  0.00     0.102 A 
ENDBRANCH   6   7
ENDBRANCH   2   5
BRANCH   1  17
HETATM   17  C   UNL     1      43.989 -11.365   8.823  1.00  0.00     0.280 C 
BRANCH  17  18
HETATM   18  O   UNL     1      42.806 -11.600   9.592  1.00  0.00    -0.341 OA
BRANCH  18  19
HETATM   19  C   UNL     1      42.779 -10.732  10.659  1.00  0.00     0.081 A 
HETATM   20  C   UNL     1      43.358 -11.103  11.884  1.00  0.00    -0.028 A 
HETATM   21  C   UNL     1      43.999 -12.443  12.095  1.00  0.00     0.051 C 
HETATM   22  C   UNL     1      43.369 -10.168  12.929  1.00  0.00     0.009 A 
HETATM   23  C   UNL     1      42.765  -8.920  12.774  1.00  0.00     0.001 A 
HETATM   24  C   UNL     1      42.137  -8.591  11.574  1.00  0.00     0.009 A 
HETATM   25  C   UNL     1      42.135  -9.492  10.500  1.00  0.00    -0.028 A 
HETATM   26  C   UNL     1      41.406  -9.139   9.235  1.00  0.00     0.051 C 
ENDBRANCH  18  19
ENDBRANCH  17  18
ENDBRANCH   1  17
TORSDOF 5
ENDMDL
MODEL 5
REMARK VINA RESULT:      -7.9      6.206      8.437
REMARK  5 active torsions:
REMARK  status: ('A' for Active; 'I' for Inactive)
REMARK    1  A    between atoms: C_3  and  O_4 
REMARK    2  A    between atoms: O_4  and  C_5 
REMARK    3  A    between atoms: C_5  and  C_6 
REMARK       I    between atoms: C_6  and  N_7 
REMARK    4  A    between atoms: N_7  and  N_8 
REMARK    5  A    between atoms: C_9  and  C_10 
ROOT
HETATM    1  C   UNL     1      41.431 -16.066   0.456  1.00  0.00     0.261 C 
HETATM    2  N   UNL     1      42.397 -17.066   0.506  1.00  0.00    -0.246 N 
HETATM    3  O   UNL     1      40.600 -15.823   1.331  1.00  0.00    -0.269 OA
HETATM    4  H   UNL     1      43.175 -16.976  -0.146  1.00  0.00     0.192 HD
ENDROOT
BRANCH   2   5
HETATM    5  N   UNL     1      42.652 -17.873   1.594  1.00  0.00    -0.184 NA
HETATM    6  C   UNL     1      43.692 -17.597   2.318  1.00  0.00     0.152 C 
BRANCH   6   7
HETATM    7  C   UNL     1      44.039 -18.440   3.446  1.00  0.00     0.011 A 
HETATM    8  C   UNL     1      44.244 -19.858   3.417  1.00  0.00     0.004 A 
HETATM    9  C   UNL     1      44.567 -20.261   4.714  1.00  0.00     0.043 A 
HETATM   10  C   UNL     1      44.178 -20.841   2.406  1.00  0.00     0.014 A 
HETATM   11  C   UNL     1      44.836 -21.595   5.048  1.00  0.00     0.030 A 
HETATM   12  N   UNL     1      44.554 -19.133   5.502  1.00  0.00    -0.364 N 
HETATM   13  C   UNL     1      44.767 -22.547   4.026  1.00  0.00     0.002 A 
HETATM   14  C   UNL     1      44.442 -22.178   2.724  1.00  0.00     0.001 A 
HETATM   15  H   UNL     1      44.748 -19.126   6.494  1.00  0.00     0.165 HD
HETATM   16  C   UNL     1      44.233 -18.034   4.752  1.00  0.00     0.102 A 
ENDBRANCH   6   7
ENDBRANCH   2   5
BRANCH   1  17
HETATM   17  C   UNL     1      41.431 -15.292  -0.857  1.00  0.00     0.280 C 
BRANCH  17  18
HETATM   18  O   UNL     1      40.642 -14.101  -0.785  1.00  0.00    -0.341 OA
BRANCH  18  19
HETATM   19  C   UNL     1      41.378 -13.040  -1.260  1.00  0.00     0.081 A 
HETATM   20  C   UNL     1      42.041 -12.184  -0.364  1.00  0.00    -0.028 A 
HETATM   21  C   UNL     1      41.962 -12.364   1.123  1.00  0.00     0.051 C 
HETATM   22  C   UNL     1      42.834 -11.153  -0.887  1.00  0.00     0.009 A 
HETATM   23  C   UNL     1      42.915 -10.946  -2.264  1.00  0.00     0.001 A 
HETATM   24  C   UNL     1      42.200 -11.763  -3.138  1.00  0.00     0.009 A 
HETATM   25  C   UNL     1      41.422 -12.821  -2.648  1.00  0.00    -0.028 A 
HETATM   26  C   UNL     1      40.617 -13.655  -3.604  1.00  0.00     0.051 C 
ENDBRANCH  18  19
ENDBRANCH  17  18
ENDBRANCH   1  17
TORSDOF 5
ENDMDL
MODEL 6
REMARK VINA RESULT:      -7.8      6.034      8.887
REMARK  5 active torsions:
REMARK  status: ('A' for Active; 'I' for Inactive)
REMARK    1  A    between atoms: C_3  and  O_4 
REMARK    2  A    between atoms: O_4  and  C_5 
REMARK    3  A    between atoms: C_5  and  C_6 
REMARK       I    between atoms: C_6  and  N_7 
REMARK    4  A    between atoms: N_7  and  N_8 
REMARK    5  A    between atoms: C_9  and  C_10 
ROOT
HETATM    1  C   UNL     1      39.369 -14.934   2.281  1.00  0.00     0.261 C 
HETATM    2  N   UNL     1      39.818 -16.227   2.029  1.00  0.00    -0.246 N 
HETATM    3  O   UNL     1      39.571 -14.289   3.310  1.00  0.00    -0.269 OA
HETATM    4  H   UNL     1      39.815 -16.524   1.054  1.00  0.00     0.192 HD
ENDROOT
BRANCH   2   5
HETATM    5  N   UNL     1      40.659 -16.951   2.846  1.00  0.00    -0.184 NA
HETATM    6  C   UNL     1      41.884 -17.116   2.455  1.00  0.00     0.152 C 
BRANCH   6   7
HETATM    7  C   UNL     1      42.802 -17.910   3.249  1.00  0.00     0.011 A 
HETATM    8  C   UNL     1      43.301 -19.214   2.922  1.00  0.00     0.004 A 
HETATM    9  C   UNL     1      44.158 -19.603   3.953  1.00  0.00     0.043 A 
HETATM   10  C   UNL     1      43.097 -20.104   1.846  1.00  0.00     0.014 A 
HETATM   11  C   UNL     1      44.828 -20.834   3.955  1.00  0.00     0.030 A 
HETATM   12  N   UNL     1      44.176 -18.581   4.872  1.00  0.00    -0.364 N 
HETATM   13  C   UNL     1      44.610 -21.695   2.875  1.00  0.00     0.002 A 
HETATM   14  C   UNL     1      43.757 -21.338   1.835  1.00  0.00     0.001 A 
HETATM   15  H   UNL     1      44.712 -18.590   5.729  1.00  0.00     0.165 HD
HETATM   16  C   UNL     1      43.362 -17.560   4.462  1.00  0.00     0.102 A 
ENDBRANCH   6   7
ENDBRANCH   2   5
BRANCH   1  17
HETATM   17  C   UNL     1      38.506 -14.366   1.161  1.00  0.00     0.280 C 
BRANCH  17  18
HETATM   18  O   UNL     1      39.170 -13.324   0.439  1.00  0.00    -0.341 OA
BRANCH  18  19
HETATM   19  C   UNL     1      38.909 -13.466  -0.904  1.00  0.00     0.081 A 
HETATM   20  C   UNL     1      39.759 -14.241  -1.710  1.00  0.00    -0.028 A 
HETATM   21  C   UNL     1      40.981 -14.920  -1.165  1.00  0.00     0.051 C 
HETATM   22  C   UNL     1      39.426 -14.416  -3.061  1.00  0.00     0.009 A 
HETATM   23  C   UNL     1      38.307 -13.785  -3.605  1.00  0.00     0.001 A 
HETATM   24  C   UNL     1      37.509 -12.965  -2.808  1.00  0.00     0.009 A 
HETATM   25  C   UNL     1      37.799 -12.795  -1.447  1.00  0.00    -0.028 A 
HETATM   26  C   UNL     1      36.957 -11.865  -0.620  1.00  0.00     0.051 C 
ENDBRANCH  18  19
ENDBRANCH  17  18
ENDBRANCH   1  17
TORSDOF 5
ENDMDL
MODEL 7
REMARK VINA RESULT:      -7.8      5.578      9.258
REMARK  5 active torsions:
REMARK  status: ('A' for Active; 'I' for Inactive)
REMARK    1  A    between atoms: C_3  and  O_4 
REMARK    2  A    between atoms: O_4  and  C_5 
REMARK    3  A    between atoms: C_5  and  C_6 
REMARK       I    between atoms: C_6  and  N_7 
REMARK    4  A    between atoms: N_7  and  N_8 
REMARK    5  A    between atoms: C_9  and  C_10 
ROOT
HETATM    1  C   UNL     1      40.923 -16.353   2.444  1.00  0.00     0.261 C 
HETATM    2  N   UNL     1      41.522 -15.223   1.897  1.00  0.00    -0.246 N 
HETATM    3  O   UNL     1      39.898 -16.896   2.032  1.00  0.00    -0.269 OA
HETATM    4  H   UNL     1      42.492 -15.052   2.162  1.00  0.00     0.192 HD
ENDROOT
BRANCH   2   5
HETATM    5  N   UNL     1      41.127 -14.597   0.734  1.00  0.00    -0.184 NA
HETATM    6  C   UNL     1      41.622 -15.032  -0.383  1.00  0.00     0.152 C 
BRANCH   6   7
HETATM    7  C   UNL     1      41.282 -14.381  -1.633  1.00  0.00     0.011 A 
HETATM    8  C   UNL     1      41.766 -13.112  -2.090  1.00  0.00     0.004 A 
HETATM    9  C   UNL     1      41.194 -12.872  -3.341  1.00  0.00     0.043 A 
HETATM   10  C   UNL     1      42.635 -12.138  -1.552  1.00  0.00     0.014 A 
HETATM   11  C   UNL     1      41.455 -11.712  -4.083  1.00  0.00     0.030 A 
HETATM   12  N   UNL     1      40.390 -13.949  -3.631  1.00  0.00    -0.364 N 
HETATM   13  C   UNL     1      42.322 -10.766  -3.527  1.00  0.00     0.002 A 
HETATM   14  C   UNL     1      42.904 -10.973  -2.280  1.00  0.00     0.001 A 
HETATM   15  H   UNL     1      39.844 -14.046  -4.476  1.00  0.00     0.165 HD
HETATM   16  C   UNL     1      40.432 -14.860  -2.610  1.00  0.00     0.102 A 
ENDBRANCH   6   7
ENDBRANCH   2   5
BRANCH   1  17
HETATM   17  C   UNL     1      41.625 -16.861   3.698  1.00  0.00     0.280 C 
BRANCH  17  18
HETATM   18  O   UNL     1      43.047 -16.737   3.613  1.00  0.00    -0.341 OA
BRANCH  18  19
HETATM   19  C   UNL     1      43.617 -17.987   3.693  1.00  0.00     0.081 A 
HETATM   20  C   UNL     1      43.904 -18.551   4.947  1.00  0.00    -0.028 A 
HETATM   21  C   UNL     1      43.634 -17.827   6.233  1.00  0.00     0.051 C 
HETATM   22  C   UNL     1      44.424 -19.853   4.992  1.00  0.00     0.009 A 
HETATM   23  C   UNL     1      44.706 -20.547   3.815  1.00  0.00     0.001 A 
HETATM   24  C   UNL     1      44.476 -19.948   2.578  1.00  0.00     0.009 A 
HETATM   25  C   UNL     1      43.929 -18.661   2.500  1.00  0.00    -0.028 A 
HETATM   26  C   UNL     1      43.740 -18.014   1.157  1.00  0.00     0.051 C 
ENDBRANCH  18  19
ENDBRANCH  17  18
ENDBRANCH   1  17
TORSDOF 5
ENDMDL
MODEL 8
REMARK VINA RESULT:      -7.7      6.419      8.701
REMARK  5 active torsions:
REMARK  status: ('A' for Active; 'I' for Inactive)
REMARK    1  A    between atoms: C_3  and  O_4 
REMARK    2  A    between atoms: O_4  and  C_5 
REMARK    3  A    between atoms: C_5  and  C_6 
REMARK       I    between atoms: C_6  and  N_7 
REMARK    4  A    between atoms: N_7  and  N_8 
REMARK    5  A    between atoms: C_9  and  C_10 
ROOT
HETATM    1  C   UNL     1      41.420 -15.901   1.120  1.00  0.00     0.261 C 
HETATM    2  N   UNL     1      42.141 -15.819   2.307  1.00  0.00    -0.246 N 
HETATM    3  O   UNL     1      41.051 -16.940   0.572  1.00  0.00    -0.269 OA
HETATM    4  H   UNL     1      42.136 -14.914   2.776  1.00  0.00     0.192 HD
ENDROOT
BRANCH   2   5
HETATM    5  N   UNL     1      42.458 -16.885   3.121  1.00  0.00    -0.184 NA
HETATM    6  C   UNL     1      43.689 -17.291   3.128  1.00  0.00     0.152 C 
BRANCH   6   7
HETATM    7  C   UNL     1      44.073 -18.440   3.927  1.00  0.00     0.011 A 
HETATM    8  C   UNL     1      44.190 -19.793   3.470  1.00  0.00     0.004 A 
HETATM    9  C   UNL     1      44.590 -20.569   4.559  1.00  0.00     0.043 A 
HETATM   10  C   UNL     1      43.986 -20.433   2.228  1.00  0.00     0.014 A 
HETATM   11  C   UNL     1      44.804 -21.950   4.467  1.00  0.00     0.030 A 
HETATM   12  N   UNL     1      44.705 -19.722   5.637  1.00  0.00    -0.364 N 
HETATM   13  C   UNL     1      44.598 -22.558   3.224  1.00  0.00     0.002 A 
HETATM   14  C   UNL     1      44.194 -21.813   2.120  1.00  0.00     0.001 A 
HETATM   15  H   UNL     1      44.977 -20.013   6.567  1.00  0.00     0.165 HD
HETATM   16  C   UNL     1      44.393 -18.441   5.270  1.00  0.00     0.102 A 
ENDBRANCH   6   7
ENDBRANCH   2   5
BRANCH   1  17
HETATM   17  C   UNL     1      41.162 -14.545   0.474  1.00  0.00     0.280 C 
BRANCH  17  18
HETATM   18  O   UNL     1      40.001 -14.552  -0.361  1.00  0.00    -0.341 OA
BRANCH  18  19
HETATM   19  C   UNL     1      40.193 -13.687  -1.412  1.00  0.00     0.081 A 
HETATM   20  C   UNL     1      39.851 -12.330  -1.281  1.00  0.00    -0.028 A 
HETATM   21  C   UNL     1      39.250 -11.774  -0.023  1.00  0.00     0.051 C 
HETATM   22  C   UNL     1      40.121 -11.465  -2.350  1.00  0.00     0.009 A 
HETATM   23  C   UNL     1      40.662 -11.951  -3.540  1.00  0.00     0.001 A 
HETATM   24  C   UNL     1      40.935 -13.311  -3.680  1.00  0.00     0.009 A 
HETATM   25  C   UNL     1      40.705 -14.197  -2.619  1.00  0.00    -0.028 A 
HETATM   26  C   UNL     1      40.956 -15.666  -2.809  1.00  0.00     0.051 C 
ENDBRANCH  18  19
ENDBRANCH  17  18
ENDBRANCH   1  17
TORSDOF 5
ENDMDL
MODEL 9
REMARK VINA RESULT:      -7.7      5.666      9.115
REMARK  5 active torsions:
REMARK  status: ('A' for Active; 'I' for Inactive)
REMARK    1  A    between atoms: C_3  and  O_4 
REMARK    2  A    between atoms: O_4  and  C_5 
REMARK    3  A    between atoms: C_5  and  C_6 
REMARK       I    between atoms: C_6  and  N_7 
REMARK    4  A    between atoms: N_7  and  N_8 
REMARK    5  A    between atoms: C_9  and  C_10 
ROOT
HETATM    1  C   UNL     1      40.898 -16.411   2.520  1.00  0.00     0.261 C 
HETATM    2  N   UNL     1      41.506 -15.283   1.980  1.00  0.00    -0.246 N 
HETATM    3  O   UNL     1      39.885 -16.961   2.088  1.00  0.00    -0.269 OA
HETATM    4  H   UNL     1      42.469 -15.107   2.266  1.00  0.00     0.192 HD
ENDROOT
BRANCH   2   5
HETATM    5  N   UNL     1      41.136 -14.665   0.804  1.00  0.00    -0.184 NA
HETATM    6  C   UNL     1      41.616 -15.141  -0.303  1.00  0.00     0.152 C 
BRANCH   6   7
HETATM    7  C   UNL     1      41.302 -14.502  -1.567  1.00  0.00     0.011 A 
HETATM    8  C   UNL     1      41.779 -13.229  -2.019  1.00  0.00     0.004 A 
HETATM    9  C   UNL     1      41.240 -13.006  -3.287  1.00  0.00     0.043 A 
HETATM   10  C   UNL     1      42.619 -12.240  -1.463  1.00  0.00     0.014 A 
HETATM   11  C   UNL     1      41.504 -11.847  -4.029  1.00  0.00     0.030 A 
HETATM   12  N   UNL     1      40.460 -14.097  -3.591  1.00  0.00    -0.364 N 
HETATM   13  C   UNL     1      42.341 -10.885  -3.455  1.00  0.00     0.002 A 
HETATM   14  C   UNL     1      42.891 -11.076  -2.191  1.00  0.00     0.001 A 
HETATM   15  H   UNL     1      39.939 -14.207  -4.451  1.00  0.00     0.165 HD
HETATM   16  C   UNL     1      40.486 -15.001  -2.564  1.00  0.00     0.102 A 
ENDBRANCH   6   7
ENDBRANCH   2   5
BRANCH   1  17
HETATM   17  C   UNL     1      41.572 -16.908   3.794  1.00  0.00     0.280 C 
BRANCH  17  18
HETATM   18  O   UNL     1      42.996 -16.783   3.739  1.00  0.00    -0.341 OA
BRANCH  18  19
HETATM   19  C   UNL     1      43.563 -18.036   3.759  1.00  0.00     0.081 A 
HETATM   20  C   UNL     1      43.912 -18.672   2.556  1.00  0.00    -0.028 A 
HETATM   21  C   UNL     1      43.668 -18.041   1.216  1.00  0.00     0.051 C 
HETATM   22  C   UNL     1      44.547 -19.920   2.618  1.00  0.00     0.009 A 
HETATM   23  C   UNL     1      44.772 -20.543   3.846  1.00  0.00     0.001 A 
HETATM   24  C   UNL     1      44.361 -19.930   5.028  1.00  0.00     0.009 A 
HETATM   25  C   UNL     1      43.751 -18.668   5.001  1.00  0.00    -0.028 A 
HETATM   26  C   UNL     1      43.268 -18.049   6.282  1.00  0.00     0.051 C 
ENDBRANCH  18  19
ENDBRANCH  17  18
ENDBRANCH   1  17
TORSDOF 5
ENDMDL
MODEL 10
REMARK VINA RESULT:      -7.6      5.867      9.075
REMARK  5 active torsions:
REMARK  status: ('A' for Active; 'I' for Inactive)
REMARK    1  A    between atoms: C_3  and  O_4 
REMARK    2  A    between atoms: O_4  and  C_5 
REMARK    3  A    between atoms: C_5  and  C_6 
REMARK       I    between atoms: C_6  and  N_7 
REMARK    4  A    between atoms: N_7  and  N_8 
REMARK    5  A    between atoms: C_9  and  C_10 
ROOT
HETATM    1  C   UNL     1      41.381 -16.520   3.955  1.00  0.00     0.261 C 
HETATM    2  N   UNL     1      40.644 -16.881   2.832  1.00  0.00    -0.246 N 
HETATM    3  O   UNL     1      41.556 -15.372   4.364  1.00  0.00    -0.269 OA
HETATM    4  H   UNL     1      40.358 -17.858   2.773  1.00  0.00     0.192 HD
ENDROOT
BRANCH   2   5
HETATM    5  N   UNL     1      39.895 -16.018   2.060  1.00  0.00    -0.184 NA
HETATM    6  C   UNL     1      40.456 -15.509   1.009  1.00  0.00     0.152 C 
BRANCH   6   7
HETATM    7  C   UNL     1      39.735 -14.556   0.187  1.00  0.00     0.011 A 
HETATM    8  C   UNL     1      40.084 -14.140  -1.139  1.00  0.00     0.004 A 
HETATM    9  C   UNL     1      39.118 -13.224  -1.559  1.00  0.00     0.043 A 
HETATM   10  C   UNL     1      41.140 -14.454  -2.022  1.00  0.00     0.014 A 
HETATM   11  C   UNL     1      39.151 -12.613  -2.819  1.00  0.00     0.030 A 
HETATM   12  N   UNL     1      38.220 -13.084  -0.527  1.00  0.00    -0.364 N 
HETATM   13  C   UNL     1      40.206 -12.945  -3.675  1.00  0.00     0.002 A 
HETATM   14  C   UNL     1      41.188 -13.851  -3.284  1.00  0.00     0.001 A 
HETATM   15  H   UNL     1      37.413 -12.475  -0.549  1.00  0.00     0.165 HD
HETATM   16  C   UNL     1      38.582 -13.876   0.529  1.00  0.00     0.102 A 
ENDBRANCH   6   7
ENDBRANCH   2   5
BRANCH   1  17
HETATM   17  C   UNL     1      42.048 -17.704   4.645  1.00  0.00     0.280 C 
BRANCH  17  18
HETATM   18  O   UNL     1      43.471 -17.685   4.502  1.00  0.00    -0.341 OA
BRANCH  18  19
HETATM   19  C   UNL     1      43.921 -18.964   4.268  1.00  0.00     0.081 A 
HETATM   20  C   UNL     1      44.268 -19.797   5.344  1.00  0.00    -0.028 A 
HETATM   21  C   UNL     1      44.192 -19.338   6.770  1.00  0.00     0.051 C 
HETATM   22  C   UNL     1      44.660 -21.115   5.070  1.00  0.00     0.009 A 
HETATM   23  C   UNL     1      44.760 -21.569   3.755  1.00  0.00     0.001 A 
HETATM   24  C   UNL     1      44.475 -20.711   2.695  1.00  0.00     0.009 A 
HETATM   25  C   UNL     1      44.051 -19.397   2.936  1.00  0.00    -0.028 A 
HETATM   26  C   UNL     1      43.801 -18.472   1.779  1.00  0.00     0.051 C 
ENDBRANCH  18  19
ENDBRANCH  17  18
ENDBRANCH   1  17
TORSDOF 5
ENDMDL
