MODEL 1
REMARK VINA RESULT:      -8.8      0.000      0.000
REMARK  5 active torsions:
REMARK  status: ('A' for Active; 'I' for Inactive)
REMARK    1  A    between atoms: C_4  and  C_5 
REMARK    2  A    between atoms: C_5  and  S_6 
REMARK    3  A    between atoms: S_6  and  C_7 
REMARK    4  A    between atoms: C_9  and  C_10 
REMARK       I    between atoms: C_10  and  N_11 
REMARK    5  A    between atoms: N_11  and  C_12 
ROOT
HETATM    1  C   UNL     1      42.573 -17.174   5.848  1.00  0.00     0.189 A 
HETATM    2  N   UNL     1      42.970 -16.346   4.870  1.00  0.00    -0.216 NA
HETATM    3  C   UNL     1      42.114 -15.321   4.564  1.00  0.00     0.150 A 
HETATM    4  C   UNL     1      40.927 -15.084   5.234  1.00  0.00     0.086 A 
HETATM    5 CL   UNL     1      39.828 -13.794   4.974  1.00  0.00    -0.080 Cl
HETATM    6  C   UNL     1      40.652 -15.988   6.234  1.00  0.00     0.146 A 
HETATM    7  N   UNL     1      41.443 -17.033   6.552  1.00  0.00    -0.234 NA
ENDROOT
BRANCH   3   8
HETATM    8  C   UNL     1      42.583 -14.467   3.415  1.00  0.00     0.278 C 
HETATM    9  N   UNL     1      41.620 -14.308   2.440  1.00  0.00    -0.300 N 
HETATM   10  H   UNL     1      40.715 -14.741   2.570  1.00  0.00     0.171 HD
HETATM   11  O   UNL     1      43.707 -13.989   3.406  1.00  0.00    -0.265 OA
BRANCH   9  12
HETATM   12  C   UNL     1      41.836 -13.586   1.301  1.00  0.00     0.174 A 
HETATM   13  S   UNL     1      41.461 -14.420  -0.137  1.00  0.00    -0.050 SA
HETATM   14  C   UNL     1      41.964 -13.045  -1.052  1.00  0.00     0.039 A 
HETATM   15  C   UNL     1      42.363 -12.040  -0.167  1.00  0.00     0.077 A 
HETATM   16  C   UNL     1      42.000 -12.868  -2.445  1.00  0.00     0.045 A 
HETATM   17  N   UNL     1      42.291 -12.369   1.172  1.00  0.00    -0.223 NA
HETATM   18  C   UNL     1      42.799 -10.805  -0.691  1.00  0.00     0.035 A 
HETATM   19  C   UNL     1      42.836 -10.612  -2.076  1.00  0.00     0.026 A 
HETATM   20  C   UNL     1      42.445 -11.635  -2.934  1.00  0.00     0.035 A 
HETATM   21 CL   UNL     1      42.508 -11.381  -4.636  1.00  0.00    -0.084 Cl
ENDBRANCH   9  12
ENDBRANCH   3   8
BRANCH   1  22
HETATM   22  S   UNL     1      43.550 -18.602   6.200  1.00  0.00    -0.086 SA
BRANCH  22  23
HETATM   23  C   UNL     1      44.640 -18.566   4.751  1.00  0.00     0.121 C 
BRANCH  23  24
HETATM   24  C   UNL     1      44.386 -19.747   3.848  1.00  0.00    -0.049 A 
HETATM   25  C   UNL     1      44.786 -21.038   4.228  1.00  0.00     0.008 A 
HETATM   26  C   UNL     1      44.577 -22.125   3.376  1.00  0.00     0.001 A 
HETATM   27  C   UNL     1      43.969 -21.934   2.136  1.00  0.00     0.000 A 
HETATM   28  C   UNL     1      43.572 -20.657   1.746  1.00  0.00     0.001 A 
HETATM   29  C   UNL     1      43.782 -19.568   2.593  1.00  0.00     0.008 A 
ENDBRANCH  23  24
ENDBRANCH  22  23
ENDBRANCH   1  22
TORSDOF 5
ENDMDL
MODEL 2
REMARK VINA RESULT:      -8.8      1.505      1.847
REMARK  5 active torsions:
REMARK  status: ('A' for Active; 'I' for Inactive)
REMARK    1  A    between atoms: C_4  and  C_5 
REMARK    2  A    between atoms: C_5  and  S_6 
REMARK    3  A    between atoms: S_6  and  C_7 
REMARK    4  A    between atoms: C_9  and  C_10 
REMARK       I    between atoms: C_10  and  N_11 
REMARK    5  A    between atoms: N_11  and  C_12 
ROOT
HETATM    1  C   UNL     1      42.644 -17.679   5.972  1.00  0.00     0.189 A 
HETATM    2  N   UNL     1      42.820 -17.068   4.792  1.00  0.00    -0.216 NA
HETATM    3  C   UNL     1      41.926 -16.074   4.488  1.00  0.00     0.150 A 
HETATM    4  C   UNL     1      40.920 -15.658   5.341  1.00  0.00     0.086 A 
HETATM    5 CL   UNL     1      39.802 -14.383   5.084  1.00  0.00    -0.080 Cl
HETATM    6  C   UNL     1      40.867 -16.345   6.531  1.00  0.00     0.146 A 
HETATM    7  N   UNL     1      41.701 -17.352   6.864  1.00  0.00    -0.234 NA
ENDROOT
BRANCH   3   8
HETATM    8  C   UNL     1      42.135 -15.473   3.122  1.00  0.00     0.278 C 
HETATM    9  N   UNL     1      41.001 -15.522   2.338  1.00  0.00    -0.300 N 
HETATM   10  H   UNL     1      40.156 -15.923   2.724  1.00  0.00     0.171 HD
HETATM   11  O   UNL     1      43.216 -15.002   2.802  1.00  0.00    -0.265 OA
BRANCH   9  12
HETATM   12  C   UNL     1      40.968 -15.049   1.058  1.00  0.00     0.174 A 
HETATM   13  S   UNL     1      40.658 -13.377   0.938  1.00  0.00    -0.050 SA
HETATM   14  C   UNL     1      40.726 -13.500  -0.783  1.00  0.00     0.039 A 
HETATM   15  C   UNL     1      41.006 -14.825  -1.127  1.00  0.00     0.077 A 
HETATM   16  C   UNL     1      40.549 -12.500  -1.754  1.00  0.00     0.045 A 
HETATM   17  N   UNL     1      41.132 -15.697  -0.063  1.00  0.00    -0.223 NA
HETATM   18  C   UNL     1      41.129 -15.163  -2.490  1.00  0.00     0.035 A 
HETATM   19  C   UNL     1      40.960 -14.178  -3.469  1.00  0.00     0.026 A 
HETATM   20  C   UNL     1      40.670 -12.868  -3.098  1.00  0.00     0.035 A 
HETATM   21 CL   UNL     1      40.454 -11.672  -4.318  1.00  0.00    -0.084 Cl
ENDBRANCH   9  12
ENDBRANCH   3   8
BRANCH   1  22
HETATM   22  S   UNL     1      43.663 -19.065   6.371  1.00  0.00    -0.086 SA
BRANCH  22  23
HETATM   23  C   UNL     1      44.820 -18.978   4.977  1.00  0.00     0.121 C 
BRANCH  23  24
HETATM   24  C   UNL     1      44.507 -20.030   3.942  1.00  0.00    -0.049 A 
HETATM   25  C   UNL     1      44.815 -21.379   4.177  1.00  0.00     0.008 A 
HETATM   26  C   UNL     1      44.553 -22.346   3.204  1.00  0.00     0.001 A 
HETATM   27  C   UNL     1      43.983 -21.976   1.987  1.00  0.00     0.000 A 
HETATM   28  C   UNL     1      43.678 -20.639   1.740  1.00  0.00     0.001 A 
HETATM   29  C   UNL     1      43.941 -19.670   2.709  1.00  0.00     0.008 A 
ENDBRANCH  23  24
ENDBRANCH  22  23
ENDBRANCH   1  22
TORSDOF 5
ENDMDL
MODEL 3
REMARK VINA RESULT:      -8.7      4.963      8.705
REMARK  5 active torsions:
REMARK  status: ('A' for Active; 'I' for Inactive)
REMARK    1  A    between atoms: C_4  and  C_5 
REMARK    2  A    between atoms: C_5  and  S_6 
REMARK    3  A    between atoms: S_6  and  C_7 
REMARK    4  A    between atoms: C_9  and  C_10 
REMARK       I    between atoms: C_10  and  N_11 
REMARK    5  A    between atoms: N_11  and  C_12 
ROOT
HETATM    1  C   UNL     1      40.148 -11.604   6.522  1.00  0.00     0.189 A 
HETATM    2  N   UNL     1      41.024 -12.517   6.077  1.00  0.00    -0.216 NA
HETATM    3  C   UNL     1      40.740 -13.082   4.861  1.00  0.00     0.150 A 
HETATM    4  C   UNL     1      39.656 -12.724   4.080  1.00  0.00     0.086 A 
HETATM    5 CL   UNL     1      39.256 -13.319   2.523  1.00  0.00    -0.080 Cl
HETATM    6  C   UNL     1      38.853 -11.756   4.638  1.00  0.00     0.146 A 
HETATM    7  N   UNL     1      39.069 -11.192   5.845  1.00  0.00    -0.234 NA
ENDROOT
BRANCH   3   8
HETATM    8  C   UNL     1      41.724 -14.146   4.448  1.00  0.00     0.278 C 
HETATM    9  N   UNL     1      41.206 -15.421   4.553  1.00  0.00    -0.300 N 
HETATM   10  H   UNL     1      40.252 -15.538   4.869  1.00  0.00     0.171 HD
HETATM   11  O   UNL     1      42.844 -13.850   4.063  1.00  0.00    -0.265 OA
BRANCH   9  12
HETATM   12  C   UNL     1      41.930 -16.538   4.247  1.00  0.00     0.174 A 
HETATM   13  S   UNL     1      41.568 -17.208   2.722  1.00  0.00    -0.050 SA
HETATM   14  C   UNL     1      42.716 -18.464   3.015  1.00  0.00     0.039 A 
HETATM   15  C   UNL     1      43.304 -18.251   4.265  1.00  0.00     0.077 A 
HETATM   16  C   UNL     1      43.071 -19.553   2.202  1.00  0.00     0.045 A 
HETATM   17  N   UNL     1      42.837 -17.151   4.957  1.00  0.00    -0.223 NA
HETATM   18  C   UNL     1      44.295 -19.148   4.712  1.00  0.00     0.035 A 
HETATM   19  C   UNL     1      44.663 -20.234   3.911  1.00  0.00     0.026 A 
HETATM   20  C   UNL     1      44.051 -20.429   2.677  1.00  0.00     0.035 A 
HETATM   21 CL   UNL     1      44.510 -21.779   1.710  1.00  0.00    -0.084 Cl
ENDBRANCH   9  12
ENDBRANCH   3   8
BRANCH   1  22
HETATM   22  S   UNL     1      40.365 -10.938   8.143  1.00  0.00    -0.086 SA
BRANCH  22  23
HETATM   23  C   UNL     1      42.156 -10.653   8.096  1.00  0.00     0.121 C 
BRANCH  23  24
HETATM   24  C   UNL     1      42.716 -10.474   9.485  1.00  0.00    -0.049 A 
HETATM   25  C   UNL     1      42.025  -9.716  10.443  1.00  0.00     0.008 A 
HETATM   26  C   UNL     1      42.561  -9.525  11.719  1.00  0.00     0.001 A 
HETATM   27  C   UNL     1      43.793 -10.088  12.050  1.00  0.00     0.000 A 
HETATM   28  C   UNL     1      44.490 -10.839  11.107  1.00  0.00     0.001 A 
HETATM   29  C   UNL     1      43.958 -11.029   9.830  1.00  0.00     0.008 A 
ENDBRANCH  23  24
ENDBRANCH  22  23
ENDBRANCH   1  22
TORSDOF 5
ENDMDL
MODEL 4
REMARK VINA RESULT:      -8.4      2.422      2.922
REMARK  5 active torsions:
REMARK  status: ('A' for Active; 'I' for Inactive)
REMARK    1  A    between atoms: C_4  and  C_5 
REMARK    2  A    between atoms: C_5  and  S_6 
REMARK    3  A    between atoms: S_6  and  C_7 
REMARK    4  A    between atoms: C_9  and  C_10 
REMARK       I    between atoms: C_10  and  N_11 
REMARK    5  A    between atoms: N_11  and  C_12 
ROOT
HETATM    1  C   UNL     1      43.555 -17.483   6.271  1.00  0.00     0.189 A 
HETATM    2  N   UNL     1      43.032 -16.824   5.226  1.00  0.00    -0.216 NA
HETATM    3  C   UNL     1      42.980 -15.459   5.339  1.00  0.00     0.150 A 
HETATM    4  C   UNL     1      43.476 -14.757   6.423  1.00  0.00     0.086 A 
HETATM    5 CL   UNL     1      43.522 -13.055   6.625  1.00  0.00    -0.080 Cl
HETATM    6  C   UNL     1      44.012 -15.549   7.412  1.00  0.00     0.146 A 
HETATM    7  N   UNL     1      44.057 -16.897   7.365  1.00  0.00    -0.234 NA
ENDROOT
BRANCH   3   8
HETATM    8  C   UNL     1      42.322 -14.783   4.164  1.00  0.00     0.278 C 
HETATM    9  N   UNL     1      41.469 -15.620   3.475  1.00  0.00    -0.300 N 
HETATM   10  H   UNL     1      41.346 -16.570   3.802  1.00  0.00     0.171 HD
HETATM   11  O   UNL     1      42.554 -13.612   3.902  1.00  0.00    -0.265 OA
BRANCH   9  12
HETATM   12  C   UNL     1      40.780 -15.220   2.366  1.00  0.00     0.174 A 
HETATM   13  S   UNL     1      41.674 -15.309   0.918  1.00  0.00    -0.050 SA
HETATM   14  C   UNL     1      40.315 -14.684   0.055  1.00  0.00     0.039 A 
HETATM   15  C   UNL     1      39.269 -14.476   0.957  1.00  0.00     0.077 A 
HETATM   16  C   UNL     1      40.184 -14.401  -1.315  1.00  0.00     0.045 A 
HETATM   17  N   UNL     1      39.555 -14.780   2.273  1.00  0.00    -0.223 NA
HETATM   18  C   UNL     1      38.040 -13.983   0.472  1.00  0.00     0.035 A 
HETATM   19  C   UNL     1      37.892 -13.703  -0.891  1.00  0.00     0.026 A 
HETATM   20  C   UNL     1      38.956 -13.907  -1.764  1.00  0.00     0.035 A 
HETATM   21 CL   UNL     1      38.758 -13.544  -3.436  1.00  0.00    -0.084 Cl
ENDBRANCH   9  12
ENDBRANCH   3   8
BRANCH   1  22
HETATM   22  S   UNL     1      43.522 -19.248   6.264  1.00  0.00    -0.086 SA
BRANCH  22  23
HETATM   23  C   UNL     1      44.959 -19.556   5.203  1.00  0.00     0.121 C 
BRANCH  23  24
HETATM   24  C   UNL     1      44.565 -20.301   3.952  1.00  0.00    -0.049 A 
HETATM   25  C   UNL     1      43.890 -19.645   2.911  1.00  0.00     0.008 A 
HETATM   26  C   UNL     1      43.498 -20.344   1.768  1.00  0.00     0.001 A 
HETATM   27  C   UNL     1      43.774 -21.706   1.653  1.00  0.00     0.000 A 
HETATM   28  C   UNL     1      44.440 -22.369   2.681  1.00  0.00     0.001 A 
HETATM   29  C   UNL     1      44.830 -21.674   3.827  1.00  0.00     0.008 A 
ENDBRANCH  23  24
ENDBRANCH  22  23
ENDBRANCH   1  22
TORSDOF 5
ENDMDL
MODEL 5
REMARK VINA RESULT:      -8.4      1.669      2.019
REMARK  5 active torsions:
REMARK  status: ('A' for Active; 'I' for Inactive)
REMARK    1  A    between atoms: C_4  and  C_5 
REMARK    2  A    between atoms: C_5  and  S_6 
REMARK    3  A    between atoms: S_6  and  C_7 
REMARK    4  A    between atoms: C_9  and  C_10 
REMARK       I    between atoms: C_10  and  N_11 
REMARK    5  A    between atoms: N_11  and  C_12 
ROOT
HETATM    1  C   UNL     1      41.420 -16.253   4.911  1.00  0.00     0.189 A 
HETATM    2  N   UNL     1      41.354 -15.710   3.687  1.00  0.00    -0.216 NA
HETATM    3  C   UNL     1      40.632 -14.550   3.580  1.00  0.00     0.150 A 
HETATM    4  C   UNL     1      40.037 -13.913   4.654  1.00  0.00     0.086 A 
HETATM    5 CL   UNL     1      39.178 -12.429   4.634  1.00  0.00    -0.080 Cl
HETATM    6  C   UNL     1      40.205 -14.557   5.857  1.00  0.00     0.146 A 
HETATM    7  N   UNL     1      40.877 -15.717   6.011  1.00  0.00    -0.234 NA
ENDROOT
BRANCH   3   8
HETATM    8  C   UNL     1      40.539 -14.027   2.170  1.00  0.00     0.278 C 
HETATM    9  N   UNL     1      41.744 -13.548   1.697  1.00  0.00    -0.300 N 
HETATM   10  H   UNL     1      42.558 -13.594   2.296  1.00  0.00     0.171 HD
HETATM   11  O   UNL     1      39.482 -14.056   1.558  1.00  0.00    -0.265 OA
BRANCH   9  12
HETATM   12  C   UNL     1      41.885 -13.011   0.450  1.00  0.00     0.174 A 
HETATM   13  S   UNL     1      42.076 -11.318   0.435  1.00  0.00    -0.050 SA
HETATM   14  C   UNL     1      42.153 -11.353  -1.289  1.00  0.00     0.039 A 
HETATM   15  C   UNL     1      42.045 -12.680  -1.715  1.00  0.00     0.077 A 
HETATM   16  C   UNL     1      42.299 -10.290  -2.196  1.00  0.00     0.045 A 
HETATM   17  N   UNL     1      41.885 -13.612  -0.709  1.00  0.00    -0.223 NA
HETATM   18  C   UNL     1      42.103 -12.958  -3.097  1.00  0.00     0.035 A 
HETATM   19  C   UNL     1      42.254 -11.911  -4.011  1.00  0.00     0.026 A 
HETATM   20  C   UNL     1      42.345 -10.598  -3.560  1.00  0.00     0.035 A 
HETATM   21 CL   UNL     1      42.519  -9.321  -4.703  1.00  0.00    -0.084 Cl
ENDBRANCH   9  12
ENDBRANCH   3   8
BRANCH   1  22
HETATM   22  S   UNL     1      42.207 -17.822   5.103  1.00  0.00    -0.086 SA
BRANCH  22  23
HETATM   23  C   UNL     1      43.076 -17.901   3.514  1.00  0.00     0.121 C 
BRANCH  23  24
HETATM   24  C   UNL     1      43.552 -19.302   3.221  1.00  0.00    -0.049 A 
HETATM   25  C   UNL     1      44.358 -19.991   4.141  1.00  0.00     0.008 A 
HETATM   26  C   UNL     1      44.823 -21.276   3.854  1.00  0.00     0.001 A 
HETATM   27  C   UNL     1      44.489 -21.886   2.645  1.00  0.00     0.000 A 
HETATM   28  C   UNL     1      43.693 -21.211   1.723  1.00  0.00     0.001 A 
HETATM   29  C   UNL     1      43.230 -19.925   2.005  1.00  0.00     0.008 A 
ENDBRANCH  23  24
ENDBRANCH  22  23
ENDBRANCH   1  22
TORSDOF 5
ENDMDL
MODEL 6
REMARK VINA RESULT:      -8.3      3.429      8.450
REMARK  5 active torsions:
REMARK  status: ('A' for Active; 'I' for Inactive)
REMARK    1  A    between atoms: C_4  and  C_5 
REMARK    2  A    between atoms: C_5  and  S_6 
REMARK    3  A    between atoms: S_6  and  C_7 
REMARK    4  A    between atoms: C_9  and  C_10 
REMARK       I    between atoms: C_10  and  N_11 
REMARK    5  A    between atoms: N_11  and  C_12 
ROOT
HETATM    1  C   UNL     1      40.025 -12.862   0.649  1.00  0.00     0.189 A 
HETATM    2  N   UNL     1      40.315 -14.152   0.874  1.00  0.00    -0.216 NA
HETATM    3  C   UNL     1      40.305 -14.552   2.185  1.00  0.00     0.150 A 
HETATM    4  C   UNL     1      39.967 -13.723   3.240  1.00  0.00     0.086 A 
HETATM    5 CL   UNL     1      39.856 -14.146   4.897  1.00  0.00    -0.080 Cl
HETATM    6  C   UNL     1      39.661 -12.434   2.870  1.00  0.00     0.146 A 
HETATM    7  N   UNL     1      39.689 -11.981   1.599  1.00  0.00    -0.234 NA
ENDROOT
BRANCH   3   8
HETATM    8  C   UNL     1      40.704 -15.992   2.377  1.00  0.00     0.278 C 
HETATM    9  N   UNL     1      42.035 -16.137   2.710  1.00  0.00    -0.300 N 
HETATM   10  H   UNL     1      42.609 -15.309   2.807  1.00  0.00     0.171 HD
HETATM   11  O   UNL     1      39.889 -16.893   2.246  1.00  0.00    -0.265 OA
BRANCH   9  12
HETATM   12  C   UNL     1      42.616 -17.356   2.914  1.00  0.00     0.174 A 
HETATM   13  S   UNL     1      43.088 -17.643   4.526  1.00  0.00    -0.050 SA
HETATM   14  C   UNL     1      43.702 -19.187   4.058  1.00  0.00     0.039 A 
HETATM   15  C   UNL     1      43.472 -19.366   2.692  1.00  0.00     0.077 A 
HETATM   16  C   UNL     1      44.337 -20.167   4.840  1.00  0.00     0.045 A 
HETATM   17  N   UNL     1      42.859 -18.307   2.053  1.00  0.00    -0.223 NA
HETATM   18  C   UNL     1      43.875 -20.574   2.085  1.00  0.00     0.035 A 
HETATM   19  C   UNL     1      44.503 -21.561   2.852  1.00  0.00     0.026 A 
HETATM   20  C   UNL     1      44.731 -21.351   4.209  1.00  0.00     0.035 A 
HETATM   21 CL   UNL     1      45.517 -22.574   5.133  1.00  0.00    -0.084 Cl
ENDBRANCH   9  12
ENDBRANCH   3   8
BRANCH   1  22
HETATM   22  S   UNL     1      40.161 -12.236  -0.996  1.00  0.00    -0.086 SA
BRANCH  22  23
HETATM   23  C   UNL     1      38.562 -12.793  -1.647  1.00  0.00     0.121 C 
BRANCH  23  24
HETATM   24  C   UNL     1      38.725 -14.003  -2.532  1.00  0.00    -0.049 A 
HETATM   25  C   UNL     1      39.944 -14.698  -2.578  1.00  0.00     0.008 A 
HETATM   26  C   UNL     1      40.101 -15.799  -3.422  1.00  0.00     0.001 A 
HETATM   27  C   UNL     1      39.044 -16.217  -4.230  1.00  0.00     0.000 A 
HETATM   28  C   UNL     1      37.832 -15.533  -4.197  1.00  0.00     0.001 A 
HETATM   29  C   UNL     1      37.672 -14.429  -3.357  1.00  0.00     0.008 A 
ENDBRANCH  23  24
ENDBRANCH  22  23
ENDBRANCH   1  22
TORSDOF 5
ENDMDL
MODEL 7
REMARK VINA RESULT:      -8.2      6.128      9.227
REMARK  5 active torsions:
REMARK  status: ('A' for Active; 'I' for Inactive)
REMARK    1  A    between atoms: C_4  and  C_5 
REMARK    2  A    between atoms: C_5  and  S_6 
REMARK    3  A    between atoms: S_6  and  C_7 
REMARK    4  A    between atoms: C_9  and  C_10 
REMARK       I    between atoms: C_10  and  N_11 
REMARK    5  A    between atoms: N_11  and  C_12 
ROOT
HETATM    1  C   UNL     1      41.935 -12.558   4.217  1.00  0.00     0.189 A 
HETATM    2  N   UNL     1      42.151 -12.003   5.419  1.00  0.00    -0.216 NA
HETATM    3  C   UNL     1      41.286 -11.005   5.786  1.00  0.00     0.150 A 
HETATM    4  C   UNL     1      40.209 -10.599   5.019  1.00  0.00     0.086 A 
HETATM    5 CL   UNL     1      39.036  -9.416   5.420  1.00  0.00    -0.080 Cl
HETATM    6  C   UNL     1      40.082 -11.269   3.824  1.00  0.00     0.146 A 
HETATM    7  N   UNL     1      40.925 -12.234   3.400  1.00  0.00    -0.234 NA
ENDROOT
BRANCH   3   8
HETATM    8  C   UNL     1      41.621 -10.377   7.114  1.00  0.00     0.278 C 
HETATM    9  N   UNL     1      41.534 -11.268   8.164  1.00  0.00    -0.300 N 
HETATM   10  H   UNL     1      41.280 -12.229   7.970  1.00  0.00     0.171 HD
HETATM   11  O   UNL     1      41.935  -9.199   7.190  1.00  0.00    -0.265 OA
BRANCH   9  12
HETATM   12  C   UNL     1      41.779 -10.910   9.458  1.00  0.00     0.174 A 
HETATM   13  S   UNL     1      40.385 -10.825  10.435  1.00  0.00    -0.050 SA
HETATM   14  C   UNL     1      41.365 -10.336  11.770  1.00  0.00     0.039 A 
HETATM   15  C   UNL     1      42.699 -10.299  11.356  1.00  0.00     0.077 A 
HETATM   16  C   UNL     1      40.984 -10.013  13.083  1.00  0.00     0.045 A 
HETATM   17  N   UNL     1      42.916 -10.621  10.031  1.00  0.00    -0.223 NA
HETATM   18  C   UNL     1      43.692  -9.941  12.292  1.00  0.00     0.035 A 
HETATM   19  C   UNL     1      43.328  -9.622  13.604  1.00  0.00     0.026 A 
HETATM   20  C   UNL     1      41.991  -9.656  13.985  1.00  0.00     0.035 A 
HETATM   21 CL   UNL     1      41.562  -9.248  15.603  1.00  0.00    -0.084 Cl
ENDBRANCH   9  12
ENDBRANCH   3   8
BRANCH   1  22
HETATM   22  S   UNL     1      43.091 -13.747   3.611  1.00  0.00    -0.086 SA
BRANCH  22  23
HETATM   23  C   UNL     1      42.067 -15.237   3.748  1.00  0.00     0.121 C 
BRANCH  23  24
HETATM   24  C   UNL     1      42.782 -16.443   3.193  1.00  0.00    -0.049 A 
HETATM   25  C   UNL     1      43.388 -16.397   1.928  1.00  0.00     0.008 A 
HETATM   26  C   UNL     1      44.023 -17.525   1.404  1.00  0.00     0.001 A 
HETATM   27  C   UNL     1      44.056 -18.711   2.136  1.00  0.00     0.000 A 
HETATM   28  C   UNL     1      43.454 -18.771   3.390  1.00  0.00     0.001 A 
HETATM   29  C   UNL     1      42.816 -17.646   3.916  1.00  0.00     0.008 A 
ENDBRANCH  23  24
ENDBRANCH  22  23
ENDBRANCH   1  22
TORSDOF 5
ENDMDL
MODEL 8
REMARK VINA RESULT:      -8.1      3.440      3.752
REMARK  5 active torsions:
REMARK  status: ('A' for Active; 'I' for Inactive)
REMARK    1  A    between atoms: C_4  and  C_5 
REMARK    2  A    between atoms: C_5  and  S_6 
REMARK    3  A    between atoms: S_6  and  C_7 
REMARK    4  A    between atoms: C_9  and  C_10 
REMARK       I    between atoms: C_10  and  N_11 
REMARK    5  A    between atoms: N_11  and  C_12 
ROOT
HETATM    1  C   UNL     1      43.514 -17.449   6.195  1.00  0.00     0.189 A 
HETATM    2  N   UNL     1      42.931 -16.790   5.183  1.00  0.00    -0.216 NA
HETATM    3  C   UNL     1      42.896 -15.424   5.294  1.00  0.00     0.150 A 
HETATM    4  C   UNL     1      43.461 -14.723   6.343  1.00  0.00     0.086 A 
HETATM    5 CL   UNL     1      43.531 -13.021   6.536  1.00  0.00    -0.080 Cl
HETATM    6  C   UNL     1      44.053 -15.515   7.299  1.00  0.00     0.146 A 
HETATM    7  N   UNL     1      44.086 -16.863   7.255  1.00  0.00    -0.234 NA
ENDROOT
BRANCH   3   8
HETATM    8  C   UNL     1      42.171 -14.747   4.160  1.00  0.00     0.278 C 
HETATM    9  N   UNL     1      40.807 -14.684   4.360  1.00  0.00    -0.300 N 
HETATM   10  H   UNL     1      40.419 -15.064   5.214  1.00  0.00     0.171 HD
HETATM   11  O   UNL     1      42.780 -14.314   3.194  1.00  0.00    -0.265 OA
BRANCH   9  12
HETATM   12  C   UNL     1      39.954 -14.127   3.451  1.00  0.00     0.174 A 
HETATM   13  S   UNL     1      39.670 -12.463   3.687  1.00  0.00    -0.050 SA
HETATM   14  C   UNL     1      38.594 -12.467   2.337  1.00  0.00     0.039 A 
HETATM   15  C   UNL     1      38.557 -13.756   1.798  1.00  0.00     0.077 A 
HETATM   16  C   UNL     1      37.842 -11.412   1.795  1.00  0.00     0.045 A 
HETATM   17  N   UNL     1      39.332 -14.692   2.451  1.00  0.00    -0.223 NA
HETATM   18  C   UNL     1      37.752 -13.996   0.665  1.00  0.00     0.035 A 
HETATM   19  C   UNL     1      37.002 -12.954   0.111  1.00  0.00     0.026 A 
HETATM   20  C   UNL     1      37.048 -11.683   0.677  1.00  0.00     0.035 A 
HETATM   21 CL   UNL     1      36.107 -10.416  -0.013  1.00  0.00    -0.084 Cl
ENDBRANCH   9  12
ENDBRANCH   3   8
BRANCH   1  22
HETATM   22  S   UNL     1      43.469 -19.214   6.196  1.00  0.00    -0.086 SA
BRANCH  22  23
HETATM   23  C   UNL     1      44.938 -19.537   5.183  1.00  0.00     0.121 C 
BRANCH  23  24
HETATM   24  C   UNL     1      44.579 -20.292   3.927  1.00  0.00    -0.049 A 
HETATM   25  C   UNL     1      43.941 -19.642   2.859  1.00  0.00     0.008 A 
HETATM   26  C   UNL     1      43.582 -20.351   1.711  1.00  0.00     0.001 A 
HETATM   27  C   UNL     1      43.855 -21.715   1.618  1.00  0.00     0.000 A 
HETATM   28  C   UNL     1      44.484 -22.372   2.673  1.00  0.00     0.001 A 
HETATM   29  C   UNL     1      44.841 -21.667   3.824  1.00  0.00     0.008 A 
ENDBRANCH  23  24
ENDBRANCH  22  23
ENDBRANCH   1  22
TORSDOF 5
ENDMDL
MODEL 9
REMARK VINA RESULT:      -8.1      3.817      4.627
REMARK  5 active torsions:
REMARK  status: ('A' for Active; 'I' for Inactive)
REMARK    1  A    between atoms: C_4  and  C_5 
REMARK    2  A    between atoms: C_5  and  S_6 
REMARK    3  A    between atoms: S_6  and  C_7 
REMARK    4  A    between atoms: C_9  and  C_10 
REMARK       I    between atoms: C_10  and  N_11 
REMARK    5  A    between atoms: N_11  and  C_12 
ROOT
HETATM    1  C   UNL     1      41.994 -16.035   2.834  1.00  0.00     0.189 A 
HETATM    2  N   UNL     1      40.978 -15.801   1.990  1.00  0.00    -0.216 NA
HETATM    3  C   UNL     1      40.874 -14.521   1.512  1.00  0.00     0.150 A 
HETATM    4  C   UNL     1      41.772 -13.512   1.813  1.00  0.00     0.086 A 
HETATM    5 CL   UNL     1      41.768 -11.906   1.212  1.00  0.00    -0.080 Cl
HETATM    6  C   UNL     1      42.782 -13.890   2.665  1.00  0.00     0.146 A 
HETATM    7  N   UNL     1      42.911 -15.127   3.190  1.00  0.00    -0.234 NA
ENDROOT
BRANCH   3   8
HETATM    8  C   UNL     1      39.677 -14.306   0.622  1.00  0.00     0.278 C 
HETATM    9  N   UNL     1      40.023 -14.094  -0.697  1.00  0.00    -0.300 N 
HETATM   10  H   UNL     1      41.001 -14.112  -0.955  1.00  0.00     0.171 HD
HETATM   11  O   UNL     1      38.544 -14.333   1.077  1.00  0.00    -0.265 OA
BRANCH   9  12
HETATM   12  C   UNL     1      39.098 -13.860  -1.673  1.00  0.00     0.174 A 
HETATM   13  S   UNL     1      38.722 -12.214  -1.900  1.00  0.00    -0.050 SA
HETATM   14  C   UNL     1      37.590 -12.653  -3.127  1.00  0.00     0.039 A 
HETATM   15  C   UNL     1      37.610 -14.042  -3.278  1.00  0.00     0.077 A 
HETATM   16  C   UNL     1      36.751 -11.833  -3.899  1.00  0.00     0.045 A 
HETATM   17  N   UNL     1      38.470 -14.716  -2.434  1.00  0.00    -0.223 NA
HETATM   18  C   UNL     1      36.773 -14.634  -4.247  1.00  0.00     0.035 A 
HETATM   19  C   UNL     1      35.936 -13.830  -5.026  1.00  0.00     0.026 A 
HETATM   20  C   UNL     1      35.927 -12.450  -4.846  1.00  0.00     0.035 A 
HETATM   21 CL   UNL     1      34.880 -11.478  -5.809  1.00  0.00    -0.084 Cl
ENDBRANCH   9  12
ENDBRANCH   3   8
BRANCH   1  22
HETATM   22  S   UNL     1      42.108 -17.618   3.606  1.00  0.00    -0.086 SA
BRANCH  22  23
HETATM   23  C   UNL     1      43.842 -17.995   3.229  1.00  0.00     0.121 C 
BRANCH  23  24
HETATM   24  C   UNL     1      44.058 -19.480   3.084  1.00  0.00    -0.049 A 
HETATM   25  C   UNL     1      43.649 -20.153   1.923  1.00  0.00     0.008 A 
HETATM   26  C   UNL     1      43.823 -21.534   1.805  1.00  0.00     0.001 A 
HETATM   27  C   UNL     1      44.405 -22.257   2.845  1.00  0.00     0.000 A 
HETATM   28  C   UNL     1      44.811 -21.600   4.005  1.00  0.00     0.001 A 
HETATM   29  C   UNL     1      44.636 -20.221   4.128  1.00  0.00     0.008 A 
ENDBRANCH  23  24
ENDBRANCH  22  23
ENDBRANCH   1  22
TORSDOF 5
ENDMDL
MODEL 10
REMARK VINA RESULT:      -8.0      2.962      3.397
REMARK  5 active torsions:
REMARK  status: ('A' for Active; 'I' for Inactive)
REMARK    1  A    between atoms: C_4  and  C_5 
REMARK    2  A    between atoms: C_5  and  S_6 
REMARK    3  A    between atoms: S_6  and  C_7 
REMARK    4  A    between atoms: C_9  and  C_10 
REMARK       I    between atoms: C_10  and  N_11 
REMARK    5  A    between atoms: N_11  and  C_12 
ROOT
HETATM    1  C   UNL     1      42.859 -15.785   4.557  1.00  0.00     0.189 A 
HETATM    2  N   UNL     1      41.942 -15.646   3.589  1.00  0.00    -0.216 NA
HETATM    3  C   UNL     1      41.358 -14.411   3.483  1.00  0.00     0.150 A 
HETATM    4  C   UNL     1      41.703 -13.327   4.271  1.00  0.00     0.086 A 
HETATM    5 CL   UNL     1      41.085 -11.731   4.169  1.00  0.00    -0.080 Cl
HETATM    6  C   UNL     1      42.677 -13.594   5.205  1.00  0.00     0.146 A 
HETATM    7  N   UNL     1      43.258 -14.800   5.373  1.00  0.00    -0.234 NA
ENDROOT
BRANCH   3   8
HETATM    8  C   UNL     1      40.291 -14.338   2.422  1.00  0.00     0.278 C 
HETATM    9  N   UNL     1      40.733 -13.741   1.260  1.00  0.00    -0.300 N 
HETATM   10  H   UNL     1      41.693 -13.427   1.205  1.00  0.00     0.171 HD
HETATM   11  O   UNL     1      39.171 -14.783   2.626  1.00  0.00    -0.265 OA
BRANCH   9  12
HETATM   12  C   UNL     1      39.927 -13.555   0.174  1.00  0.00     0.174 A 
HETATM   13  S   UNL     1      39.087 -12.072   0.171  1.00  0.00    -0.050 SA
HETATM   14  C   UNL     1      38.334 -12.514  -1.318  1.00  0.00     0.039 A 
HETATM   15  C   UNL     1      38.810 -13.769  -1.706  1.00  0.00     0.077 A 
HETATM   16  C   UNL     1      37.395 -11.805  -2.086  1.00  0.00     0.045 A 
HETATM   17  N   UNL     1      39.712 -14.352  -0.838  1.00  0.00    -0.223 NA
HETATM   18  C   UNL     1      38.345 -14.331  -2.913  1.00  0.00     0.035 A 
HETATM   19  C   UNL     1      37.415 -13.634  -3.691  1.00  0.00     0.026 A 
HETATM   20  C   UNL     1      36.948 -12.391  -3.274  1.00  0.00     0.035 A 
HETATM   21 CL   UNL     1      35.793 -11.554  -4.240  1.00  0.00    -0.084 Cl
ENDBRANCH   9  12
ENDBRANCH   3   8
BRANCH   1  22
HETATM   22  S   UNL     1      43.548 -17.383   4.852  1.00  0.00    -0.086 SA
BRANCH  22  23
HETATM   23  C   UNL     1      43.756 -17.925   3.134  1.00  0.00     0.121 C 
BRANCH  23  24
HETATM   24  C   UNL     1      43.964 -19.417   3.054  1.00  0.00    -0.049 A 
HETATM   25  C   UNL     1      44.630 -20.103   4.081  1.00  0.00     0.008 A 
HETATM   26  C   UNL     1      44.849 -21.479   3.989  1.00  0.00     0.001 A 
HETATM   27  C   UNL     1      44.406 -22.184   2.871  1.00  0.00     0.000 A 
HETATM   28  C   UNL     1      43.747 -21.514   1.843  1.00  0.00     0.001 A 
HETATM   29  C   UNL     1      43.530 -20.137   1.930  1.00  0.00     0.008 A 
ENDBRANCH  23  24
ENDBRANCH  22  23
ENDBRANCH   1  22
TORSDOF 5
ENDMDL
