MODEL 1
REMARK VINA RESULT:      -8.3      0.000      0.000
REMARK  6 active torsions:
REMARK  status: ('A' for Active; 'I' for Inactive)
REMARK    1  A    between atoms: O_2  and  C_3 
REMARK    2  A    between atoms: C_3  and  C_4 
REMARK    3  A    between atoms: C_4  and  N_5 
REMARK       I    between atoms: N_5  and  C_6 
REMARK    4  A    between atoms: C_6  and  C_7 
REMARK    5  A    between atoms: C_12  and  C_13 
REMARK    6  A    between atoms: C_20  and  C_21 
ROOT
HETATM    1  C   UNL     1      41.311 -15.802   0.614  1.00  0.00     0.165 A 
HETATM    2  N   UNL     1      42.373 -16.569   0.968  1.00  0.00    -0.163 NA
HETATM    3  N   UNL     1      42.082 -16.978   2.215  1.00  0.00    -0.238 N 
HETATM    4  C   UNL     1      40.938 -16.422   2.723  1.00  0.00     0.141 A 
HETATM    5  N   UNL     1      40.585 -16.602   4.023  1.00  0.00    -0.365 N 
HETATM    6  C   UNL     1      41.575 -17.085   4.987  1.00  0.00     0.118 C 
HETATM    7  C   UNL     1      42.367 -18.222   4.321  1.00  0.00     0.066 C 
HETATM    8  C   UNL     1      43.019 -17.764   3.001  1.00  0.00     0.221 C 
HETATM    9  C   UNL     1      40.390 -15.708   1.687  1.00  0.00     0.092 A 
HETATM   10 BR   UNL     1      38.800 -14.719   1.739  1.00  0.00    -0.044 Br
HETATM   11  H   UNL     1      39.848 -16.021   4.423  1.00  0.00     0.162 HD
ENDROOT
BRANCH   1  12
HETATM   12  C   UNL     1      41.256 -15.172  -0.717  1.00  0.00     0.273 C 
HETATM   13  N   UNL     1      40.596 -15.941  -1.650  1.00  0.00    -0.353 N 
HETATM   14  H   UNL     1      40.099 -16.751  -1.283  1.00  0.00     0.162 HD
HETATM   15  O   UNL     1      41.751 -14.081  -0.979  1.00  0.00    -0.266 OA
BRANCH  13  16
HETATM   16  C   UNL     1      40.278 -15.474  -2.981  1.00  0.00     0.149 C 
BRANCH  16  17
HETATM   17  C   UNL     1      39.494 -16.525  -3.765  1.00  0.00     0.186 C 
BRANCH  17  18
HETATM   18  O   UNL     1      38.403 -15.889  -4.442  1.00  0.00    -0.394 OA
HETATM   19  C   UNL     1      37.589 -15.151  -3.542  1.00  0.00     0.201 C 
ENDBRANCH  17  18
ENDBRANCH  16  17
ENDBRANCH  13  16
ENDBRANCH   1  12
BRANCH   8  20
HETATM   20  C   UNL     1      43.513 -18.973   2.237  1.00  0.00     0.409 C 
HETATM   21  F   UNL     1      42.499 -19.716   1.739  1.00  0.00    -0.169 F 
HETATM   22  F   UNL     1      44.349 -18.665   1.224  1.00  0.00    -0.169 F 
HETATM   23  F   UNL     1      44.214 -19.786   3.073  1.00  0.00    -0.169 F 
ENDBRANCH   8  20
BRANCH   6  24
HETATM   24  C   UNL     1      42.465 -15.983   5.555  1.00  0.00    -0.035 A 
HETATM   25  C   UNL     1      42.304 -14.623   5.239  1.00  0.00     0.009 A 
HETATM   26  C   UNL     1      43.155 -13.651   5.773  1.00  0.00     0.001 A 
HETATM   27  C   UNL     1      44.178 -14.019   6.641  1.00  0.00     0.000 A 
HETATM   28  C   UNL     1      44.346 -15.356   6.983  1.00  0.00     0.001 A 
HETATM   29  C   UNL     1      43.494 -16.328   6.450  1.00  0.00     0.009 A 
ENDBRANCH   6  24
TORSDOF 6
ENDMDL
MODEL 2
REMARK VINA RESULT:      -8.0      1.603      2.582
REMARK  6 active torsions:
REMARK  status: ('A' for Active; 'I' for Inactive)
REMARK    1  A    between atoms: O_2  and  C_3 
REMARK    2  A    between atoms: C_3  and  C_4 
REMARK    3  A    between atoms: C_4  and  N_5 
REMARK       I    between atoms: N_5  and  C_6 
REMARK    4  A    between atoms: C_6  and  C_7 
REMARK    5  A    between atoms: C_12  and  C_13 
REMARK    6  A    between atoms: C_20  and  C_21 
ROOT
HETATM    1  C   UNL     1      41.402 -15.904   0.670  1.00  0.00     0.165 A 
HETATM    2  N   UNL     1      42.440 -16.671   1.089  1.00  0.00    -0.163 NA
HETATM    3  N   UNL     1      42.103 -17.024   2.341  1.00  0.00    -0.238 N 
HETATM    4  C   UNL     1      40.953 -16.431   2.789  1.00  0.00     0.141 A 
HETATM    5  N   UNL     1      40.557 -16.553   4.084  1.00  0.00    -0.365 N 
HETATM    6  C   UNL     1      41.509 -17.010   5.097  1.00  0.00     0.118 C 
HETATM    7  C   UNL     1      42.303 -18.185   4.504  1.00  0.00     0.066 C 
HETATM    8  C   UNL     1      43.003 -17.790   3.187  1.00  0.00     0.221 C 
HETATM    9  C   UNL     1      40.449 -15.752   1.708  1.00  0.00     0.092 A 
HETATM   10 BR   UNL     1      38.874 -14.739   1.670  1.00  0.00    -0.044 Br
HETATM   11  H   UNL     1      39.817 -15.945   4.436  1.00  0.00     0.162 HD
ENDROOT
BRANCH   1  12
HETATM   12  C   UNL     1      41.398 -15.327  -0.687  1.00  0.00     0.273 C 
HETATM   13  N   UNL     1      41.901 -14.046  -0.728  1.00  0.00    -0.353 N 
HETATM   14  H   UNL     1      42.353 -13.720   0.126  1.00  0.00     0.162 HD
HETATM   15  O   UNL     1      40.983 -15.915  -1.679  1.00  0.00    -0.266 OA
BRANCH  13  16
HETATM   16  C   UNL     1      42.143 -13.328  -1.960  1.00  0.00     0.149 C 
BRANCH  16  17
HETATM   17  C   UNL     1      42.861 -12.005  -1.699  1.00  0.00     0.186 C 
BRANCH  17  18
HETATM   18  O   UNL     1      42.839 -11.728  -0.294  1.00  0.00    -0.394 OA
HETATM   19  C   UNL     1      42.297 -10.442  -0.024  1.00  0.00     0.201 C 
ENDBRANCH  17  18
ENDBRANCH  16  17
ENDBRANCH  13  16
ENDBRANCH   1  12
BRANCH   8  20
HETATM   20  C   UNL     1      43.501 -19.037   2.488  1.00  0.00     0.409 C 
HETATM   21  F   UNL     1      44.038 -19.931   3.350  1.00  0.00    -0.169 F 
HETATM   22  F   UNL     1      42.550 -19.664   1.765  1.00  0.00    -0.169 F 
HETATM   23  F   UNL     1      44.487 -18.706   1.611  1.00  0.00    -0.169 F 
ENDBRANCH   8  20
BRANCH   6  24
HETATM   24  C   UNL     1      42.397 -15.900   5.648  1.00  0.00    -0.035 A 
HETATM   25  C   UNL     1      42.167 -14.534   5.403  1.00  0.00     0.009 A 
HETATM   26  C   UNL     1      43.020 -13.554   5.917  1.00  0.00     0.001 A 
HETATM   27  C   UNL     1      44.114 -13.917   6.695  1.00  0.00     0.000 A 
HETATM   28  C   UNL     1      44.353 -15.259   6.968  1.00  0.00     0.001 A 
HETATM   29  C   UNL     1      43.499 -16.241   6.454  1.00  0.00     0.009 A 
ENDBRANCH   6  24
TORSDOF 6
ENDMDL
MODEL 3
REMARK VINA RESULT:      -6.8      3.382      4.439
REMARK  6 active torsions:
REMARK  status: ('A' for Active; 'I' for Inactive)
REMARK    1  A    between atoms: O_2  and  C_3 
REMARK    2  A    between atoms: C_3  and  C_4 
REMARK    3  A    between atoms: C_4  and  N_5 
REMARK       I    between atoms: N_5  and  C_6 
REMARK    4  A    between atoms: C_6  and  C_7 
REMARK    5  A    between atoms: C_12  and  C_13 
REMARK    6  A    between atoms: C_20  and  C_21 
ROOT
HETATM    1  C   UNL     1      41.056 -13.047   3.543  1.00  0.00     0.165 A 
HETATM    2  N   UNL     1      41.553 -13.964   2.675  1.00  0.00    -0.163 NA
HETATM    3  N   UNL     1      41.249 -15.146   3.236  1.00  0.00    -0.238 N 
HETATM    4  C   UNL     1      40.681 -15.036   4.478  1.00  0.00     0.141 A 
HETATM    5  N   UNL     1      40.460 -16.133   5.250  1.00  0.00    -0.365 N 
HETATM    6  C   UNL     1      41.134 -17.394   4.936  1.00  0.00     0.118 C 
HETATM    7  C   UNL     1      41.071 -17.597   3.413  1.00  0.00     0.066 C 
HETATM    8  C   UNL     1      41.689 -16.405   2.655  1.00  0.00     0.221 C 
HETATM    9  C   UNL     1      40.490 -13.692   4.672  1.00  0.00     0.092 A 
HETATM   10 BR   UNL     1      39.735 -12.885   6.184  1.00  0.00    -0.044 Br
HETATM   11  H   UNL     1      40.227 -16.008   6.235  1.00  0.00     0.162 HD
ENDROOT
BRANCH   1  12
HETATM   12  C   UNL     1      41.186 -11.606   3.264  1.00  0.00     0.273 C 
HETATM   13  N   UNL     1      41.284 -11.325   1.919  1.00  0.00    -0.353 N 
HETATM   14  H   UNL     1      41.097 -12.104   1.290  1.00  0.00     0.162 HD
HETATM   15  O   UNL     1      41.214 -10.740   4.132  1.00  0.00    -0.266 OA
BRANCH  13  16
HETATM   16  C   UNL     1      41.266  -9.981   1.386  1.00  0.00     0.149 C 
BRANCH  16  17
HETATM   17  C   UNL     1      41.824  -9.940  -0.035  1.00  0.00     0.186 C 
BRANCH  17  18
HETATM   18  O   UNL     1      42.964 -10.803  -0.117  1.00  0.00    -0.394 OA
HETATM   19  C   UNL     1      43.003 -11.502  -1.353  1.00  0.00     0.201 C 
ENDBRANCH  17  18
ENDBRANCH  16  17
ENDBRANCH  13  16
ENDBRANCH   1  12
BRANCH   8  20
HETATM   20  C   UNL     1      41.327 -16.499   1.188  1.00  0.00     0.409 C 
HETATM   21  F   UNL     1      41.077 -17.769   0.800  1.00  0.00    -0.169 F 
HETATM   22  F   UNL     1      40.269 -15.735   0.845  1.00  0.00    -0.169 F 
HETATM   23  F   UNL     1      42.370 -16.061   0.432  1.00  0.00    -0.169 F 
ENDBRANCH   8  20
BRANCH   6  24
HETATM   24  C   UNL     1      42.549 -17.489   5.498  1.00  0.00    -0.035 A 
HETATM   25  C   UNL     1      43.075 -16.569   6.422  1.00  0.00     0.009 A 
HETATM   26  C   UNL     1      44.384 -16.690   6.896  1.00  0.00     0.001 A 
HETATM   27  C   UNL     1      45.191 -17.737   6.464  1.00  0.00     0.000 A 
HETATM   28  C   UNL     1      44.688 -18.670   5.564  1.00  0.00     0.001 A 
HETATM   29  C   UNL     1      43.378 -18.550   5.090  1.00  0.00     0.009 A 
ENDBRANCH   6  24
TORSDOF 6
ENDMDL
MODEL 4
REMARK VINA RESULT:      -6.7      3.062      4.338
REMARK  6 active torsions:
REMARK  status: ('A' for Active; 'I' for Inactive)
REMARK    1  A    between atoms: O_2  and  C_3 
REMARK    2  A    between atoms: C_3  and  C_4 
REMARK    3  A    between atoms: C_4  and  N_5 
REMARK       I    between atoms: N_5  and  C_6 
REMARK    4  A    between atoms: C_6  and  C_7 
REMARK    5  A    between atoms: C_12  and  C_13 
REMARK    6  A    between atoms: C_20  and  C_21 
ROOT
HETATM    1  C   UNL     1      39.736 -14.300   1.358  1.00  0.00     0.165 A 
HETATM    2  N   UNL     1      39.614 -14.856   2.591  1.00  0.00    -0.163 NA
HETATM    3  N   UNL     1      40.876 -14.913   3.051  1.00  0.00    -0.238 N 
HETATM    4  C   UNL     1      41.815 -14.526   2.132  1.00  0.00     0.141 A 
HETATM    5  N   UNL     1      43.143 -14.675   2.379  1.00  0.00    -0.365 N 
HETATM    6  C   UNL     1      43.590 -15.561   3.454  1.00  0.00     0.118 C 
HETATM    7  C   UNL     1      42.684 -15.319   4.673  1.00  0.00     0.066 C 
HETATM    8  C   UNL     1      41.197 -15.534   4.326  1.00  0.00     0.221 C 
HETATM    9  C   UNL     1      41.100 -14.068   1.054  1.00  0.00     0.092 A 
HETATM   10 BR   UNL     1      41.812 -13.383  -0.538  1.00  0.00    -0.044 Br
HETATM   11  H   UNL     1      43.805 -14.569   1.610  1.00  0.00     0.162 HD
ENDROOT
BRANCH   1  12
HETATM   12  C   UNL     1      38.543 -14.059   0.526  1.00  0.00     0.273 C 
HETATM   13  N   UNL     1      38.795 -14.182  -0.822  1.00  0.00    -0.353 N 
HETATM   14  H   UNL     1      39.703 -14.572  -1.069  1.00  0.00     0.162 HD
HETATM   15  O   UNL     1      37.441 -13.769   0.978  1.00  0.00    -0.266 OA
BRANCH  13  16
HETATM   16  C   UNL     1      37.757 -14.144  -1.829  1.00  0.00     0.149 C 
BRANCH  16  17
HETATM   17  C   UNL     1      38.351 -14.104  -3.236  1.00  0.00     0.186 C 
BRANCH  17  18
HETATM   18  O   UNL     1      39.336 -15.137  -3.360  1.00  0.00    -0.394 OA
HETATM   19  C   UNL     1      38.921 -16.148  -4.267  1.00  0.00     0.201 C 
ENDBRANCH  17  18
ENDBRANCH  16  17
ENDBRANCH  13  16
ENDBRANCH   1  12
BRANCH   8  20
HETATM   20  C   UNL     1      40.336 -14.988   5.445  1.00  0.00     0.409 C 
HETATM   21  F   UNL     1      40.978 -14.053   6.180  1.00  0.00    -0.169 F 
HETATM   22  F   UNL     1      39.169 -14.463   5.019  1.00  0.00    -0.169 F 
HETATM   23  F   UNL     1      40.008 -15.994   6.301  1.00  0.00    -0.169 F 
ENDBRANCH   8  20
BRANCH   6  24
HETATM   24  C   UNL     1      43.672 -17.028   3.045  1.00  0.00    -0.035 A 
HETATM   25  C   UNL     1      43.577 -17.464   1.712  1.00  0.00     0.009 A 
HETATM   26  C   UNL     1      43.641 -18.822   1.389  1.00  0.00     0.001 A 
HETATM   27  C   UNL     1      43.811 -19.772   2.391  1.00  0.00     0.000 A 
HETATM   28  C   UNL     1      43.926 -19.365   3.715  1.00  0.00     0.001 A 
HETATM   29  C   UNL     1      43.863 -18.006   4.039  1.00  0.00     0.009 A 
ENDBRANCH   6  24
TORSDOF 6
ENDMDL
MODEL 5
REMARK VINA RESULT:      -6.7      4.139      7.664
REMARK  6 active torsions:
REMARK  status: ('A' for Active; 'I' for Inactive)
REMARK    1  A    between atoms: O_2  and  C_3 
REMARK    2  A    between atoms: C_3  and  C_4 
REMARK    3  A    between atoms: C_4  and  N_5 
REMARK       I    between atoms: N_5  and  C_6 
REMARK    4  A    between atoms: C_6  and  C_7 
REMARK    5  A    between atoms: C_12  and  C_13 
REMARK    6  A    between atoms: C_20  and  C_21 
ROOT
HETATM    1  C   UNL     1      40.964 -15.198   2.415  1.00  0.00     0.165 A 
HETATM    2  N   UNL     1      40.032 -14.254   2.128  1.00  0.00    -0.163 NA
HETATM    3  N   UNL     1      39.846 -14.369   0.802  1.00  0.00    -0.238 N 
HETATM    4  C   UNL     1      40.693 -15.263   0.203  1.00  0.00     0.141 A 
HETATM    5  N   UNL     1      40.748 -15.383  -1.150  1.00  0.00    -0.365 N 
HETATM    6  C   UNL     1      40.179 -14.334  -1.998  1.00  0.00     0.118 C 
HETATM    7  C   UNL     1      38.827 -13.921  -1.395  1.00  0.00     0.066 C 
HETATM    8  C   UNL     1      38.974 -13.464   0.071  1.00  0.00     0.221 C 
HETATM    9  C   UNL     1      41.382 -15.855   1.232  1.00  0.00     0.092 A 
HETATM   10 BR   UNL     1      42.692 -17.185   1.069  1.00  0.00    -0.044 Br
HETATM   11  H   UNL     1      41.519 -15.901  -1.571  1.00  0.00     0.162 HD
ENDROOT
BRANCH   1  12
HETATM   12  C   UNL     1      41.430 -15.390   3.800  1.00  0.00     0.273 C 
HETATM   13  N   UNL     1      40.839 -16.468   4.422  1.00  0.00    -0.353 N 
HETATM   14  H   UNL     1      40.292 -17.081   3.819  1.00  0.00     0.162 HD
HETATM   15  O   UNL     1      42.251 -14.666   4.353  1.00  0.00    -0.266 OA
BRANCH  13  16
HETATM   16  C   UNL     1      41.243 -16.952   5.724  1.00  0.00     0.149 C 
BRANCH  16  17
HETATM   17  C   UNL     1      42.561 -17.720   5.645  1.00  0.00     0.186 C 
BRANCH  17  18
HETATM   18  O   UNL     1      42.517 -18.617   4.530  1.00  0.00    -0.394 OA
HETATM   19  C   UNL     1      43.815 -19.071   4.173  1.00  0.00     0.201 C 
ENDBRANCH  17  18
ENDBRANCH  16  17
ENDBRANCH  13  16
ENDBRANCH   1  12
BRANCH   8  20
HETATM   20  C   UNL     1      37.604 -13.371   0.709  1.00  0.00     0.409 C 
HETATM   21  F   UNL     1      36.705 -12.754  -0.090  1.00  0.00    -0.169 F 
HETATM   22  F   UNL     1      37.098 -14.568   1.071  1.00  0.00    -0.169 F 
HETATM   23  F   UNL     1      37.681 -12.632   1.848  1.00  0.00    -0.169 F 
ENDBRANCH   8  20
BRANCH   6  24
HETATM   24  C   UNL     1      41.120 -13.157  -2.231  1.00  0.00    -0.035 A 
HETATM   25  C   UNL     1      42.166 -12.819  -1.353  1.00  0.00     0.009 A 
HETATM   26  C   UNL     1      42.992 -11.720  -1.602  1.00  0.00     0.001 A 
HETATM   27  C   UNL     1      42.797 -10.941  -2.738  1.00  0.00     0.000 A 
HETATM   28  C   UNL     1      41.781 -11.265  -3.631  1.00  0.00     0.001 A 
HETATM   29  C   UNL     1      40.955 -12.366  -3.383  1.00  0.00     0.009 A 
ENDBRANCH   6  24
TORSDOF 6
ENDMDL
MODEL 6
REMARK VINA RESULT:      -6.3      4.268      8.030
REMARK  6 active torsions:
REMARK  status: ('A' for Active; 'I' for Inactive)
REMARK    1  A    between atoms: O_2  and  C_3 
REMARK    2  A    between atoms: C_3  and  C_4 
REMARK    3  A    between atoms: C_4  and  N_5 
REMARK       I    between atoms: N_5  and  C_6 
REMARK    4  A    between atoms: C_6  and  C_7 
REMARK    5  A    between atoms: C_12  and  C_13 
REMARK    6  A    between atoms: C_20  and  C_21 
ROOT
HETATM    1  C   UNL     1      40.958 -15.193   2.364  1.00  0.00     0.165 A 
HETATM    2  N   UNL     1      40.040 -14.231   2.094  1.00  0.00    -0.163 NA
HETATM    3  N   UNL     1      39.826 -14.341   0.772  1.00  0.00    -0.238 N 
HETATM    4  C   UNL     1      40.643 -15.252   0.157  1.00  0.00     0.141 A 
HETATM    5  N   UNL     1      40.669 -15.372  -1.197  1.00  0.00    -0.365 N 
HETATM    6  C   UNL     1      40.104 -14.312  -2.034  1.00  0.00     0.118 C 
HETATM    7  C   UNL     1      38.773 -13.872  -1.404  1.00  0.00     0.066 C 
HETATM    8  C   UNL     1      38.958 -13.419   0.058  1.00  0.00     0.221 C 
HETATM    9  C   UNL     1      41.339 -15.858   1.172  1.00  0.00     0.092 A 
HETATM   10 BR   UNL     1      42.619 -17.214   0.983  1.00  0.00    -0.044 Br
HETATM   11  H   UNL     1      41.420 -15.906  -1.633  1.00  0.00     0.162 HD
ENDROOT
BRANCH   1  12
HETATM   12  C   UNL     1      41.447 -15.395   3.739  1.00  0.00     0.273 C 
HETATM   13  N   UNL     1      42.821 -15.359   3.832  1.00  0.00    -0.353 N 
HETATM   14  H   UNL     1      43.313 -15.044   2.997  1.00  0.00     0.162 HD
HETATM   15  O   UNL     1      40.716 -15.586   4.705  1.00  0.00    -0.266 OA
BRANCH  13  16
HETATM   16  C   UNL     1      43.532 -15.378   5.091  1.00  0.00     0.149 C 
BRANCH  16  17
HETATM   17  C   UNL     1      44.046 -13.987   5.459  1.00  0.00     0.186 C 
BRANCH  17  18
HETATM   18  O   UNL     1      43.778 -13.739   6.844  1.00  0.00    -0.394 OA
HETATM   19  C   UNL     1      44.978 -13.557   7.583  1.00  0.00     0.201 C 
ENDBRANCH  17  18
ENDBRANCH  16  17
ENDBRANCH  13  16
ENDBRANCH   1  12
BRANCH   8  20
HETATM   20  C   UNL     1      37.603 -13.299   0.723  1.00  0.00     0.409 C 
HETATM   21  F   UNL     1      37.079 -14.503   1.044  1.00  0.00    -0.169 F 
HETATM   22  F   UNL     1      37.615 -12.533   1.833  1.00  0.00    -0.169 F 
HETATM   23  F   UNL     1      36.725 -12.710  -0.134  1.00  0.00    -0.169 F 
ENDBRANCH   8  20
BRANCH   6  24
HETATM   24  C   UNL     1      41.064 -13.153  -2.285  1.00  0.00    -0.035 A 
HETATM   25  C   UNL     1      42.137 -12.842  -1.432  1.00  0.00     0.009 A 
HETATM   26  C   UNL     1      42.981 -11.759  -1.696  1.00  0.00     0.001 A 
HETATM   27  C   UNL     1      42.774 -10.972  -2.824  1.00  0.00     0.000 A 
HETATM   28  C   UNL     1      41.731 -11.271  -3.693  1.00  0.00     0.001 A 
HETATM   29  C   UNL     1      40.888 -12.354  -3.429  1.00  0.00     0.009 A 
ENDBRANCH   6  24
TORSDOF 6
ENDMDL
MODEL 7
REMARK VINA RESULT:      -6.3      5.273      8.496
REMARK  6 active torsions:
REMARK  status: ('A' for Active; 'I' for Inactive)
REMARK    1  A    between atoms: O_2  and  C_3 
REMARK    2  A    between atoms: C_3  and  C_4 
REMARK    3  A    between atoms: C_4  and  N_5 
REMARK       I    between atoms: N_5  and  C_6 
REMARK    4  A    between atoms: C_6  and  C_7 
REMARK    5  A    between atoms: C_12  and  C_13 
REMARK    6  A    between atoms: C_20  and  C_21 
ROOT
HETATM    1  C   UNL     1      40.719 -11.543   6.157  1.00  0.00     0.165 A 
HETATM    2  N   UNL     1      41.532 -12.578   6.488  1.00  0.00    -0.163 NA
HETATM    3  N   UNL     1      42.196 -12.852   5.353  1.00  0.00    -0.238 N 
HETATM    4  C   UNL     1      41.770 -12.119   4.276  1.00  0.00     0.141 A 
HETATM    5  N   UNL     1      42.223 -12.383   3.022  1.00  0.00    -0.365 N 
HETATM    6  C   UNL     1      42.886 -13.658   2.740  1.00  0.00     0.118 C 
HETATM    7  C   UNL     1      43.850 -13.956   3.899  1.00  0.00     0.066 C 
HETATM    8  C   UNL     1      43.119 -13.972   5.257  1.00  0.00     0.221 C 
HETATM    9  C   UNL     1      40.861 -11.225   4.783  1.00  0.00     0.092 A 
HETATM   10 BR   UNL     1      39.922  -9.927   3.811  1.00  0.00    -0.044 Br
HETATM   11  H   UNL     1      41.746 -11.965   2.224  1.00  0.00     0.162 HD
ENDROOT
BRANCH   1  12
HETATM   12  C   UNL     1      39.825 -10.943   7.162  1.00  0.00     0.273 C 
HETATM   13  N   UNL     1      40.097 -11.365   8.445  1.00  0.00    -0.353 N 
HETATM   14  H   UNL     1      40.958 -11.896   8.562  1.00  0.00     0.162 HD
HETATM   15  O   UNL     1      38.923 -10.156   6.894  1.00  0.00    -0.266 OA
BRANCH  13  16
HETATM   16  C   UNL     1      39.461 -10.804   9.616  1.00  0.00     0.149 C 
BRANCH  16  17
HETATM   17  C   UNL     1      40.466 -10.596  10.748  1.00  0.00     0.186 C 
BRANCH  17  18
HETATM   18  O   UNL     1      40.208 -11.548  11.786  1.00  0.00    -0.394 OA
HETATM   19  C   UNL     1      40.965 -11.264  12.955  1.00  0.00     0.201 C 
ENDBRANCH  17  18
ENDBRANCH  16  17
ENDBRANCH  13  16
ENDBRANCH   1  12
BRANCH   8  20
HETATM   20  C   UNL     1      44.136 -13.953   6.378  1.00  0.00     0.409 C 
HETATM   21  F   UNL     1      45.396 -13.761   5.926  1.00  0.00    -0.169 F 
HETATM   22  F   UNL     1      43.879 -13.026   7.323  1.00  0.00    -0.169 F 
HETATM   23  F   UNL     1      44.134 -15.155   7.015  1.00  0.00    -0.169 F 
ENDBRANCH   8  20
BRANCH   6  24
HETATM   24  C   UNL     1      41.918 -14.801   2.452  1.00  0.00    -0.035 A 
HETATM   25  C   UNL     1      40.541 -14.612   2.239  1.00  0.00     0.009 A 
HETATM   26  C   UNL     1      39.692 -15.694   1.995  1.00  0.00     0.001 A 
HETATM   27  C   UNL     1      40.203 -16.987   1.948  1.00  0.00     0.000 A 
HETATM   28  C   UNL     1      41.564 -17.199   2.137  1.00  0.00     0.001 A 
HETATM   29  C   UNL     1      42.414 -16.116   2.380  1.00  0.00     0.009 A 
ENDBRANCH   6  24
TORSDOF 6
ENDMDL
MODEL 8
REMARK VINA RESULT:      -6.2      5.591      9.040
REMARK  6 active torsions:
REMARK  status: ('A' for Active; 'I' for Inactive)
REMARK    1  A    between atoms: O_2  and  C_3 
REMARK    2  A    between atoms: C_3  and  C_4 
REMARK    3  A    between atoms: C_4  and  N_5 
REMARK       I    between atoms: N_5  and  C_6 
REMARK    4  A    between atoms: C_6  and  C_7 
REMARK    5  A    between atoms: C_12  and  C_13 
REMARK    6  A    between atoms: C_20  and  C_21 
ROOT
HETATM    1  C   UNL     1      40.214 -11.578   6.718  1.00  0.00     0.165 A 
HETATM    2  N   UNL     1      40.010 -12.895   6.463  1.00  0.00    -0.163 NA
HETATM    3  N   UNL     1      40.549 -13.081   5.246  1.00  0.00    -0.238 N 
HETATM    4  C   UNL     1      40.990 -11.926   4.657  1.00  0.00     0.141 A 
HETATM    5  N   UNL     1      41.414 -11.912   3.366  1.00  0.00    -0.365 N 
HETATM    6  C   UNL     1      41.083 -13.028   2.477  1.00  0.00     0.118 C 
HETATM    7  C   UNL     1      41.295 -14.333   3.261  1.00  0.00     0.066 C 
HETATM    8  C   UNL     1      40.462 -14.360   4.558  1.00  0.00     0.221 C 
HETATM    9  C   UNL     1      40.841 -10.952   5.612  1.00  0.00     0.092 A 
HETATM   10 BR   UNL     1      41.279  -9.140   5.426  1.00  0.00    -0.044 Br
HETATM   11  H   UNL     1      41.544 -11.016   2.895  1.00  0.00     0.162 HD
ENDROOT
BRANCH   1  12
HETATM   12  C   UNL     1      39.763 -10.984   7.990  1.00  0.00     0.273 C 
HETATM   13  N   UNL     1      40.509 -11.398   9.071  1.00  0.00    -0.353 N 
HETATM   14  H   UNL     1      41.357 -11.919   8.850  1.00  0.00     0.162 HD
HETATM   15  O   UNL     1      38.818 -10.209   8.086  1.00  0.00    -0.266 OA
BRANCH  13  16
HETATM   16  C   UNL     1      40.360 -10.840  10.397  1.00  0.00     0.149 C 
BRANCH  16  17
HETATM   17  C   UNL     1      41.710 -10.726  11.105  1.00  0.00     0.186 C 
BRANCH  17  18
HETATM   18  O   UNL     1      41.624 -11.363  12.384  1.00  0.00    -0.394 OA
HETATM   19  C   UNL     1      40.279 -11.663  12.730  1.00  0.00     0.201 C 
ENDBRANCH  17  18
ENDBRANCH  16  17
ENDBRANCH  13  16
ENDBRANCH   1  12
BRANCH   8  20
HETATM   20  C   UNL     1      40.934 -15.499   5.436  1.00  0.00     0.409 C 
HETATM   21  F   UNL     1      42.021 -15.168   6.168  1.00  0.00    -0.169 F 
HETATM   22  F   UNL     1      39.983 -15.961   6.275  1.00  0.00    -0.169 F 
HETATM   23  F   UNL     1      41.297 -16.554   4.658  1.00  0.00    -0.169 F 
ENDBRANCH   8  20
BRANCH   6  24
HETATM   24  C   UNL     1      39.698 -12.920   1.849  1.00  0.00    -0.035 A 
HETATM   25  C   UNL     1      38.898 -11.767   1.938  1.00  0.00     0.009 A 
HETATM   26  C   UNL     1      37.627 -11.723   1.358  1.00  0.00     0.001 A 
HETATM   27  C   UNL     1      37.134 -12.826   0.669  1.00  0.00     0.000 A 
HETATM   28  C   UNL     1      37.913 -13.972   0.551  1.00  0.00     0.001 A 
HETATM   29  C   UNL     1      39.185 -14.016   1.131  1.00  0.00     0.009 A 
ENDBRANCH   6  24
TORSDOF 6
ENDMDL
MODEL 9
REMARK VINA RESULT:      -6.2      3.752      5.085
REMARK  6 active torsions:
REMARK  status: ('A' for Active; 'I' for Inactive)
REMARK    1  A    between atoms: O_2  and  C_3 
REMARK    2  A    between atoms: C_3  and  C_4 
REMARK    3  A    between atoms: C_4  and  N_5 
REMARK       I    between atoms: N_5  and  C_6 
REMARK    4  A    between atoms: C_6  and  C_7 
REMARK    5  A    between atoms: C_12  and  C_13 
REMARK    6  A    between atoms: C_20  and  C_21 
ROOT
HETATM    1  C   UNL     1      40.111 -14.749   2.546  1.00  0.00     0.165 A 
HETATM    2  N   UNL     1      40.052 -15.536   3.650  1.00  0.00    -0.163 NA
HETATM    3  N   UNL     1      41.337 -15.814   3.925  1.00  0.00    -0.238 N 
HETATM    4  C   UNL     1      42.216 -15.337   2.988  1.00  0.00     0.141 A 
HETATM    5  N   UNL     1      43.534 -15.666   3.028  1.00  0.00    -0.365 N 
HETATM    6  C   UNL     1      43.979 -16.798   3.842  1.00  0.00     0.118 C 
HETATM    7  C   UNL     1      43.242 -16.729   5.190  1.00  0.00     0.066 C 
HETATM    8  C   UNL     1      41.712 -16.717   5.001  1.00  0.00     0.221 C 
HETATM    9  C   UNL     1      41.454 -14.594   2.122  1.00  0.00     0.092 A 
HETATM   10 BR   UNL     1      42.073 -13.665   0.617  1.00  0.00    -0.044 Br
HETATM   11  H   UNL     1      44.120 -15.467   2.217  1.00  0.00     0.162 HD
ENDROOT
BRANCH   1  12
HETATM   12  C   UNL     1      38.877 -14.221   1.938  1.00  0.00     0.273 C 
HETATM   13  N   UNL     1      38.760 -12.854   2.057  1.00  0.00    -0.353 N 
HETATM   14  H   UNL     1      39.589 -12.367   2.395  1.00  0.00     0.162 HD
HETATM   15  O   UNL     1      38.032 -14.919   1.388  1.00  0.00    -0.266 OA
BRANCH  13  16
HETATM   16  C   UNL     1      37.719 -12.087   1.409  1.00  0.00     0.149 C 
BRANCH  16  17
HETATM   17  C   UNL     1      38.189 -10.668   1.094  1.00  0.00     0.186 C 
BRANCH  17  18
HETATM   18  O   UNL     1      37.475 -10.179  -0.047  1.00  0.00    -0.394 OA
HETATM   19  C   UNL     1      36.081 -10.432   0.063  1.00  0.00     0.201 C 
ENDBRANCH  17  18
ENDBRANCH  16  17
ENDBRANCH  13  16
ENDBRANCH   1  12
BRANCH   8  20
HETATM   20  C   UNL     1      41.047 -16.336   6.307  1.00  0.00     0.409 C 
HETATM   21  F   UNL     1      40.762 -15.016   6.373  1.00  0.00    -0.169 F 
HETATM   22  F   UNL     1      39.915 -17.027   6.555  1.00  0.00    -0.169 F 
HETATM   23  F   UNL     1      41.888 -16.603   7.342  1.00  0.00    -0.169 F 
ENDBRANCH   8  20
BRANCH   6  24
HETATM   24  C   UNL     1      43.835 -18.147   3.145  1.00  0.00    -0.035 A 
HETATM   25  C   UNL     1      43.176 -18.313   1.914  1.00  0.00     0.009 A 
HETATM   26  C   UNL     1      43.056 -19.574   1.323  1.00  0.00     0.001 A 
HETATM   27  C   UNL     1      43.601 -20.693   1.945  1.00  0.00     0.000 A 
HETATM   28  C   UNL     1      44.274 -20.552   3.154  1.00  0.00     0.001 A 
HETATM   29  C   UNL     1      44.395 -19.291   3.745  1.00  0.00     0.009 A 
ENDBRANCH   6  24
TORSDOF 6
ENDMDL
MODEL 10
REMARK VINA RESULT:      -6.1      4.067      7.261
REMARK  6 active torsions:
REMARK  status: ('A' for Active; 'I' for Inactive)
REMARK    1  A    between atoms: O_2  and  C_3 
REMARK    2  A    between atoms: C_3  and  C_4 
REMARK    3  A    between atoms: C_4  and  N_5 
REMARK       I    between atoms: N_5  and  C_6 
REMARK    4  A    between atoms: C_6  and  C_7 
REMARK    5  A    between atoms: C_12  and  C_13 
REMARK    6  A    between atoms: C_20  and  C_21 
ROOT
HETATM    1  C   UNL     1      41.534 -15.990   1.065  1.00  0.00     0.165 A 
HETATM    2  N   UNL     1      40.879 -16.128  -0.116  1.00  0.00    -0.163 NA
HETATM    3  N   UNL     1      40.884 -14.892  -0.641  1.00  0.00    -0.238 N 
HETATM    4  C   UNL     1      41.411 -13.941   0.192  1.00  0.00     0.141 A 
HETATM    5  N   UNL     1      41.345 -12.620  -0.118  1.00  0.00    -0.365 N 
HETATM    6  C   UNL     1      40.417 -12.158  -1.151  1.00  0.00     0.118 C 
HETATM    7  C   UNL     1      40.496 -13.141  -2.330  1.00  0.00     0.066 C 
HETATM    8  C   UNL     1      40.195 -14.587  -1.885  1.00  0.00     0.221 C 
HETATM    9  C   UNL     1      41.893 -14.634   1.274  1.00  0.00     0.092 A 
HETATM   10 BR   UNL     1      42.748 -13.900   2.770  1.00  0.00    -0.044 Br
HETATM   11  H   UNL     1      41.560 -11.930   0.603  1.00  0.00     0.162 HD
ENDROOT
BRANCH   1  12
HETATM   12  C   UNL     1      41.746 -17.153   1.944  1.00  0.00     0.273 C 
HETATM   13  N   UNL     1      42.439 -18.173   1.329  1.00  0.00    -0.353 N 
HETATM   14  H   UNL     1      42.851 -17.945   0.426  1.00  0.00     0.162 HD
HETATM   15  O   UNL     1      41.343 -17.221   3.100  1.00  0.00    -0.266 OA
BRANCH  13  16
HETATM   16  C   UNL     1      42.902 -19.351   2.028  1.00  0.00     0.149 C 
BRANCH  16  17
HETATM   17  C   UNL     1      44.352 -19.193   2.482  1.00  0.00     0.186 C 
BRANCH  17  18
HETATM   18  O   UNL     1      44.826 -20.447   2.986  1.00  0.00    -0.394 OA
HETATM   19  C   UNL     1      44.378 -21.533   2.188  1.00  0.00     0.201 C 
ENDBRANCH  17  18
ENDBRANCH  16  17
ENDBRANCH  13  16
ENDBRANCH   1  12
BRANCH   8  20
HETATM   20  C   UNL     1      40.587 -15.545  -2.990  1.00  0.00     0.409 C 
HETATM   21  F   UNL     1      41.927 -15.679  -3.104  1.00  0.00    -0.169 F 
HETATM   22  F   UNL     1      40.049 -16.774  -2.851  1.00  0.00    -0.169 F 
HETATM   23  F   UNL     1      40.142 -15.070  -4.185  1.00  0.00    -0.169 F 
ENDBRANCH   8  20
BRANCH   6  24
HETATM   24  C   UNL     1      38.995 -11.938  -0.643  1.00  0.00    -0.035 A 
HETATM   25  C   UNL     1      38.643 -12.002   0.716  1.00  0.00     0.009 A 
HETATM   26  C   UNL     1      37.323 -11.809   1.131  1.00  0.00     0.001 A 
HETATM   27  C   UNL     1      36.329 -11.539   0.196  1.00  0.00     0.000 A 
HETATM   28  C   UNL     1      36.655 -11.452  -1.153  1.00  0.00     0.001 A 
HETATM   29  C   UNL     1      37.976 -11.644  -1.568  1.00  0.00     0.009 A 
ENDBRANCH   6  24
TORSDOF 6
ENDMDL
