MODEL 1
REMARK VINA RESULT:      -8.1      0.000      0.000
REMARK  6 active torsions:
REMARK  status: ('A' for Active; 'I' for Inactive)
REMARK    1  A    between atoms: C_2  and  N_3 
REMARK    2  A    between atoms: C_5  and  C_6 
REMARK    3  A    between atoms: C_6  and  N_7 
REMARK       I    between atoms: N_7  and  C_8 
REMARK    4  A    between atoms: C_8  and  C_9 
REMARK    5  A    between atoms: C_9  and  C_10 
REMARK    6  A    between atoms: C_11  and  C_12 
ROOT
HETATM    1  C   UNL     1      44.538 -20.450   4.116  1.00  0.00     0.005 C 
HETATM    2  C   UNL     1      43.966 -20.200   2.867  1.00  0.00     0.069 C 
HETATM    3  N   UNL     1      43.995 -21.408   2.214  1.00  0.00    -0.277 N 
HETATM    4  H   UNL     1      43.751 -21.604   1.249  1.00  0.00     0.189 HD
HETATM    5  N   UNL     1      44.353 -22.431   2.994  1.00  0.00    -0.179 NA
HETATM    6  C   UNL     1      44.838 -21.849   4.093  1.00  0.00     0.059 C 
HETATM    7  C   UNL     1      45.556 -22.685   5.093  1.00  0.00     0.073 C 
ENDROOT
BRANCH   1   8
HETATM    8  C   UNL     1      44.819 -19.467   5.217  1.00  0.00     0.146 C 
BRANCH   8   9
HETATM    9  C   UNL     1      43.912 -19.630   6.421  1.00  0.00     0.222 C 
HETATM   10  N   UNL     1      43.378 -18.546   7.059  1.00  0.00    -0.359 N 
HETATM   11  H   UNL     1      42.898 -18.861   7.899  1.00  0.00     0.162 HD
HETATM   12  O   UNL     1      43.594 -20.739   6.848  1.00  0.00    -0.273 OA
BRANCH  10  13
HETATM   13  C   UNL     1      43.764 -17.143   7.004  1.00  0.00     0.155 C 
BRANCH  13  14
HETATM   14  C   UNL     1      42.753 -16.227   6.311  1.00  0.00     0.206 C 
HETATM   15  N   UNL     1      42.934 -14.731   6.527  1.00  0.00    -0.066 N 
HETATM   16  H   UNL     1      42.647 -14.506   7.494  1.00  0.00     0.280 HD
HETATM   17  C   UNL     1      41.889 -14.169   5.578  1.00  0.00     0.235 C 
HETATM   18  C   UNL     1      41.968 -15.071   4.349  1.00  0.00     0.030 C 
HETATM   19  C   UNL     1      42.661 -16.355   4.798  1.00  0.00     0.036 C 
BRANCH  15  20
HETATM   20  C   UNL     1      44.295 -14.116   6.270  1.00  0.00     0.231 C 
HETATM   21  C   UNL     1      44.949 -13.625   7.547  1.00  0.00     0.034 C 
ENDBRANCH  15  20
ENDBRANCH  13  14
ENDBRANCH  10  13
ENDBRANCH   8   9
ENDBRANCH   1   8
BRANCH   2  22
HETATM   22  C   UNL     1      43.456 -18.990   2.219  1.00  0.00    -0.007 A 
HETATM   23  C   UNL     1      44.317 -17.954   1.838  1.00  0.00     0.015 A 
HETATM   24  C   UNL     1      43.814 -16.786   1.254  1.00  0.00     0.024 A 
HETATM   25  C   UNL     1      42.446 -16.652   1.038  1.00  0.00     0.034 A 
HETATM   26 CL   UNL     1      41.826 -15.213   0.333  1.00  0.00    -0.084 Cl
HETATM   27  C   UNL     1      41.576 -17.680   1.390  1.00  0.00     0.024 A 
HETATM   28  C   UNL     1      42.079 -18.845   1.977  1.00  0.00     0.015 A 
ENDBRANCH   2  22
TORSDOF 6
ENDMDL
MODEL 2
REMARK VINA RESULT:      -7.5      3.824      6.178
REMARK  6 active torsions:
REMARK  status: ('A' for Active; 'I' for Inactive)
REMARK    1  A    between atoms: C_2  and  N_3 
REMARK    2  A    between atoms: C_5  and  C_6 
REMARK    3  A    between atoms: C_6  and  N_7 
REMARK       I    between atoms: N_7  and  C_8 
REMARK    4  A    between atoms: C_8  and  C_9 
REMARK    5  A    between atoms: C_9  and  C_10 
REMARK    6  A    between atoms: C_11  and  C_12 
ROOT
HETATM    1  C   UNL     1      40.928 -14.634   0.557  1.00  0.00     0.005 C 
HETATM    2  C   UNL     1      41.493 -15.896   0.357  1.00  0.00     0.069 C 
HETATM    3  N   UNL     1      41.257 -16.185  -0.964  1.00  0.00    -0.277 N 
HETATM    4  H   UNL     1      41.437 -17.054  -1.457  1.00  0.00     0.189 HD
HETATM    5  N   UNL     1      40.769 -15.156  -1.661  1.00  0.00    -0.179 NA
HETATM    6  C   UNL     1      40.415 -14.269  -0.727  1.00  0.00     0.059 C 
HETATM    7  C   UNL     1      39.608 -13.086  -1.129  1.00  0.00     0.073 C 
ENDROOT
BRANCH   1   8
HETATM    8  C   UNL     1      40.839 -13.855   1.839  1.00  0.00     0.146 C 
BRANCH   8   9
HETATM    9  C   UNL     1      41.978 -12.874   2.033  1.00  0.00     0.222 C 
HETATM   10  N   UNL     1      42.497 -12.626   3.272  1.00  0.00    -0.359 N 
HETATM   11  H   UNL     1      43.167 -11.863   3.203  1.00  0.00     0.162 HD
HETATM   12  O   UNL     1      42.501 -12.291   1.084  1.00  0.00    -0.273 OA
BRANCH  10  13
HETATM   13  C   UNL     1      41.947 -12.906   4.591  1.00  0.00     0.155 C 
BRANCH  13  14
HETATM   14  C   UNL     1      42.718 -13.953   5.398  1.00  0.00     0.206 C 
HETATM   15  N   UNL     1      41.893 -14.848   6.312  1.00  0.00    -0.066 N 
HETATM   16  H   UNL     1      41.583 -14.286   7.123  1.00  0.00     0.280 HD
HETATM   17  C   UNL     1      42.948 -15.831   6.792  1.00  0.00     0.235 C 
HETATM   18  C   UNL     1      43.808 -16.095   5.559  1.00  0.00     0.030 C 
HETATM   19  C   UNL     1      43.546 -14.941   4.593  1.00  0.00     0.036 C 
BRANCH  15  20
HETATM   20  C   UNL     1      40.692 -15.570   5.736  1.00  0.00     0.231 C 
HETATM   21  C   UNL     1      40.477 -16.925   6.382  1.00  0.00     0.034 C 
ENDBRANCH  15  20
ENDBRANCH  13  14
ENDBRANCH  10  13
ENDBRANCH   8   9
ENDBRANCH   1   8
BRANCH   2  22
HETATM   22  C   UNL     1      42.164 -16.849   1.243  1.00  0.00    -0.007 A 
HETATM   23  C   UNL     1      41.520 -17.362   2.376  1.00  0.00     0.015 A 
HETATM   24  C   UNL     1      42.185 -18.243   3.236  1.00  0.00     0.024 A 
HETATM   25  C   UNL     1      43.494 -18.625   2.963  1.00  0.00     0.034 A 
HETATM   26 CL   UNL     1      44.316 -19.696   4.026  1.00  0.00    -0.084 Cl
HETATM   27  C   UNL     1      44.144 -18.142   1.831  1.00  0.00     0.024 A 
HETATM   28  C   UNL     1      43.481 -17.258   0.974  1.00  0.00     0.015 A 
ENDBRANCH   2  22
TORSDOF 6
ENDMDL
MODEL 3
REMARK VINA RESULT:      -7.5      3.691      5.867
REMARK  6 active torsions:
REMARK  status: ('A' for Active; 'I' for Inactive)
REMARK    1  A    between atoms: C_2  and  N_3 
REMARK    2  A    between atoms: C_5  and  C_6 
REMARK    3  A    between atoms: C_6  and  N_7 
REMARK       I    between atoms: N_7  and  C_8 
REMARK    4  A    between atoms: C_8  and  C_9 
REMARK    5  A    between atoms: C_9  and  C_10 
REMARK    6  A    between atoms: C_11  and  C_12 
ROOT
HETATM    1  C   UNL     1      40.883 -14.777   0.553  1.00  0.00     0.005 C 
HETATM    2  C   UNL     1      41.488 -15.982   0.188  1.00  0.00     0.069 C 
HETATM    3  N   UNL     1      41.161 -16.157  -1.134  1.00  0.00    -0.277 N 
HETATM    4  H   UNL     1      41.342 -16.965  -1.722  1.00  0.00     0.189 HD
HETATM    5  N   UNL     1      40.573 -15.095  -1.687  1.00  0.00    -0.179 NA
HETATM    6  C   UNL     1      40.253 -14.321  -0.647  1.00  0.00     0.059 C 
HETATM    7  C   UNL     1      39.363 -13.150  -0.870  1.00  0.00     0.073 C 
ENDROOT
BRANCH   1   8
HETATM    8  C   UNL     1      40.859 -14.129   1.908  1.00  0.00     0.146 C 
BRANCH   8   9
HETATM    9  C   UNL     1      42.104 -13.321   2.216  1.00  0.00     0.222 C 
HETATM   10  N   UNL     1      42.805 -13.511   3.373  1.00  0.00    -0.359 N 
HETATM   11  H   UNL     1      43.531 -12.801   3.440  1.00  0.00     0.162 HD
HETATM   12  O   UNL     1      42.551 -12.491   1.425  1.00  0.00    -0.273 OA
BRANCH  10  13
HETATM   13  C   UNL     1      42.410 -14.171   4.610  1.00  0.00     0.155 C 
BRANCH  13  14
HETATM   14  C   UNL     1      42.789 -15.652   4.695  1.00  0.00     0.206 C 
HETATM   15  N   UNL     1      43.897 -16.012   5.675  1.00  0.00    -0.066 N 
HETATM   16  H   UNL     1      44.796 -15.687   5.283  1.00  0.00     0.280 HD
HETATM   17  C   UNL     1      43.869 -17.530   5.603  1.00  0.00     0.235 C 
HETATM   18  C   UNL     1      42.385 -17.878   5.518  1.00  0.00     0.030 C 
HETATM   19  C   UNL     1      41.667 -16.610   5.063  1.00  0.00     0.036 C 
BRANCH  15  20
HETATM   20  C   UNL     1      43.789 -15.528   7.107  1.00  0.00     0.231 C 
HETATM   21  C   UNL     1      44.642 -14.300   7.359  1.00  0.00     0.034 C 
ENDBRANCH  15  20
ENDBRANCH  13  14
ENDBRANCH  10  13
ENDBRANCH   8   9
ENDBRANCH   1   8
BRANCH   2  22
HETATM   22  C   UNL     1      42.270 -16.977   0.924  1.00  0.00    -0.007 A 
HETATM   23  C   UNL     1      43.628 -16.775   1.198  1.00  0.00     0.015 A 
HETATM   24  C   UNL     1      44.374 -17.751   1.869  1.00  0.00     0.024 A 
HETATM   25  C   UNL     1      43.762 -18.931   2.280  1.00  0.00     0.034 A 
HETATM   26 CL   UNL     1      44.681 -20.135   3.092  1.00  0.00    -0.084 Cl
HETATM   27  C   UNL     1      42.409 -19.141   2.036  1.00  0.00     0.024 A 
HETATM   28  C   UNL     1      41.665 -18.168   1.361  1.00  0.00     0.015 A 
ENDBRANCH   2  22
TORSDOF 6
ENDMDL
MODEL 4
REMARK VINA RESULT:      -7.3      3.368      5.444
REMARK  6 active torsions:
REMARK  status: ('A' for Active; 'I' for Inactive)
REMARK    1  A    between atoms: C_2  and  N_3 
REMARK    2  A    between atoms: C_5  and  C_6 
REMARK    3  A    between atoms: C_6  and  N_7 
REMARK       I    between atoms: N_7  and  C_8 
REMARK    4  A    between atoms: C_8  and  C_9 
REMARK    5  A    between atoms: C_9  and  C_10 
REMARK    6  A    between atoms: C_11  and  C_12 
ROOT
HETATM    1  C   UNL     1      43.340 -18.978   3.006  1.00  0.00     0.005 C 
HETATM    2  C   UNL     1      43.193 -18.394   4.266  1.00  0.00     0.069 C 
HETATM    3  N   UNL     1      43.891 -19.211   5.120  1.00  0.00    -0.277 N 
HETATM    4  H   UNL     1      43.938 -19.164   6.134  1.00  0.00     0.189 HD
HETATM    5  N   UNL     1      44.619 -20.142   4.499  1.00  0.00    -0.179 NA
HETATM    6  C   UNL     1      44.172 -20.118   3.241  1.00  0.00     0.059 C 
HETATM    7  C   UNL     1      44.593 -21.197   2.307  1.00  0.00     0.073 C 
ENDROOT
BRANCH   1   8
HETATM    8  C   UNL     1      42.729 -18.537   1.707  1.00  0.00     0.146 C 
BRANCH   8   9
HETATM    9  C   UNL     1      43.414 -17.334   1.091  1.00  0.00     0.222 C 
HETATM   10  N   UNL     1      42.710 -16.402   0.382  1.00  0.00    -0.359 N 
HETATM   11  H   UNL     1      43.363 -15.744  -0.038  1.00  0.00     0.162 HD
HETATM   12  O   UNL     1      44.619 -17.129   1.234  1.00  0.00    -0.273 OA
BRANCH  10  13
HETATM   13  C   UNL     1      41.380 -16.482  -0.207  1.00  0.00     0.155 C 
BRANCH  13  14
HETATM   14  C   UNL     1      40.804 -15.142  -0.671  1.00  0.00     0.206 C 
HETATM   15  N   UNL     1      39.627 -14.598   0.127  1.00  0.00    -0.066 N 
HETATM   16  H   UNL     1      38.792 -15.165  -0.099  1.00  0.00     0.280 HD
HETATM   17  C   UNL     1      39.454 -13.227  -0.504  1.00  0.00     0.235 C 
HETATM   18  C   UNL     1      40.879 -12.736  -0.742  1.00  0.00     0.030 C 
HETATM   19  C   UNL     1      41.775 -13.973  -0.707  1.00  0.00     0.036 C 
BRANCH  15  20
HETATM   20  C   UNL     1      39.751 -14.498   1.634  1.00  0.00     0.231 C 
HETATM   21  C   UNL     1      39.553 -15.839   2.313  1.00  0.00     0.034 C 
ENDBRANCH  15  20
ENDBRANCH  13  14
ENDBRANCH  10  13
ENDBRANCH   8   9
ENDBRANCH   1   8
BRANCH   2  22
HETATM   22  C   UNL     1      42.457 -17.225   4.753  1.00  0.00    -0.007 A 
HETATM   23  C   UNL     1      41.308 -17.367   5.541  1.00  0.00     0.015 A 
HETATM   24  C   UNL     1      40.592 -16.243   5.967  1.00  0.00     0.024 A 
HETATM   25  C   UNL     1      41.028 -14.969   5.617  1.00  0.00     0.034 A 
HETATM   26 CL   UNL     1      40.141 -13.588   6.129  1.00  0.00    -0.084 Cl
HETATM   27  C   UNL     1      42.179 -14.806   4.852  1.00  0.00     0.024 A 
HETATM   28  C   UNL     1      42.891 -15.930   4.422  1.00  0.00     0.015 A 
ENDBRANCH   2  22
TORSDOF 6
ENDMDL
MODEL 5
REMARK VINA RESULT:      -7.2      3.908      6.633
REMARK  6 active torsions:
REMARK  status: ('A' for Active; 'I' for Inactive)
REMARK    1  A    between atoms: C_2  and  N_3 
REMARK    2  A    between atoms: C_5  and  C_6 
REMARK    3  A    between atoms: C_6  and  N_7 
REMARK       I    between atoms: N_7  and  C_8 
REMARK    4  A    between atoms: C_8  and  C_9 
REMARK    5  A    between atoms: C_9  and  C_10 
REMARK    6  A    between atoms: C_11  and  C_12 
ROOT
HETATM    1  C   UNL     1      42.885 -15.704   3.756  1.00  0.00     0.005 C 
HETATM    2  C   UNL     1      43.354 -16.902   4.302  1.00  0.00     0.069 C 
HETATM    3  N   UNL     1      43.609 -16.615   5.620  1.00  0.00    -0.277 N 
HETATM    4  H   UNL     1      44.049 -17.209   6.316  1.00  0.00     0.189 HD
HETATM    5  N   UNL     1      43.171 -15.414   6.003  1.00  0.00    -0.179 NA
HETATM    6  C   UNL     1      42.880 -14.793   4.858  1.00  0.00     0.059 C 
HETATM    7  C   UNL     1      42.585 -13.334   4.886  1.00  0.00     0.073 C 
ENDROOT
BRANCH   1   8
HETATM    8  C   UNL     1      42.513 -15.424   2.328  1.00  0.00     0.146 C 
BRANCH   8   9
HETATM    9  C   UNL     1      41.039 -15.619   2.035  1.00  0.00     0.222 C 
HETATM   10  N   UNL     1      40.605 -15.996   0.795  1.00  0.00    -0.359 N 
HETATM   11  H   UNL     1      39.588 -15.961   0.776  1.00  0.00     0.162 HD
HETATM   12  O   UNL     1      40.180 -15.483   2.906  1.00  0.00    -0.273 OA
BRANCH  10  13
HETATM   13  C   UNL     1      41.293 -15.958  -0.488  1.00  0.00     0.155 C 
BRANCH  13  14
HETATM   14  C   UNL     1      40.669 -15.016  -1.521  1.00  0.00     0.206 C 
HETATM   15  N   UNL     1      40.703 -13.531  -1.191  1.00  0.00    -0.066 N 
HETATM   16  H   UNL     1      40.014 -13.349  -0.442  1.00  0.00     0.280 HD
HETATM   17  C   UNL     1      40.169 -12.932  -2.482  1.00  0.00     0.235 C 
HETATM   18  C   UNL     1      40.801 -13.779  -3.583  1.00  0.00     0.030 C 
HETATM   19  C   UNL     1      41.255 -15.079  -2.923  1.00  0.00     0.036 C 
BRANCH  15  20
HETATM   20  C   UNL     1      42.024 -12.900  -0.799  1.00  0.00     0.231 C 
HETATM   21  C   UNL     1      41.941 -12.189   0.537  1.00  0.00     0.034 C 
ENDBRANCH  15  20
ENDBRANCH  13  14
ENDBRANCH  10  13
ENDBRANCH   8   9
ENDBRANCH   1   8
BRANCH   2  22
HETATM   22  C   UNL     1      43.626 -18.225   3.737  1.00  0.00    -0.007 A 
HETATM   23  C   UNL     1      44.474 -19.131   4.387  1.00  0.00     0.015 A 
HETATM   24  C   UNL     1      44.757 -20.377   3.819  1.00  0.00     0.024 A 
HETATM   25  C   UNL     1      44.184 -20.731   2.601  1.00  0.00     0.034 A 
HETATM   26 CL   UNL     1      44.542 -22.256   1.896  1.00  0.00    -0.084 Cl
HETATM   27  C   UNL     1      43.322 -19.853   1.950  1.00  0.00     0.024 A 
HETATM   28  C   UNL     1      43.044 -18.606   2.516  1.00  0.00     0.015 A 
ENDBRANCH   2  22
TORSDOF 6
ENDMDL
MODEL 6
REMARK VINA RESULT:      -7.2      2.603      4.030
REMARK  6 active torsions:
REMARK  status: ('A' for Active; 'I' for Inactive)
REMARK    1  A    between atoms: C_2  and  N_3 
REMARK    2  A    between atoms: C_5  and  C_6 
REMARK    3  A    between atoms: C_6  and  N_7 
REMARK       I    between atoms: N_7  and  C_8 
REMARK    4  A    between atoms: C_8  and  C_9 
REMARK    5  A    between atoms: C_9  and  C_10 
REMARK    6  A    between atoms: C_11  and  C_12 
ROOT
HETATM    1  C   UNL     1      42.968 -17.577   5.871  1.00  0.00     0.005 C 
HETATM    2  C   UNL     1      43.078 -18.059   4.564  1.00  0.00     0.069 C 
HETATM    3  N   UNL     1      43.818 -19.210   4.671  1.00  0.00    -0.277 N 
HETATM    4  H   UNL     1      44.183 -19.791   3.923  1.00  0.00     0.189 HD
HETATM    5  N   UNL     1      44.023 -19.602   5.931  1.00  0.00    -0.179 NA
HETATM    6  C   UNL     1      43.659 -18.547   6.663  1.00  0.00     0.059 C 
HETATM    7  C   UNL     1      43.979 -18.535   8.116  1.00  0.00     0.073 C 
ENDROOT
BRANCH   1   8
HETATM    8  C   UNL     1      42.315 -16.306   6.335  1.00  0.00     0.146 C 
BRANCH   8   9
HETATM    9  C   UNL     1      40.801 -16.386   6.384  1.00  0.00     0.222 C 
HETATM   10  N   UNL     1      40.022 -15.438   5.783  1.00  0.00    -0.359 N 
HETATM   11  H   UNL     1      39.048 -15.610   6.025  1.00  0.00     0.162 HD
HETATM   12  O   UNL     1      40.218 -17.320   6.931  1.00  0.00    -0.273 OA
BRANCH  10  13
HETATM   13  C   UNL     1      40.363 -14.099   5.322  1.00  0.00     0.155 C 
BRANCH  13  14
HETATM   14  C   UNL     1      40.780 -14.015   3.852  1.00  0.00     0.206 C 
HETATM   15  N   UNL     1      40.053 -12.985   2.999  1.00  0.00    -0.066 N 
HETATM   16  H   UNL     1      39.093 -13.328   2.825  1.00  0.00     0.280 HD
HETATM   17  C   UNL     1      40.833 -13.078   1.699  1.00  0.00     0.235 C 
HETATM   18  C   UNL     1      42.286 -13.242   2.139  1.00  0.00     0.030 C 
HETATM   19  C   UNL     1      42.248 -13.716   3.590  1.00  0.00     0.036 C 
BRANCH  15  20
HETATM   20  C   UNL     1      39.975 -11.554   3.491  1.00  0.00     0.231 C 
HETATM   21  C   UNL     1      38.563 -11.162   3.882  1.00  0.00     0.034 C 
ENDBRANCH  15  20
ENDBRANCH  13  14
ENDBRANCH  10  13
ENDBRANCH   8   9
ENDBRANCH   1   8
BRANCH   2  22
HETATM   22  C   UNL     1      42.625 -17.555   3.266  1.00  0.00    -0.007 A 
HETATM   23  C   UNL     1      41.262 -17.460   2.960  1.00  0.00     0.015 A 
HETATM   24  C   UNL     1      40.842 -17.014   1.702  1.00  0.00     0.024 A 
HETATM   25  C   UNL     1      41.785 -16.648   0.746  1.00  0.00     0.034 A 
HETATM   26 CL   UNL     1      41.270 -16.112  -0.804  1.00  0.00    -0.084 Cl
HETATM   27  C   UNL     1      43.143 -16.714   1.038  1.00  0.00     0.024 A 
HETATM   28  C   UNL     1      43.562 -17.165   2.294  1.00  0.00     0.015 A 
ENDBRANCH   2  22
TORSDOF 6
ENDMDL
MODEL 7
REMARK VINA RESULT:      -7.2      4.332      7.177
REMARK  6 active torsions:
REMARK  status: ('A' for Active; 'I' for Inactive)
REMARK    1  A    between atoms: C_2  and  N_3 
REMARK    2  A    between atoms: C_5  and  C_6 
REMARK    3  A    between atoms: C_6  and  N_7 
REMARK       I    between atoms: N_7  and  C_8 
REMARK    4  A    between atoms: C_8  and  C_9 
REMARK    5  A    between atoms: C_9  and  C_10 
REMARK    6  A    between atoms: C_11  and  C_12 
ROOT
HETATM    1  C   UNL     1      42.990 -15.977   2.566  1.00  0.00     0.005 C 
HETATM    2  C   UNL     1      43.340 -16.631   3.750  1.00  0.00     0.069 C 
HETATM    3  N   UNL     1      43.266 -15.667   4.724  1.00  0.00    -0.277 N 
HETATM    4  H   UNL     1      43.539 -15.739   5.699  1.00  0.00     0.189 HD
HETATM    5  N   UNL     1      42.723 -14.521   4.305  1.00  0.00    -0.179 NA
HETATM    6  C   UNL     1      42.702 -14.638   2.975  1.00  0.00     0.059 C 
HETATM    7  C   UNL     1      42.378 -13.440   2.154  1.00  0.00     0.073 C 
ENDROOT
BRANCH   1   8
HETATM    8  C   UNL     1      42.965 -16.539   1.173  1.00  0.00     0.146 C 
BRANCH   8   9
HETATM    9  C   UNL     1      41.589 -16.987   0.724  1.00  0.00     0.222 C 
HETATM   10  N   UNL     1      40.951 -16.382  -0.322  1.00  0.00    -0.359 N 
HETATM   11  H   UNL     1      40.005 -16.749  -0.390  1.00  0.00     0.162 HD
HETATM   12  O   UNL     1      41.008 -17.933   1.256  1.00  0.00    -0.273 OA
BRANCH  10  13
HETATM   13  C   UNL     1      41.209 -15.097  -0.959  1.00  0.00     0.155 C 
BRANCH  13  14
HETATM   14  C   UNL     1      40.118 -14.631  -1.926  1.00  0.00     0.206 C 
HETATM   15  N   UNL     1      38.729 -14.434  -1.335  1.00  0.00    -0.066 N 
HETATM   16  H   UNL     1      38.322 -15.365  -1.145  1.00  0.00     0.280 HD
HETATM   17  C   UNL     1      37.992 -13.825  -2.516  1.00  0.00     0.235 C 
HETATM   18  C   UNL     1      39.008 -12.881  -3.152  1.00  0.00     0.030 C 
HETATM   19  C   UNL     1      40.382 -13.321  -2.650  1.00  0.00     0.036 C 
BRANCH  15  20
HETATM   20  C   UNL     1      38.578 -13.577  -0.094  1.00  0.00     0.231 C 
HETATM   21  C   UNL     1      38.174 -14.395   1.117  1.00  0.00     0.034 C 
ENDBRANCH  15  20
ENDBRANCH  13  14
ENDBRANCH  10  13
ENDBRANCH   8   9
ENDBRANCH   1   8
BRANCH   2  22
HETATM   22  C   UNL     1      43.767 -17.998   4.054  1.00  0.00    -0.007 A 
HETATM   23  C   UNL     1      43.951 -18.424   5.376  1.00  0.00     0.015 A 
HETATM   24  C   UNL     1      44.397 -19.721   5.652  1.00  0.00     0.024 A 
HETATM   25  C   UNL     1      44.651 -20.605   4.608  1.00  0.00     0.034 A 
HETATM   26 CL   UNL     1      45.212 -22.193   4.947  1.00  0.00    -0.084 Cl
HETATM   27  C   UNL     1      44.455 -20.207   3.289  1.00  0.00     0.024 A 
HETATM   28  C   UNL     1      44.014 -18.909   3.013  1.00  0.00     0.015 A 
ENDBRANCH   2  22
TORSDOF 6
ENDMDL
MODEL 8
REMARK VINA RESULT:      -7.2      4.168      7.264
REMARK  6 active torsions:
REMARK  status: ('A' for Active; 'I' for Inactive)
REMARK    1  A    between atoms: C_2  and  N_3 
REMARK    2  A    between atoms: C_5  and  C_6 
REMARK    3  A    between atoms: C_6  and  N_7 
REMARK       I    between atoms: N_7  and  C_8 
REMARK    4  A    between atoms: C_8  and  C_9 
REMARK    5  A    between atoms: C_9  and  C_10 
REMARK    6  A    between atoms: C_11  and  C_12 
ROOT
HETATM    1  C   UNL     1      41.810 -14.716   3.159  1.00  0.00     0.005 C 
HETATM    2  C   UNL     1      43.022 -15.410   3.191  1.00  0.00     0.069 C 
HETATM    3  N   UNL     1      43.985 -14.438   3.308  1.00  0.00    -0.277 N 
HETATM    4  H   UNL     1      44.994 -14.548   3.269  1.00  0.00     0.189 HD
HETATM    5  N   UNL     1      43.493 -13.220   3.543  1.00  0.00    -0.179 NA
HETATM    6  C   UNL     1      42.186 -13.343   3.295  1.00  0.00     0.059 C 
HETATM    7  C   UNL     1      41.350 -12.114   3.224  1.00  0.00     0.073 C 
ENDROOT
BRANCH   1   8
HETATM    8  C   UNL     1      40.429 -15.277   2.978  1.00  0.00     0.146 C 
BRANCH   8   9
HETATM    9  C   UNL     1      40.265 -16.085   1.705  1.00  0.00     0.222 C 
HETATM   10  N   UNL     1      40.240 -15.482   0.480  1.00  0.00    -0.359 N 
HETATM   11  H   UNL     1      40.011 -16.178  -0.226  1.00  0.00     0.162 HD
HETATM   12  O   UNL     1      40.184 -17.313   1.722  1.00  0.00    -0.273 OA
BRANCH  10  13
HETATM   13  C   UNL     1      40.023 -14.086   0.128  1.00  0.00     0.155 C 
BRANCH  13  14
HETATM   14  C   UNL     1      41.224 -13.395  -0.522  1.00  0.00     0.206 C 
HETATM   15  N   UNL     1      41.750 -14.017  -1.808  1.00  0.00    -0.066 N 
HETATM   16  H   UNL     1      42.240 -14.894  -1.568  1.00  0.00     0.280 HD
HETATM   17  C   UNL     1      42.790 -12.991  -2.226  1.00  0.00     0.235 C 
HETATM   18  C   UNL     1      42.151 -11.645  -1.893  1.00  0.00     0.030 C 
HETATM   19  C   UNL     1      41.036 -11.932  -0.889  1.00  0.00     0.036 C 
BRANCH  15  20
HETATM   20  C   UNL     1      40.775 -14.299  -2.934  1.00  0.00     0.231 C 
HETATM   21  C   UNL     1      40.556 -15.785  -3.139  1.00  0.00     0.034 C 
ENDBRANCH  15  20
ENDBRANCH  13  14
ENDBRANCH  10  13
ENDBRANCH   8   9
ENDBRANCH   1   8
BRANCH   2  22
HETATM   22  C   UNL     1      43.371 -16.827   3.080  1.00  0.00    -0.007 A 
HETATM   23  C   UNL     1      43.384 -17.662   4.205  1.00  0.00     0.015 A 
HETATM   24  C   UNL     1      43.757 -19.006   4.092  1.00  0.00     0.024 A 
HETATM   25  C   UNL     1      44.109 -19.526   2.850  1.00  0.00     0.034 A 
HETATM   26 CL   UNL     1      44.580 -21.174   2.714  1.00  0.00    -0.084 Cl
HETATM   27  C   UNL     1      44.082 -18.719   1.718  1.00  0.00     0.024 A 
HETATM   28  C   UNL     1      43.714 -17.375   1.832  1.00  0.00     0.015 A 
ENDBRANCH   2  22
TORSDOF 6
ENDMDL
MODEL 9
REMARK VINA RESULT:      -7.1      3.845      6.816
REMARK  6 active torsions:
REMARK  status: ('A' for Active; 'I' for Inactive)
REMARK    1  A    between atoms: C_2  and  N_3 
REMARK    2  A    between atoms: C_5  and  C_6 
REMARK    3  A    between atoms: C_6  and  N_7 
REMARK       I    between atoms: N_7  and  C_8 
REMARK    4  A    between atoms: C_8  and  C_9 
REMARK    5  A    between atoms: C_9  and  C_10 
REMARK    6  A    between atoms: C_11  and  C_12 
ROOT
HETATM    1  C   UNL     1      43.160 -15.764   4.352  1.00  0.00     0.005 C 
HETATM    2  C   UNL     1      43.571 -17.065   4.652  1.00  0.00     0.069 C 
HETATM    3  N   UNL     1      43.883 -17.039   5.989  1.00  0.00    -0.277 N 
HETATM    4  H   UNL     1      44.306 -17.774   6.548  1.00  0.00     0.189 HD
HETATM    5  N   UNL     1      43.531 -15.906   6.601  1.00  0.00    -0.179 NA
HETATM    6  C   UNL     1      43.245 -15.070   5.600  1.00  0.00     0.059 C 
HETATM    7  C   UNL     1      43.041 -13.628   5.904  1.00  0.00     0.073 C 
ENDROOT
BRANCH   1   8
HETATM    8  C   UNL     1      42.764 -15.206   3.015  1.00  0.00     0.146 C 
BRANCH   8   9
HETATM    9  C   UNL     1      41.272 -15.263   2.751  1.00  0.00     0.222 C 
HETATM   10  N   UNL     1      40.737 -14.783   1.590  1.00  0.00    -0.359 N 
HETATM   11  H   UNL     1      39.722 -14.811   1.657  1.00  0.00     0.162 HD
HETATM   12  O   UNL     1      40.491 -15.776   3.553  1.00  0.00    -0.273 OA
BRANCH  10  13
HETATM   13  C   UNL     1      41.310 -13.884   0.597  1.00  0.00     0.155 C 
BRANCH  13  14
HETATM   14  C   UNL     1      41.400 -14.464  -0.816  1.00  0.00     0.206 C 
HETATM   15  N   UNL     1      40.090 -14.903  -1.454  1.00  0.00    -0.066 N 
HETATM   16  H   UNL     1      39.780 -15.775  -0.993  1.00  0.00     0.280 HD
HETATM   17  C   UNL     1      40.549 -15.247  -2.860  1.00  0.00     0.235 C 
HETATM   18  C   UNL     1      41.575 -14.169  -3.200  1.00  0.00     0.030 C 
HETATM   19  C   UNL     1      42.021 -13.563  -1.871  1.00  0.00     0.036 C 
BRANCH  15  20
HETATM   20  C   UNL     1      38.929 -13.929  -1.479  1.00  0.00     0.231 C 
HETATM   21  C   UNL     1      37.918 -14.275  -2.555  1.00  0.00     0.034 C 
ENDBRANCH  15  20
ENDBRANCH  13  14
ENDBRANCH  10  13
ENDBRANCH   8   9
ENDBRANCH   1   8
BRANCH   2  22
HETATM   22  C   UNL     1      43.744 -18.275   3.847  1.00  0.00    -0.007 A 
HETATM   23  C   UNL     1      43.218 -18.367   2.553  1.00  0.00     0.015 A 
HETATM   24  C   UNL     1      43.357 -19.543   1.807  1.00  0.00     0.024 A 
HETATM   25  C   UNL     1      44.034 -20.631   2.348  1.00  0.00     0.034 A 
HETATM   26 CL   UNL     1      44.194 -22.080   1.438  1.00  0.00    -0.084 Cl
HETATM   27  C   UNL     1      44.583 -20.552   3.625  1.00  0.00     0.024 A 
HETATM   28  C   UNL     1      44.439 -19.379   4.371  1.00  0.00     0.015 A 
ENDBRANCH   2  22
TORSDOF 6
ENDMDL
MODEL 10
REMARK VINA RESULT:      -6.9      3.235      6.470
REMARK  6 active torsions:
REMARK  status: ('A' for Active; 'I' for Inactive)
REMARK    1  A    between atoms: C_2  and  N_3 
REMARK    2  A    between atoms: C_5  and  C_6 
REMARK    3  A    between atoms: C_6  and  N_7 
REMARK       I    between atoms: N_7  and  C_8 
REMARK    4  A    between atoms: C_8  and  C_9 
REMARK    5  A    between atoms: C_9  and  C_10 
REMARK    6  A    between atoms: C_11  and  C_12 
ROOT
HETATM    1  C   UNL     1      41.997 -15.400   3.960  1.00  0.00     0.005 C 
HETATM    2  C   UNL     1      40.645 -15.052   3.999  1.00  0.00     0.069 C 
HETATM    3  N   UNL     1      40.178 -15.568   5.182  1.00  0.00    -0.277 N 
HETATM    4  H   UNL     1      39.220 -15.598   5.518  1.00  0.00     0.189 HD
HETATM    5  N   UNL     1      41.140 -16.039   5.979  1.00  0.00    -0.179 NA
HETATM    6  C   UNL     1      42.217 -16.094   5.192  1.00  0.00     0.059 C 
HETATM    7  C   UNL     1      43.431 -16.801   5.682  1.00  0.00     0.073 C 
ENDROOT
BRANCH   1   8
HETATM    8  C   UNL     1      42.985 -15.146   2.858  1.00  0.00     0.146 C 
BRANCH   8   9
HETATM    9  C   UNL     1      42.750 -15.995   1.625  1.00  0.00     0.222 C 
HETATM   10  N   UNL     1      43.110 -17.313   1.590  1.00  0.00    -0.359 N 
HETATM   11  H   UNL     1      42.973 -17.668   0.647  1.00  0.00     0.162 HD
HETATM   12  O   UNL     1      42.195 -15.545   0.623  1.00  0.00    -0.273 OA
BRANCH  10  13
HETATM   13  C   UNL     1      44.017 -18.058   2.453  1.00  0.00     0.155 C 
BRANCH  13  14
HETATM   14  C   UNL     1      44.224 -19.521   2.053  1.00  0.00     0.206 C 
HETATM   15  N   UNL     1      44.987 -20.392   3.040  1.00  0.00    -0.066 N 
HETATM   16  H   UNL     1      45.985 -20.123   3.007  1.00  0.00     0.280 HD
HETATM   17  C   UNL     1      44.843 -21.761   2.396  1.00  0.00     0.235 C 
HETATM   18  C   UNL     1      43.413 -21.780   1.864  1.00  0.00     0.030 C 
HETATM   19  C   UNL     1      42.963 -20.324   1.776  1.00  0.00     0.036 C 
BRANCH  15  20
HETATM   20  C   UNL     1      44.540 -20.417   4.488  1.00  0.00     0.231 C 
HETATM   21  C   UNL     1      44.869 -21.735   5.163  1.00  0.00     0.034 C 
ENDBRANCH  15  20
ENDBRANCH  13  14
ENDBRANCH  10  13
ENDBRANCH   8   9
ENDBRANCH   1   8
BRANCH   2  22
HETATM   22  C   UNL     1      39.759 -14.357   3.062  1.00  0.00    -0.007 A 
HETATM   23  C   UNL     1      39.549 -12.975   3.152  1.00  0.00     0.015 A 
HETATM   24  C   UNL     1      38.671 -12.329   2.276  1.00  0.00     0.024 A 
HETATM   25  C   UNL     1      38.005 -13.059   1.296  1.00  0.00     0.034 A 
HETATM   26 CL   UNL     1      36.916 -12.267   0.228  1.00  0.00    -0.084 Cl
HETATM   27  C   UNL     1      38.217 -14.429   1.177  1.00  0.00     0.024 A 
HETATM   28  C   UNL     1      39.091 -15.076   2.056  1.00  0.00     0.015 A 
ENDBRANCH   2  22
TORSDOF 6
ENDMDL
