MODEL 1
REMARK VINA RESULT:      -9.4      0.000      0.000
REMARK  4 active torsions:
REMARK  status: ('A' for Active; 'I' for Inactive)
REMARK    1  A    between atoms: C_7  and  C_8 
REMARK    2  A    between atoms: C_10  and  O_11 
REMARK    3  A    between atoms: C_17  and  C_18 
REMARK    4  A    between atoms: C_25  and  C_26 
REMARK       I    between atoms: C_26  and  N_27 
ROOT
HETATM    1  C   UNL     1      40.531 -16.828   6.592  1.00  0.00     0.070 C 
HETATM    2  C   UNL     1      41.254 -16.829   5.268  1.00  0.00     0.037 C 
HETATM    3  N   UNL     1      40.491 -16.455   4.163  1.00  0.00    -0.192 N 
HETATM    4  C   UNL     1      41.032 -16.199   2.957  1.00  0.00     0.726 A 
HETATM    5  N   UNL     1      42.343 -16.502   2.742  1.00  0.00    -0.083 N 
HETATM    6  N   UNL     1      42.757 -16.096   1.527  1.00  0.00    -0.135 NA
HETATM    7  C   UNL     1      41.614 -15.603   1.012  1.00  0.00     0.199 A 
HETATM    8  N   UNL     1      40.534 -15.649   1.880  1.00  0.00    -0.041 NA
HETATM    9  C   UNL     1      43.198 -17.176   3.721  1.00  0.00     0.202 C 
HETATM   10  C   UNL     1      42.563 -17.167   5.109  1.00  0.00     0.062 C 
HETATM   11  H   UNL     1      39.550 -16.115   4.347  1.00  0.00     0.184 HD
ENDROOT
BRANCH   7  12
HETATM   12  C   UNL     1      41.503 -15.058  -0.340  1.00  0.00     0.017 A 
HETATM   13  C   UNL     1      41.006 -15.855  -1.384  1.00  0.00     0.052 A 
HETATM   14  C   UNL     1      40.902 -15.346  -2.682  1.00  0.00     0.069 A 
HETATM   15  C   UNL     1      41.293 -14.030  -2.934  1.00  0.00     0.037 A 
HETATM   16  C   UNL     1      41.787 -13.226  -1.909  1.00  0.00     0.004 A 
HETATM   17  C   UNL     1      41.892 -13.739  -0.616  1.00  0.00     0.015 A 
BRANCH  14  18
HETATM   18  O   UNL     1      40.438 -16.023  -3.776  1.00  0.00    -0.356 OA
HETATM   19  C   UNL     1      39.035 -15.993  -4.004  1.00  0.00     0.210 C 
ENDBRANCH  14  18
ENDBRANCH   7  12
BRANCH   9  20
HETATM   20  C   UNL     1      43.525 -18.578   3.196  1.00  0.00    -0.028 A 
HETATM   21  C   UNL     1      44.613 -19.285   3.741  1.00  0.00     0.012 A 
HETATM   22  C   UNL     1      44.940 -20.559   3.272  1.00  0.00     0.043 A 
HETATM   23  C   UNL     1      44.186 -21.129   2.254  1.00  0.00     0.116 A 
HETATM   24  F   UNL     1      44.499 -22.352   1.806  1.00  0.00    -0.206 F 
HETATM   25  C   UNL     1      43.117 -20.446   1.689  1.00  0.00     0.043 A 
HETATM   26  C   UNL     1      42.789 -19.171   2.152  1.00  0.00     0.012 A 
ENDBRANCH   9  20
BRANCH  10  27
HETATM   27  C   UNL     1      43.447 -17.362   6.290  1.00  0.00     0.249 C 
HETATM   28  N   UNL     1      44.237 -16.322   6.659  1.00  0.00    -0.366 N 
HETATM   29  H   UNL     1      44.410 -15.495   6.106  1.00  0.00     0.159 HD
HETATM   30  H   UNL     1      44.863 -16.490   7.437  1.00  0.00     0.159 HD
HETATM   31  O   UNL     1      43.460 -18.397   6.945  1.00  0.00    -0.268 OA
ENDBRANCH  10  27
TORSDOF 4
ENDMDL
MODEL 2
REMARK VINA RESULT:      -8.9      3.265      7.523
REMARK  4 active torsions:
REMARK  status: ('A' for Active; 'I' for Inactive)
REMARK    1  A    between atoms: C_7  and  C_8 
REMARK    2  A    between atoms: C_10  and  O_11 
REMARK    3  A    between atoms: C_17  and  C_18 
REMARK    4  A    between atoms: C_25  and  C_26 
REMARK       I    between atoms: C_26  and  N_27 
ROOT
HETATM    1  C   UNL     1      40.176 -13.889  -1.465  1.00  0.00     0.070 C 
HETATM    2  C   UNL     1      40.918 -14.381  -0.247  1.00  0.00     0.037 C 
HETATM    3  N   UNL     1      40.894 -15.761  -0.043  1.00  0.00    -0.192 N 
HETATM    4  C   UNL     1      41.676 -16.376   0.865  1.00  0.00     0.726 A 
HETATM    5  N   UNL     1      42.375 -15.621   1.757  1.00  0.00    -0.083 N 
HETATM    6  N   UNL     1      43.181 -16.375   2.528  1.00  0.00    -0.135 NA
HETATM    7  C   UNL     1      42.873 -17.613   2.094  1.00  0.00     0.199 A 
HETATM    8  N   UNL     1      41.949 -17.639   1.061  1.00  0.00    -0.041 NA
HETATM    9  C   UNL     1      42.269 -14.163   1.854  1.00  0.00     0.202 C 
HETATM   10  C   UNL     1      41.580 -13.575   0.626  1.00  0.00     0.062 C 
HETATM   11  H   UNL     1      40.474 -16.328  -0.776  1.00  0.00     0.184 HD
ENDROOT
BRANCH   7  12
HETATM   12  C   UNL     1      43.456 -18.833   2.649  1.00  0.00     0.017 A 
HETATM   13  C   UNL     1      43.765 -18.909   4.017  1.00  0.00     0.052 A 
HETATM   14  C   UNL     1      44.329 -20.069   4.557  1.00  0.00     0.069 A 
HETATM   15  C   UNL     1      44.579 -21.161   3.723  1.00  0.00     0.037 A 
HETATM   16  C   UNL     1      44.277 -21.102   2.364  1.00  0.00     0.004 A 
HETATM   17  C   UNL     1      43.718 -19.941   1.829  1.00  0.00     0.015 A 
BRANCH  14  18
HETATM   18  O   UNL     1      44.675 -20.261   5.866  1.00  0.00    -0.356 OA
HETATM   19  C   UNL     1      43.884 -19.597   6.844  1.00  0.00     0.210 C 
ENDBRANCH  14  18
ENDBRANCH   7  12
BRANCH   9  20
HETATM   20  C   UNL     1      41.584 -13.814   3.179  1.00  0.00    -0.028 A 
HETATM   21  C   UNL     1      42.215 -12.930   4.074  1.00  0.00     0.012 A 
HETATM   22  C   UNL     1      41.617 -12.605   5.293  1.00  0.00     0.043 A 
HETATM   23  C   UNL     1      40.390 -13.165   5.627  1.00  0.00     0.116 A 
HETATM   24  F   UNL     1      39.817 -12.851   6.795  1.00  0.00    -0.206 F 
HETATM   25  C   UNL     1      39.754 -14.052   4.768  1.00  0.00     0.043 A 
HETATM   26  C   UNL     1      40.349 -14.383   3.550  1.00  0.00     0.012 A 
ENDBRANCH   9  20
BRANCH  10  27
HETATM   27  C   UNL     1      41.798 -12.136   0.317  1.00  0.00     0.249 C 
HETATM   28  N   UNL     1      40.868 -11.253   0.762  1.00  0.00    -0.366 N 
HETATM   29  H   UNL     1      39.959 -11.497   1.127  1.00  0.00     0.159 HD
HETATM   30  H   UNL     1      41.012 -10.284   0.503  1.00  0.00     0.159 HD
HETATM   31  O   UNL     1      42.784 -11.728  -0.284  1.00  0.00    -0.268 OA
ENDBRANCH  10  27
TORSDOF 4
ENDMDL
MODEL 3
REMARK VINA RESULT:      -8.8      3.589      7.039
REMARK  4 active torsions:
REMARK  status: ('A' for Active; 'I' for Inactive)
REMARK    1  A    between atoms: C_7  and  C_8 
REMARK    2  A    between atoms: C_10  and  O_11 
REMARK    3  A    between atoms: C_17  and  C_18 
REMARK    4  A    between atoms: C_25  and  C_26 
REMARK       I    between atoms: C_26  and  N_27 
ROOT
HETATM    1  C   UNL     1      42.077 -12.066   6.244  1.00  0.00     0.070 C 
HETATM    2  C   UNL     1      41.768 -13.250   5.360  1.00  0.00     0.037 C 
HETATM    3  N   UNL     1      42.843 -14.094   5.084  1.00  0.00    -0.192 N 
HETATM    4  C   UNL     1      42.693 -15.297   4.498  1.00  0.00     0.726 A 
HETATM    5  N   UNL     1      41.482 -15.630   3.971  1.00  0.00    -0.083 N 
HETATM    6  N   UNL     1      41.466 -16.895   3.512  1.00  0.00    -0.135 NA
HETATM    7  C   UNL     1      42.743 -17.268   3.731  1.00  0.00     0.199 A 
HETATM    8  N   UNL     1      43.519 -16.298   4.346  1.00  0.00    -0.041 NA
HETATM    9  C   UNL     1      40.333 -14.722   3.923  1.00  0.00     0.202 C 
HETATM   10  C   UNL     1      40.540 -13.520   4.840  1.00  0.00     0.062 C 
HETATM   11  H   UNL     1      43.714 -13.908   5.578  1.00  0.00     0.184 HD
ENDROOT
BRANCH   7  12
HETATM   12  C   UNL     1      43.278 -18.578   3.364  1.00  0.00     0.017 A 
HETATM   13  C   UNL     1      44.140 -19.258   4.240  1.00  0.00     0.052 A 
HETATM   14  C   UNL     1      44.664 -20.508   3.896  1.00  0.00     0.069 A 
HETATM   15  C   UNL     1      44.317 -21.082   2.670  1.00  0.00     0.037 A 
HETATM   16  C   UNL     1      43.462 -20.419   1.791  1.00  0.00     0.004 A 
HETATM   17  C   UNL     1      42.945 -19.171   2.138  1.00  0.00     0.015 A 
BRANCH  14  18
HETATM   18  O   UNL     1      45.511 -21.263   4.659  1.00  0.00    -0.356 OA
HETATM   19  C   UNL     1      45.022 -22.521   5.109  1.00  0.00     0.210 C 
ENDBRANCH  14  18
ENDBRANCH   7  12
BRANCH   9  20
HETATM   20  C   UNL     1      40.070 -14.350   2.460  1.00  0.00    -0.028 A 
HETATM   21  C   UNL     1      38.793 -14.568   1.910  1.00  0.00     0.012 A 
HETATM   22  C   UNL     1      38.530 -14.249   0.576  1.00  0.00     0.043 A 
HETATM   23  C   UNL     1      39.541 -13.718  -0.215  1.00  0.00     0.116 A 
HETATM   24  F   UNL     1      39.287 -13.411  -1.493  1.00  0.00    -0.206 F 
HETATM   25  C   UNL     1      40.813 -13.508   0.300  1.00  0.00     0.043 A 
HETATM   26  C   UNL     1      41.083 -13.829   1.631  1.00  0.00     0.012 A 
ENDBRANCH   9  20
BRANCH  10  27
HETATM   27  C   UNL     1      39.342 -12.760   5.288  1.00  0.00     0.249 C 
HETATM   28  N   UNL     1      38.787 -13.111   6.477  1.00  0.00    -0.366 N 
HETATM   29  H   UNL     1      39.003 -13.948   6.997  1.00  0.00     0.159 HD
HETATM   30  H   UNL     1      37.946 -12.612   6.742  1.00  0.00     0.159 HD
HETATM   31  O   UNL     1      38.869 -11.828   4.648  1.00  0.00    -0.268 OA
ENDBRANCH  10  27
TORSDOF 4
ENDMDL
MODEL 4
REMARK VINA RESULT:      -8.5      3.467      8.086
REMARK  4 active torsions:
REMARK  status: ('A' for Active; 'I' for Inactive)
REMARK    1  A    between atoms: C_7  and  C_8 
REMARK    2  A    between atoms: C_10  and  O_11 
REMARK    3  A    between atoms: C_17  and  C_18 
REMARK    4  A    between atoms: C_25  and  C_26 
REMARK       I    between atoms: C_26  and  N_27 
ROOT
HETATM    1  C   UNL     1      40.556 -15.715  -2.907  1.00  0.00     0.070 C 
HETATM    2  C   UNL     1      41.043 -15.515  -1.494  1.00  0.00     0.037 C 
HETATM    3  N   UNL     1      40.968 -16.634  -0.665  1.00  0.00    -0.192 N 
HETATM    4  C   UNL     1      41.554 -16.685   0.546  1.00  0.00     0.726 A 
HETATM    5  N   UNL     1      42.074 -15.543   1.078  1.00  0.00    -0.083 N 
HETATM    6  N   UNL     1      42.709 -15.778   2.242  1.00  0.00    -0.135 NA
HETATM    7  C   UNL     1      42.480 -17.096   2.403  1.00  0.00     0.199 A 
HETATM    8  N   UNL     1      41.774 -17.681   1.364  1.00  0.00    -0.041 NA
HETATM    9  C   UNL     1      41.965 -14.225   0.450  1.00  0.00     0.202 C 
HETATM   10  C   UNL     1      41.531 -14.341  -1.008  1.00  0.00     0.062 C 
HETATM   11  H   UNL     1      40.693 -17.512  -1.100  1.00  0.00     0.184 HD
ENDROOT
BRANCH   7  12
HETATM   12  C   UNL     1      42.934 -17.861   3.564  1.00  0.00     0.017 A 
HETATM   13  C   UNL     1      43.920 -18.850   3.415  1.00  0.00     0.052 A 
HETATM   14  C   UNL     1      44.357 -19.591   4.517  1.00  0.00     0.069 A 
HETATM   15  C   UNL     1      43.806 -19.337   5.775  1.00  0.00     0.037 A 
HETATM   16  C   UNL     1      42.827 -18.359   5.939  1.00  0.00     0.004 A 
HETATM   17  C   UNL     1      42.393 -17.623   4.836  1.00  0.00     0.015 A 
BRANCH  14  18
HETATM   18  O   UNL     1      45.304 -20.578   4.499  1.00  0.00    -0.356 OA
HETATM   19  C   UNL     1      44.907 -21.859   4.970  1.00  0.00     0.210 C 
ENDBRANCH  14  18
ENDBRANCH   7  12
BRANCH   9  20
HETATM   20  C   UNL     1      41.039 -13.355   1.307  1.00  0.00    -0.028 A 
HETATM   21  C   UNL     1      39.650 -13.580   1.272  1.00  0.00     0.012 A 
HETATM   22  C   UNL     1      38.783 -12.794   2.034  1.00  0.00     0.043 A 
HETATM   23  C   UNL     1      39.298 -11.777   2.828  1.00  0.00     0.116 A 
HETATM   24  F   UNL     1      38.466 -11.025   3.559  1.00  0.00    -0.206 F 
HETATM   25  C   UNL     1      40.663 -11.525   2.868  1.00  0.00     0.043 A 
HETATM   26  C   UNL     1      41.533 -12.305   2.105  1.00  0.00     0.012 A 
ENDBRANCH   9  20
BRANCH  10  27
HETATM   27  C   UNL     1      41.817 -13.202  -1.922  1.00  0.00     0.249 C 
HETATM   28  N   UNL     1      42.938 -13.277  -2.684  1.00  0.00    -0.366 N 
HETATM   29  H   UNL     1      43.683 -13.947  -2.561  1.00  0.00     0.159 HD
HETATM   30  H   UNL     1      43.138 -12.472  -3.265  1.00  0.00     0.159 HD
HETATM   31  O   UNL     1      41.073 -12.234  -2.030  1.00  0.00    -0.268 OA
ENDBRANCH  10  27
TORSDOF 4
ENDMDL
MODEL 5
REMARK VINA RESULT:      -8.2      3.739      6.822
REMARK  4 active torsions:
REMARK  status: ('A' for Active; 'I' for Inactive)
REMARK    1  A    between atoms: C_7  and  C_8 
REMARK    2  A    between atoms: C_10  and  O_11 
REMARK    3  A    between atoms: C_17  and  C_18 
REMARK    4  A    between atoms: C_25  and  C_26 
REMARK       I    between atoms: C_26  and  N_27 
ROOT
HETATM    1  C   UNL     1      42.335 -11.705   6.897  1.00  0.00     0.070 C 
HETATM    2  C   UNL     1      42.050 -12.931   6.065  1.00  0.00     0.037 C 
HETATM    3  N   UNL     1      43.151 -13.739   5.784  1.00  0.00    -0.192 N 
HETATM    4  C   UNL     1      43.034 -14.967   5.244  1.00  0.00     0.726 A 
HETATM    5  N   UNL     1      41.823 -15.369   4.768  1.00  0.00    -0.083 N 
HETATM    6  N   UNL     1      41.848 -16.649   4.354  1.00  0.00    -0.135 NA
HETATM    7  C   UNL     1      43.145 -16.961   4.544  1.00  0.00     0.199 A 
HETATM    8  N   UNL     1      43.898 -15.938   5.101  1.00  0.00    -0.041 NA
HETATM    9  C   UNL     1      40.636 -14.512   4.726  1.00  0.00     0.202 C 
HETATM   10  C   UNL     1      40.819 -13.270   5.594  1.00  0.00     0.062 C 
HETATM   11  H   UNL     1      44.027 -13.499   6.242  1.00  0.00     0.184 HD
ENDROOT
BRANCH   7  12
HETATM   12  C   UNL     1      43.725 -18.259   4.206  1.00  0.00     0.017 A 
HETATM   13  C   UNL     1      43.428 -18.864   2.973  1.00  0.00     0.052 A 
HETATM   14  C   UNL     1      43.971 -20.109   2.642  1.00  0.00     0.069 A 
HETATM   15  C   UNL     1      44.821 -20.748   3.547  1.00  0.00     0.037 A 
HETATM   16  C   UNL     1      45.126 -20.160   4.773  1.00  0.00     0.004 A 
HETATM   17  C   UNL     1      44.579 -18.919   5.101  1.00  0.00     0.015 A 
BRANCH  14  18
HETATM   18  O   UNL     1      43.755 -20.797   1.480  1.00  0.00    -0.356 OA
HETATM   19  C   UNL     1      44.138 -22.166   1.463  1.00  0.00     0.210 C 
ENDBRANCH  14  18
ENDBRANCH   7  12
BRANCH   9  20
HETATM   20  C   UNL     1      40.312 -14.204   3.261  1.00  0.00    -0.028 A 
HETATM   21  C   UNL     1      39.111 -14.681   2.702  1.00  0.00     0.012 A 
HETATM   22  C   UNL     1      38.798 -14.425   1.365  1.00  0.00     0.043 A 
HETATM   23  C   UNL     1      39.684 -13.697   0.580  1.00  0.00     0.116 A 
HETATM   24  F   UNL     1      39.381 -13.450  -0.700  1.00  0.00    -0.206 F 
HETATM   25  C   UNL     1      40.881 -13.228   1.104  1.00  0.00     0.043 A 
HETATM   26  C   UNL     1      41.201 -13.485   2.437  1.00  0.00     0.012 A 
ENDBRANCH   9  20
BRANCH  10  27
HETATM   27  C   UNL     1      39.603 -12.546   6.054  1.00  0.00     0.249 C 
HETATM   28  N   UNL     1      39.134 -12.835   7.294  1.00  0.00    -0.366 N 
HETATM   29  H   UNL     1      39.427 -13.617   7.861  1.00  0.00     0.159 HD
HETATM   30  H   UNL     1      38.281 -12.364   7.571  1.00  0.00     0.159 HD
HETATM   31  O   UNL     1      39.043 -11.692   5.376  1.00  0.00    -0.268 OA
ENDBRANCH  10  27
TORSDOF 4
ENDMDL
MODEL 6
REMARK VINA RESULT:      -8.2      3.300      7.930
REMARK  4 active torsions:
REMARK  status: ('A' for Active; 'I' for Inactive)
REMARK    1  A    between atoms: C_7  and  C_8 
REMARK    2  A    between atoms: C_10  and  O_11 
REMARK    3  A    between atoms: C_17  and  C_18 
REMARK    4  A    between atoms: C_25  and  C_26 
REMARK       I    between atoms: C_26  and  N_27 
ROOT
HETATM    1  C   UNL     1      36.739 -13.521   0.644  1.00  0.00     0.070 C 
HETATM    2  C   UNL     1      38.143 -14.044   0.464  1.00  0.00     0.037 C 
HETATM    3  N   UNL     1      38.737 -14.583   1.605  1.00  0.00    -0.192 N 
HETATM    4  C   UNL     1      39.889 -15.280   1.567  1.00  0.00     0.726 A 
HETATM    5  N   UNL     1      40.613 -15.298   0.413  1.00  0.00    -0.083 N 
HETATM    6  N   UNL     1      41.680 -16.114   0.505  1.00  0.00    -0.135 NA
HETATM    7  C   UNL     1      41.588 -16.521   1.787  1.00  0.00     0.199 A 
HETATM    8  N   UNL     1      40.484 -16.024   2.462  1.00  0.00    -0.041 NA
HETATM    9  C   UNL     1      40.263 -14.531  -0.785  1.00  0.00     0.202 C 
HETATM   10  C   UNL     1      38.830 -14.013  -0.710  1.00  0.00     0.062 C 
HETATM   11  H   UNL     1      38.149 -14.677   2.430  1.00  0.00     0.184 HD
ENDROOT
BRANCH   7  12
HETATM   12  C   UNL     1      42.554 -17.413   2.425  1.00  0.00     0.017 A 
HETATM   13  C   UNL     1      42.996 -17.155   3.733  1.00  0.00     0.052 A 
HETATM   14  C   UNL     1      43.925 -17.997   4.351  1.00  0.00     0.069 A 
HETATM   15  C   UNL     1      44.411 -19.107   3.655  1.00  0.00     0.037 A 
HETATM   16  C   UNL     1      43.982 -19.377   2.357  1.00  0.00     0.004 A 
HETATM   17  C   UNL     1      43.057 -18.531   1.744  1.00  0.00     0.015 A 
BRANCH  14  18
HETATM   18  O   UNL     1      44.430 -17.850   5.613  1.00  0.00    -0.356 OA
HETATM   19  C   UNL     1      43.706 -17.006   6.500  1.00  0.00     0.210 C 
ENDBRANCH  14  18
ENDBRANCH   7  12
BRANCH   9  20
HETATM   20  C   UNL     1      41.312 -13.432  -0.981  1.00  0.00    -0.028 A 
HETATM   21  C   UNL     1      41.512 -12.477   0.033  1.00  0.00     0.012 A 
HETATM   22  C   UNL     1      42.454 -11.458  -0.126  1.00  0.00     0.043 A 
HETATM   23  C   UNL     1      43.194 -11.385  -1.299  1.00  0.00     0.116 A 
HETATM   24  F   UNL     1      44.098 -10.409  -1.450  1.00  0.00    -0.206 F 
HETATM   25  C   UNL     1      43.005 -12.306  -2.321  1.00  0.00     0.043 A 
HETATM   26  C   UNL     1      42.062 -13.324  -2.169  1.00  0.00     0.012 A 
ENDBRANCH   9  20
BRANCH  10  27
HETATM   27  C   UNL     1      38.148 -13.640  -1.979  1.00  0.00     0.249 C 
HETATM   28  N   UNL     1      37.658 -14.648  -2.746  1.00  0.00    -0.366 N 
HETATM   29  H   UNL     1      37.867 -15.628  -2.624  1.00  0.00     0.159 HD
HETATM   30  H   UNL     1      37.238 -14.376  -3.626  1.00  0.00     0.159 HD
HETATM   31  O   UNL     1      37.989 -12.478  -2.331  1.00  0.00    -0.268 OA
ENDBRANCH  10  27
TORSDOF 4
ENDMDL
MODEL 7
REMARK VINA RESULT:      -8.2      4.813      8.698
REMARK  4 active torsions:
REMARK  status: ('A' for Active; 'I' for Inactive)
REMARK    1  A    between atoms: C_7  and  C_8 
REMARK    2  A    between atoms: C_10  and  O_11 
REMARK    3  A    between atoms: C_17  and  C_18 
REMARK    4  A    between atoms: C_25  and  C_26 
REMARK       I    between atoms: C_26  and  N_27 
ROOT
HETATM    1  C   UNL     1      43.267 -18.966   4.531  1.00  0.00     0.070 C 
HETATM    2  C   UNL     1      43.371 -17.474   4.731  1.00  0.00     0.037 C 
HETATM    3  N   UNL     1      43.547 -17.053   6.049  1.00  0.00    -0.192 N 
HETATM    4  C   UNL     1      43.870 -15.786   6.371  1.00  0.00     0.726 A 
HETATM    5  N   UNL     1      43.832 -14.826   5.405  1.00  0.00    -0.083 N 
HETATM    6  N   UNL     1      44.276 -13.640   5.861  1.00  0.00    -0.135 NA
HETATM    7  C   UNL     1      44.510 -13.928   7.156  1.00  0.00     0.199 A 
HETATM    8  N   UNL     1      44.273 -15.251   7.494  1.00  0.00    -0.041 NA
HETATM    9  C   UNL     1      43.378 -15.065   4.033  1.00  0.00     0.202 C 
HETATM   10  C   UNL     1      43.302 -16.558   3.727  1.00  0.00     0.062 C 
HETATM   11  H   UNL     1      43.695 -17.777   6.748  1.00  0.00     0.184 HD
ENDROOT
BRANCH   7  12
HETATM   12  C   UNL     1      44.978 -12.947   8.133  1.00  0.00     0.017 A 
HETATM   13  C   UNL     1      44.193 -12.639   9.256  1.00  0.00     0.052 A 
HETATM   14  C   UNL     1      44.628 -11.697  10.193  1.00  0.00     0.069 A 
HETATM   15  C   UNL     1      45.859 -11.063  10.006  1.00  0.00     0.037 A 
HETATM   16  C   UNL     1      46.650 -11.358   8.897  1.00  0.00     0.004 A 
HETATM   17  C   UNL     1      46.209 -12.297   7.963  1.00  0.00     0.015 A 
BRANCH  14  18
HETATM   18  O   UNL     1      43.955 -11.312  11.319  1.00  0.00    -0.356 OA
HETATM   19  C   UNL     1      42.544 -11.167  11.207  1.00  0.00     0.210 C 
ENDBRANCH  14  18
ENDBRANCH   7  12
BRANCH   9  20
HETATM   20  C   UNL     1      42.056 -14.319   3.824  1.00  0.00    -0.028 A 
HETATM   21  C   UNL     1      42.008 -13.230   2.933  1.00  0.00     0.012 A 
HETATM   22  C   UNL     1      40.819 -12.526   2.734  1.00  0.00     0.043 A 
HETATM   23  C   UNL     1      39.675 -12.901   3.428  1.00  0.00     0.116 A 
HETATM   24  F   UNL     1      38.535 -12.227   3.234  1.00  0.00    -0.206 F 
HETATM   25  C   UNL     1      39.700 -13.962   4.323  1.00  0.00     0.043 A 
HETATM   26  C   UNL     1      40.887 -14.666   4.529  1.00  0.00     0.012 A 
ENDBRANCH   9  20
BRANCH  10  27
HETATM   27  C   UNL     1      43.327 -16.988   2.303  1.00  0.00     0.249 C 
HETATM   28  N   UNL     1      42.133 -17.190   1.689  1.00  0.00    -0.366 N 
HETATM   29  H   UNL     1      41.240 -17.247   2.155  1.00  0.00     0.159 HD
HETATM   30  H   UNL     1      42.173 -17.525   0.734  1.00  0.00     0.159 HD
HETATM   31  O   UNL     1      44.367 -17.130   1.671  1.00  0.00    -0.268 OA
ENDBRANCH  10  27
TORSDOF 4
ENDMDL
MODEL 8
REMARK VINA RESULT:      -8.0      3.577      7.306
REMARK  4 active torsions:
REMARK  status: ('A' for Active; 'I' for Inactive)
REMARK    1  A    between atoms: C_7  and  C_8 
REMARK    2  A    between atoms: C_10  and  O_11 
REMARK    3  A    between atoms: C_17  and  C_18 
REMARK    4  A    between atoms: C_25  and  C_26 
REMARK       I    between atoms: C_26  and  N_27 
ROOT
HETATM    1  C   UNL     1      41.420 -10.938   4.534  1.00  0.00     0.070 C 
HETATM    2  C   UNL     1      41.433 -12.190   3.692  1.00  0.00     0.037 C 
HETATM    3  N   UNL     1      42.448 -13.101   3.982  1.00  0.00    -0.192 N 
HETATM    4  C   UNL     1      42.473 -14.349   3.477  1.00  0.00     0.726 A 
HETATM    5  N   UNL     1      41.591 -14.683   2.494  1.00  0.00    -0.083 N 
HETATM    6  N   UNL     1      41.675 -15.987   2.168  1.00  0.00    -0.135 NA
HETATM    7  C   UNL     1      42.693 -16.388   2.955  1.00  0.00     0.199 A 
HETATM    8  N   UNL     1      43.198 -15.394   3.779  1.00  0.00    -0.041 NA
HETATM    9  C   UNL     1      40.656 -13.739   1.878  1.00  0.00     0.202 C 
HETATM   10  C   UNL     1      40.539 -12.460   2.703  1.00  0.00     0.062 C 
HETATM   11  H   UNL     1      43.028 -12.903   4.794  1.00  0.00     0.184 HD
ENDROOT
BRANCH   7  12
HETATM   12  C   UNL     1      43.227 -17.749   2.958  1.00  0.00     0.017 A 
HETATM   13  C   UNL     1      43.774 -18.290   4.133  1.00  0.00     0.052 A 
HETATM   14  C   UNL     1      44.294 -19.588   4.145  1.00  0.00     0.069 A 
HETATM   15  C   UNL     1      44.260 -20.349   2.974  1.00  0.00     0.037 A 
HETATM   16  C   UNL     1      43.720 -19.827   1.801  1.00  0.00     0.004 A 
HETATM   17  C   UNL     1      43.205 -18.530   1.793  1.00  0.00     0.015 A 
BRANCH  14  18
HETATM   18  O   UNL     1      44.853 -20.220   5.221  1.00  0.00    -0.356 OA
HETATM   19  C   UNL     1      44.866 -21.642   5.194  1.00  0.00     0.210 C 
ENDBRANCH  14  18
ENDBRANCH   7  12
BRANCH   9  20
HETATM   20  C   UNL     1      41.089 -13.505   0.427  1.00  0.00    -0.028 A 
HETATM   21  C   UNL     1      40.536 -14.296  -0.597  1.00  0.00     0.012 A 
HETATM   22  C   UNL     1      40.923 -14.111  -1.926  1.00  0.00     0.043 A 
HETATM   23  C   UNL     1      41.867 -13.141  -2.237  1.00  0.00     0.116 A 
HETATM   24  F   UNL     1      42.235 -12.963  -3.512  1.00  0.00    -0.206 F 
HETATM   25  C   UNL     1      42.439 -12.357  -1.244  1.00  0.00     0.043 A 
HETATM   26  C   UNL     1      42.059 -12.541   0.087  1.00  0.00     0.012 A 
ENDBRANCH   9  20
BRANCH  10  27
HETATM   27  C   UNL     1      39.330 -11.611   2.519  1.00  0.00     0.249 C 
HETATM   28  N   UNL     1      39.381 -10.651   1.560  1.00  0.00    -0.366 N 
HETATM   29  H   UNL     1      40.217 -10.345   1.084  1.00  0.00     0.159 HD
HETATM   30  H   UNL     1      38.565 -10.056   1.480  1.00  0.00     0.159 HD
HETATM   31  O   UNL     1      38.303 -11.769   3.167  1.00  0.00    -0.268 OA
ENDBRANCH  10  27
TORSDOF 4
ENDMDL
MODEL 9
REMARK VINA RESULT:      -7.9      3.566      8.101
REMARK  4 active torsions:
REMARK  status: ('A' for Active; 'I' for Inactive)
REMARK    1  A    between atoms: C_7  and  C_8 
REMARK    2  A    between atoms: C_10  and  O_11 
REMARK    3  A    between atoms: C_17  and  C_18 
REMARK    4  A    between atoms: C_25  and  C_26 
REMARK       I    between atoms: C_26  and  N_27 
ROOT
HETATM    1  C   UNL     1      40.074 -14.322  -3.228  1.00  0.00     0.070 C 
HETATM    2  C   UNL     1      40.666 -14.397  -1.842  1.00  0.00     0.037 C 
HETATM    3  N   UNL     1      40.706 -15.669  -1.271  1.00  0.00    -0.192 N 
HETATM    4  C   UNL     1      41.390 -15.939  -0.143  1.00  0.00     0.726 A 
HETATM    5  N   UNL     1      41.903 -14.907   0.584  1.00  0.00    -0.083 N 
HETATM    6  N   UNL     1      42.640 -15.345   1.622  1.00  0.00    -0.135 NA
HETATM    7  C   UNL     1      42.481 -16.679   1.512  1.00  0.00     0.199 A 
HETATM    8  N   UNL     1      41.718 -17.071   0.424  1.00  0.00    -0.041 NA
HETATM    9  C   UNL     1      41.687 -13.495   0.264  1.00  0.00     0.202 C 
HETATM   10  C   UNL     1      41.141 -13.326  -1.151  1.00  0.00     0.062 C 
HETATM   11  H   UNL     1      40.434 -16.450  -1.864  1.00  0.00     0.184 HD
ENDROOT
BRANCH   7  12
HETATM   12  C   UNL     1      43.060 -17.643   2.446  1.00  0.00     0.017 A 
HETATM   13  C   UNL     1      43.048 -17.383   3.827  1.00  0.00     0.052 A 
HETATM   14  C   UNL     1      43.604 -18.295   4.728  1.00  0.00     0.069 A 
HETATM   15  C   UNL     1      44.172 -19.476   4.244  1.00  0.00     0.037 A 
HETATM   16  C   UNL     1      44.191 -19.748   2.878  1.00  0.00     0.004 A 
HETATM   17  C   UNL     1      43.637 -18.834   1.982  1.00  0.00     0.015 A 
BRANCH  14  18
HETATM   18  O   UNL     1      43.655 -18.153   6.088  1.00  0.00    -0.356 OA
HETATM   19  C   UNL     1      44.369 -17.032   6.590  1.00  0.00     0.210 C 
ENDBRANCH  14  18
ENDBRANCH   7  12
BRANCH   9  20
HETATM   20  C   UNL     1      40.797 -12.882   1.351  1.00  0.00    -0.028 A 
HETATM   21  C   UNL     1      41.339 -11.930   2.234  1.00  0.00     0.012 A 
HETATM   22  C   UNL     1      40.553 -11.365   3.240  1.00  0.00     0.043 A 
HETATM   23  C   UNL     1      39.226 -11.753   3.374  1.00  0.00     0.116 A 
HETATM   24  F   UNL     1      38.473 -11.210   4.338  1.00  0.00    -0.206 F 
HETATM   25  C   UNL     1      38.671 -12.702   2.525  1.00  0.00     0.043 A 
HETATM   26  C   UNL     1      39.454 -13.273   1.520  1.00  0.00     0.012 A 
ENDBRANCH   9  20
BRANCH  10  27
HETATM   27  C   UNL     1      41.303 -12.004  -1.816  1.00  0.00     0.249 C 
HETATM   28  N   UNL     1      42.463 -11.778  -2.485  1.00  0.00    -0.366 N 
HETATM   29  H   UNL     1      43.292 -12.351  -2.426  1.00  0.00     0.159 HD
HETATM   30  H   UNL     1      42.571 -10.857  -2.892  1.00  0.00     0.159 HD
HETATM   31  O   UNL     1      40.430 -11.145  -1.806  1.00  0.00    -0.268 OA
ENDBRANCH  10  27
TORSDOF 4
ENDMDL
MODEL 10
REMARK VINA RESULT:      -7.5      3.353      7.883
REMARK  4 active torsions:
REMARK  status: ('A' for Active; 'I' for Inactive)
REMARK    1  A    between atoms: C_7  and  C_8 
REMARK    2  A    between atoms: C_10  and  O_11 
REMARK    3  A    between atoms: C_17  and  C_18 
REMARK    4  A    between atoms: C_25  and  C_26 
REMARK       I    between atoms: C_26  and  N_27 
ROOT
HETATM    1  C   UNL     1      41.205  -9.872  -0.568  1.00  0.00     0.070 C 
HETATM    2  C   UNL     1      40.839 -11.313  -0.314  1.00  0.00     0.037 C 
HETATM    3  N   UNL     1      41.840 -12.099   0.255  1.00  0.00    -0.192 N 
HETATM    4  C   UNL     1      41.610 -13.335   0.738  1.00  0.00     0.726 A 
HETATM    5  N   UNL     1      40.408 -13.929   0.492  1.00  0.00    -0.083 N 
HETATM    6  N   UNL     1      40.297 -15.113   1.123  1.00  0.00    -0.135 NA
HETATM    7  C   UNL     1      41.513 -15.220   1.694  1.00  0.00     0.199 A 
HETATM    8  N   UNL     1      42.340 -14.129   1.476  1.00  0.00    -0.041 NA
HETATM    9  C   UNL     1      39.362 -13.340  -0.347  1.00  0.00     0.202 C 
HETATM   10  C   UNL     1      39.627 -11.859  -0.604  1.00  0.00     0.062 C 
HETATM   11  H   UNL     1      42.690 -11.622   0.546  1.00  0.00     0.184 HD
ENDROOT
BRANCH   7  12
HETATM   12  C   UNL     1      41.938 -16.374   2.483  1.00  0.00     0.017 A 
HETATM   13  C   UNL     1      42.960 -17.215   2.010  1.00  0.00     0.052 A 
HETATM   14  C   UNL     1      43.370 -18.325   2.753  1.00  0.00     0.069 A 
HETATM   15  C   UNL     1      42.757 -18.593   3.979  1.00  0.00     0.037 A 
HETATM   16  C   UNL     1      41.743 -17.768   4.463  1.00  0.00     0.004 A 
HETATM   17  C   UNL     1      41.335 -16.663   3.716  1.00  0.00     0.015 A 
BRANCH  14  18
HETATM   18  O   UNL     1      44.346 -19.215   2.398  1.00  0.00    -0.356 OA
HETATM   19  C   UNL     1      44.432 -20.412   3.160  1.00  0.00     0.210 C 
ENDBRANCH  14  18
ENDBRANCH   7  12
BRANCH   9  20
HETATM   20  C   UNL     1      39.233 -14.180  -1.622  1.00  0.00    -0.028 A 
HETATM   21  C   UNL     1      40.374 -14.809  -2.155  1.00  0.00     0.012 A 
HETATM   22  C   UNL     1      40.286 -15.570  -3.322  1.00  0.00     0.043 A 
HETATM   23  C   UNL     1      39.062 -15.700  -3.966  1.00  0.00     0.116 A 
HETATM   24  F   UNL     1      38.978 -16.432  -5.084  1.00  0.00    -0.206 F 
HETATM   25  C   UNL     1      37.925 -15.077  -3.469  1.00  0.00     0.043 A 
HETATM   26  C   UNL     1      38.008 -14.312  -2.305  1.00  0.00     0.012 A 
ENDBRANCH   9  20
BRANCH  10  27
HETATM   27  C   UNL     1      38.483 -10.999  -1.011  1.00  0.00     0.249 C 
HETATM   28  N   UNL     1      37.682 -10.516  -0.027  1.00  0.00    -0.366 N 
HETATM   29  H   UNL     1      37.686 -10.827   0.933  1.00  0.00     0.159 HD
HETATM   30  H   UNL     1      36.884  -9.969  -0.328  1.00  0.00     0.159 HD
HETATM   31  O   UNL     1      38.264 -10.693  -2.177  1.00  0.00    -0.268 OA
ENDBRANCH  10  27
TORSDOF 4
ENDMDL
