MODEL 1
REMARK VINA RESULT:      -9.1      0.000      0.000
REMARK  9 active torsions:
REMARK  status: ('A' for Active; 'I' for Inactive)
REMARK    1  A    between atoms: C_2  and  C_3 
REMARK    2  A    between atoms: C_3  and  C_4 
REMARK    3  A    between atoms: C_3  and  C_38 
REMARK    4  A    between atoms: C_6  and  C_7 
REMARK    5  A    between atoms: C_14  and  C_15 
REMARK    6  A    between atoms: C_18  and  C_19 
REMARK    7  A    between atoms: C_19  and  N_20 
REMARK       I    between atoms: N_20  and  C_21 
REMARK       I    between atoms: C_21  and  N_22 
REMARK    8  A    between atoms: N_22  and  C_23 
REMARK    9  A    between atoms: C_26  and  O_27 
ROOT
HETATM    1  C   UNL     1      40.731 -16.042   2.976  1.00  0.00     0.068 C 
HETATM    2  C   UNL     1      41.039 -15.552   1.533  1.00  0.00     0.001 C 
HETATM    3  C   UNL     1      41.998 -14.339   1.582  1.00  0.00     0.040 C 
HETATM    4  C   UNL     1      41.339 -13.152   2.312  1.00  0.00     0.206 C 
HETATM    5  N   UNL     1      40.015 -13.665   2.870  1.00  0.00    -0.065 N 
HETATM    6  H   UNL     1      39.618 -12.900   3.459  1.00  0.00     0.280 HD
HETATM    7  C   UNL     1      40.172 -14.862   3.796  1.00  0.00     0.246 C 
HETATM    8  C   UNL     1      39.710 -15.082   0.898  1.00  0.00     0.033 C 
HETATM    9  C   UNL     1      39.062 -13.985   1.749  1.00  0.00     0.236 C 
ENDROOT
BRANCH   1  10
HETATM   10  C   UNL     1      41.930 -16.707   3.619  1.00  0.00     0.045 A 
HETATM   11  N   UNL     1      42.281 -17.933   3.181  1.00  0.00    -0.233 NA
HETATM   12  C   UNL     1      43.304 -18.541   3.821  1.00  0.00     0.160 A 
HETATM   13  N   UNL     1      43.948 -18.025   4.880  1.00  0.00    -0.233 NA
HETATM   14  C   UNL     1      43.583 -16.798   5.302  1.00  0.00     0.043 A 
HETATM   15  C   UNL     1      42.573 -16.091   4.679  1.00  0.00     0.055 A 
BRANCH  12  16
HETATM   16  C   UNL     1      43.733 -19.859   3.332  1.00  0.00     0.014 A 
HETATM   17  C   UNL     1      44.461 -20.737   4.149  1.00  0.00     0.034 A 
HETATM   18  C   UNL     1      44.840 -21.973   3.651  1.00  0.00     0.117 A 
HETATM   19  N   UNL     1      44.553 -22.394   2.403  1.00  0.00    -0.273 NA
HETATM   20  C   UNL     1      43.876 -21.539   1.613  1.00  0.00     0.117 A 
HETATM   21  C   UNL     1      43.447 -20.288   2.027  1.00  0.00     0.034 A 
ENDBRANCH  12  16
BRANCH  14  22
HETATM   22  C   UNL     1      44.346 -16.242   6.493  1.00  0.00     0.037 C 
BRANCH  22  23
HETATM   23  C   UNL     1      43.614 -16.453   7.838  1.00  0.00     0.006 C 
HETATM   24  C   UNL     1      43.670 -17.891   8.340  1.00  0.00     0.006 C 
ENDBRANCH  22  23
BRANCH  22  25
HETATM   25  C   UNL     1      44.673 -14.746   6.300  1.00  0.00     0.006 C 
HETATM   26  C   UNL     1      44.672 -13.955   7.602  1.00  0.00     0.006 C 
ENDBRANCH  22  25
ENDBRANCH  14  22
ENDBRANCH   1  10
BRANCH   4  27
HETATM   27  C   UNL     1      42.257 -12.496   3.378  1.00  0.00     0.157 C 
BRANCH  27  28
HETATM   28  N   UNL     1      41.598 -11.608   4.339  1.00  0.00    -0.341 N 
HETATM   29  C   UNL     1      41.505 -11.906   5.680  1.00  0.00     0.320 C 
HETATM   30  N   UNL     1      41.128 -10.824   6.430  1.00  0.00    -0.309 N 
HETATM   31  O   UNL     1      41.737 -13.039   6.088  1.00  0.00    -0.247 OA
HETATM   32  H   UNL     1      40.865  -9.983   5.934  1.00  0.00     0.170 HD
HETATM   33  H   UNL     1      41.684 -10.622   4.133  1.00  0.00     0.164 HD
BRANCH  30  34
HETATM   34  C   UNL     1      41.067 -10.744   7.840  1.00  0.00     0.036 A 
HETATM   35  C   UNL     1      39.894 -10.895   8.580  1.00  0.00     0.032 A 
HETATM   36  C   UNL     1      39.927 -10.851   9.978  1.00  0.00     0.039 A 
HETATM   37  C   UNL     1      41.131 -10.672  10.658  1.00  0.00     0.068 A 
HETATM   38  C   UNL     1      42.302 -10.495   9.926  1.00  0.00     0.039 A 
HETATM   39  C   UNL     1      42.268 -10.528   8.526  1.00  0.00     0.032 A 
BRANCH  37  40
HETATM   40  O   UNL     1      41.026 -10.675  12.019  1.00  0.00    -0.356 OA
HETATM   41  C   UNL     1      40.246 -11.717  12.594  1.00  0.00     0.210 C 
ENDBRANCH  37  40
ENDBRANCH  30  34
ENDBRANCH  27  28
ENDBRANCH   4  27
TORSDOF 9
ENDMDL
MODEL 2
REMARK VINA RESULT:      -8.5      0.901      1.632
REMARK  9 active torsions:
REMARK  status: ('A' for Active; 'I' for Inactive)
REMARK    1  A    between atoms: C_2  and  C_3 
REMARK    2  A    between atoms: C_3  and  C_4 
REMARK    3  A    between atoms: C_3  and  C_38 
REMARK    4  A    between atoms: C_6  and  C_7 
REMARK    5  A    between atoms: C_14  and  C_15 
REMARK    6  A    between atoms: C_18  and  C_19 
REMARK    7  A    between atoms: C_19  and  N_20 
REMARK       I    between atoms: N_20  and  C_21 
REMARK       I    between atoms: C_21  and  N_22 
REMARK    8  A    between atoms: N_22  and  C_23 
REMARK    9  A    between atoms: C_26  and  O_27 
ROOT
HETATM    1  C   UNL     1      40.668 -16.077   1.904  1.00  0.00     0.068 C 
HETATM    2  C   UNL     1      41.374 -15.677   0.578  1.00  0.00     0.001 C 
HETATM    3  C   UNL     1      42.331 -14.487   0.829  1.00  0.00     0.040 C 
HETATM    4  C   UNL     1      41.546 -13.245   1.295  1.00  0.00     0.206 C 
HETATM    5  N   UNL     1      40.101 -13.692   1.495  1.00  0.00    -0.065 N 
HETATM    6  H   UNL     1      39.590 -12.886   1.917  1.00  0.00     0.280 HD
HETATM    7  C   UNL     1      39.955 -14.839   2.484  1.00  0.00     0.246 C 
HETATM    8  C   UNL     1      40.286 -15.210  -0.417  1.00  0.00     0.033 C 
HETATM    9  C   UNL     1      39.476 -14.051   0.173  1.00  0.00     0.236 C 
ENDROOT
BRANCH   1  10
HETATM   10  C   UNL     1      41.621 -16.734   2.880  1.00  0.00     0.045 A 
HETATM   11  N   UNL     1      42.125 -17.942   2.553  1.00  0.00    -0.233 NA
HETATM   12  C   UNL     1      42.911 -18.546   3.471  1.00  0.00     0.160 A 
HETATM   13  N   UNL     1      43.175 -18.044   4.688  1.00  0.00    -0.233 NA
HETATM   14  C   UNL     1      42.664 -16.836   4.996  1.00  0.00     0.043 A 
HETATM   15  C   UNL     1      41.882 -16.133   4.099  1.00  0.00     0.055 A 
BRANCH  12  16
HETATM   16  C   UNL     1      43.507 -19.842   3.119  1.00  0.00     0.014 A 
HETATM   17  C   UNL     1      44.378 -20.506   3.995  1.00  0.00     0.034 A 
HETATM   18  C   UNL     1      44.913 -21.729   3.627  1.00  0.00     0.117 A 
HETATM   19  N   UNL     1      44.648 -22.335   2.452  1.00  0.00    -0.273 NA
HETATM   20  C   UNL     1      43.831 -21.685   1.603  1.00  0.00     0.117 A 
HETATM   21  C   UNL     1      43.243 -20.462   1.889  1.00  0.00     0.034 A 
ENDBRANCH  12  16
BRANCH  14  22
HETATM   22  C   UNL     1      42.998 -16.295   6.376  1.00  0.00     0.037 C 
BRANCH  22  23
HETATM   23  C   UNL     1      44.497 -15.964   6.555  1.00  0.00     0.006 C 
HETATM   24  C   UNL     1      44.752 -14.524   6.982  1.00  0.00     0.006 C 
ENDBRANCH  22  23
BRANCH  22  25
HETATM   25  C   UNL     1      42.536 -17.265   7.485  1.00  0.00     0.006 C 
HETATM   26  C   UNL     1      43.687 -17.841   8.301  1.00  0.00     0.006 C 
ENDBRANCH  22  25
ENDBRANCH  14  22
ENDBRANCH   1  10
BRANCH   4  27
HETATM   27  C   UNL     1      42.166 -12.553   2.538  1.00  0.00     0.157 C 
BRANCH  27  28
HETATM   28  N   UNL     1      41.219 -12.017   3.519  1.00  0.00    -0.341 N 
HETATM   29  C   UNL     1      41.424 -12.112   4.877  1.00  0.00     0.320 C 
HETATM   30  N   UNL     1      40.586 -11.297   5.590  1.00  0.00    -0.309 N 
HETATM   31  O   UNL     1      42.273 -12.872   5.330  1.00  0.00    -0.247 OA
HETATM   32  H   UNL     1      39.864 -10.811   5.077  1.00  0.00     0.170 HD
HETATM   33  H   UNL     1      40.733 -11.180   3.225  1.00  0.00     0.164 HD
BRANCH  30  34
HETATM   34  C   UNL     1      40.618 -11.049   6.981  1.00  0.00     0.036 A 
HETATM   35  C   UNL     1      41.673 -10.413   7.636  1.00  0.00     0.032 A 
HETATM   36  C   UNL     1      41.605 -10.162   9.011  1.00  0.00     0.039 A 
HETATM   37  C   UNL     1      40.479 -10.527   9.748  1.00  0.00     0.068 A 
HETATM   38  C   UNL     1      39.434 -11.185   9.107  1.00  0.00     0.039 A 
HETATM   39  C   UNL     1      39.505 -11.446   7.732  1.00  0.00     0.032 A 
BRANCH  37  40
HETATM   40  O   UNL     1      40.532 -10.200  11.073  1.00  0.00    -0.356 OA
HETATM   41  C   UNL     1      41.217 -11.109  11.925  1.00  0.00     0.210 C 
ENDBRANCH  37  40
ENDBRANCH  30  34
ENDBRANCH  27  28
ENDBRANCH   4  27
TORSDOF 9
ENDMDL
MODEL 3
REMARK VINA RESULT:      -8.3      2.567      5.136
REMARK  9 active torsions:
REMARK  status: ('A' for Active; 'I' for Inactive)
REMARK    1  A    between atoms: C_2  and  C_3 
REMARK    2  A    between atoms: C_3  and  C_4 
REMARK    3  A    between atoms: C_3  and  C_38 
REMARK    4  A    between atoms: C_6  and  C_7 
REMARK    5  A    between atoms: C_14  and  C_15 
REMARK    6  A    between atoms: C_18  and  C_19 
REMARK    7  A    between atoms: C_19  and  N_20 
REMARK       I    between atoms: N_20  and  C_21 
REMARK       I    between atoms: C_21  and  N_22 
REMARK    8  A    between atoms: N_22  and  C_23 
REMARK    9  A    between atoms: C_26  and  O_27 
ROOT
HETATM    1  C   UNL     1      40.169 -14.243   4.217  1.00  0.00     0.068 C 
HETATM    2  C   UNL     1      40.219 -12.692   4.120  1.00  0.00     0.001 C 
HETATM    3  C   UNL     1      41.601 -12.180   4.593  1.00  0.00     0.040 C 
HETATM    4  C   UNL     1      41.835 -12.530   6.075  1.00  0.00     0.206 C 
HETATM    5  N   UNL     1      40.665 -13.409   6.505  1.00  0.00    -0.065 N 
HETATM    6  H   UNL     1      40.874 -13.741   7.472  1.00  0.00     0.280 HD
HETATM    7  C   UNL     1      40.510 -14.665   5.660  1.00  0.00     0.246 C 
HETATM    8  C   UNL     1      39.148 -12.122   5.078  1.00  0.00     0.033 C 
HETATM    9  C   UNL     1      39.386 -12.614   6.510  1.00  0.00     0.236 C 
ENDROOT
BRANCH   1  10
HETATM   10  C   UNL     1      41.043 -14.907   3.174  1.00  0.00     0.045 A 
HETATM   11  N   UNL     1      40.883 -14.536   1.888  1.00  0.00    -0.233 NA
HETATM   12  C   UNL     1      41.616 -15.195   0.964  1.00  0.00     0.160 A 
HETATM   13  N   UNL     1      42.445 -16.213   1.243  1.00  0.00    -0.233 NA
HETATM   14  C   UNL     1      42.593 -16.569   2.534  1.00  0.00     0.043 A 
HETATM   15  C   UNL     1      41.910 -15.920   3.545  1.00  0.00     0.055 A 
BRANCH  12  16
HETATM   16  C   UNL     1      41.490 -14.777  -0.439  1.00  0.00     0.014 A 
HETATM   17  C   UNL     1      41.084 -15.679  -1.434  1.00  0.00     0.034 A 
HETATM   18  C   UNL     1      40.972 -15.242  -2.744  1.00  0.00     0.117 A 
HETATM   19  N   UNL     1      41.237 -13.979  -3.134  1.00  0.00    -0.273 NA
HETATM   20  C   UNL     1      41.649 -13.122  -2.181  1.00  0.00     0.117 A 
HETATM   21  C   UNL     1      41.783 -13.466  -0.845  1.00  0.00     0.034 A 
ENDBRANCH  12  16
BRANCH  14  22
HETATM   22  C   UNL     1      43.552 -17.716   2.811  1.00  0.00     0.037 C 
BRANCH  22  23
HETATM   23  C   UNL     1      43.730 -18.666   1.605  1.00  0.00     0.006 C 
HETATM   24  C   UNL     1      43.490 -20.131   1.948  1.00  0.00     0.006 C 
ENDBRANCH  22  23
BRANCH  22  25
HETATM   25  C   UNL     1      43.121 -18.518   4.057  1.00  0.00     0.006 C 
HETATM   26  C   UNL     1      44.126 -18.443   5.200  1.00  0.00     0.006 C 
ENDBRANCH  22  25
ENDBRANCH  14  22
ENDBRANCH   1  10
BRANCH   4  27
HETATM   27  C   UNL     1      43.227 -13.160   6.349  1.00  0.00     0.157 C 
BRANCH  27  28
HETATM   28  N   UNL     1      43.737 -13.032   7.716  1.00  0.00    -0.341 N 
HETATM   29  C   UNL     1      43.479 -11.934   8.504  1.00  0.00     0.320 C 
HETATM   30  N   UNL     1      43.788 -12.150   9.821  1.00  0.00    -0.309 N 
HETATM   31  O   UNL     1      43.030 -10.902   8.014  1.00  0.00    -0.247 OA
HETATM   32  H   UNL     1      44.254 -13.017  10.051  1.00  0.00     0.170 HD
HETATM   33  H   UNL     1      43.815 -13.904   8.223  1.00  0.00     0.164 HD
BRANCH  30  34
HETATM   34  C   UNL     1      43.525 -11.291  10.911  1.00  0.00     0.036 A 
HETATM   35  C   UNL     1      43.603  -9.899  10.843  1.00  0.00     0.032 A 
HETATM   36  C   UNL     1      43.278  -9.117  11.956  1.00  0.00     0.039 A 
HETATM   37  C   UNL     1      42.856  -9.708  13.146  1.00  0.00     0.068 A 
HETATM   38  C   UNL     1      42.800 -11.097  13.229  1.00  0.00     0.039 A 
HETATM   39  C   UNL     1      43.135 -11.882  12.118  1.00  0.00     0.032 A 
BRANCH  37  40
HETATM   40  O   UNL     1      42.545  -8.829  14.144  1.00  0.00    -0.356 OA
HETATM   41  C   UNL     1      41.495  -9.214  15.024  1.00  0.00     0.210 C 
ENDBRANCH  37  40
ENDBRANCH  30  34
ENDBRANCH  27  28
ENDBRANCH   4  27
TORSDOF 9
ENDMDL
MODEL 4
REMARK VINA RESULT:      -8.3      2.865      8.227
REMARK  9 active torsions:
REMARK  status: ('A' for Active; 'I' for Inactive)
REMARK    1  A    between atoms: C_2  and  C_3 
REMARK    2  A    between atoms: C_3  and  C_4 
REMARK    3  A    between atoms: C_3  and  C_38 
REMARK    4  A    between atoms: C_6  and  C_7 
REMARK    5  A    between atoms: C_14  and  C_15 
REMARK    6  A    between atoms: C_18  and  C_19 
REMARK    7  A    between atoms: C_19  and  N_20 
REMARK       I    between atoms: N_20  and  C_21 
REMARK       I    between atoms: C_21  and  N_22 
REMARK    8  A    between atoms: N_22  and  C_23 
REMARK    9  A    between atoms: C_26  and  O_27 
ROOT
HETATM    1  C   UNL     1      39.158 -12.910   2.151  1.00  0.00     0.068 C 
HETATM    2  C   UNL     1      38.478 -14.264   1.800  1.00  0.00     0.001 C 
HETATM    3  C   UNL     1      39.534 -15.263   1.270  1.00  0.00     0.040 C 
HETATM    4  C   UNL     1      40.167 -14.745  -0.036  1.00  0.00     0.206 C 
HETATM    5  N   UNL     1      39.626 -13.335  -0.253  1.00  0.00    -0.065 N 
HETATM    6  H   UNL     1      40.135 -12.937  -1.073  1.00  0.00     0.280 HD
HETATM    7  C   UNL     1      39.910 -12.393   0.908  1.00  0.00     0.246 C 
HETATM    8  C   UNL     1      37.459 -14.004   0.668  1.00  0.00     0.033 C 
HETATM    9  C   UNL     1      38.150 -13.379  -0.549  1.00  0.00     0.236 C 
ENDROOT
BRANCH   1  10
HETATM   10  C   UNL     1      40.033 -13.015   3.382  1.00  0.00     0.045 A 
HETATM   11  N   UNL     1      40.245 -11.894   4.101  1.00  0.00    -0.233 NA
HETATM   12  C   UNL     1      41.091 -11.991   5.150  1.00  0.00     0.160 A 
HETATM   13  N   UNL     1      41.758 -13.108   5.483  1.00  0.00    -0.233 NA
HETATM   14  C   UNL     1      41.532 -14.218   4.753  1.00  0.00     0.043 A 
HETATM   15  C   UNL     1      40.652 -14.214   3.688  1.00  0.00     0.055 A 
BRANCH  12  16
HETATM   16  C   UNL     1      41.304 -10.793   5.975  1.00  0.00     0.014 A 
HETATM   17  C   UNL     1      41.503 -10.889   7.360  1.00  0.00     0.034 A 
HETATM   18  C   UNL     1      41.706  -9.735   8.099  1.00  0.00     0.117 A 
HETATM   19  N   UNL     1      41.721  -8.499   7.563  1.00  0.00    -0.273 NA
HETATM   20  C   UNL     1      41.504  -8.408   6.237  1.00  0.00     0.117 A 
HETATM   21  C   UNL     1      41.301  -9.507   5.416  1.00  0.00     0.034 A 
ENDBRANCH  12  16
BRANCH  14  22
HETATM   22  C   UNL     1      42.293 -15.465   5.170  1.00  0.00     0.037 C 
BRANCH  22  23
HETATM   23  C   UNL     1      41.468 -16.410   6.074  1.00  0.00     0.006 C 
HETATM   24  C   UNL     1      40.968 -17.655   5.353  1.00  0.00     0.006 C 
ENDBRANCH  22  23
BRANCH  22  25
HETATM   25  C   UNL     1      43.626 -15.104   5.861  1.00  0.00     0.006 C 
HETATM   26  C   UNL     1      43.938 -15.983   7.066  1.00  0.00     0.006 C 
ENDBRANCH  22  25
ENDBRANCH  14  22
ENDBRANCH   1  10
BRANCH   4  27
HETATM   27  C   UNL     1      41.717 -14.830  -0.048  1.00  0.00     0.157 C 
BRANCH  27  28
HETATM   28  N   UNL     1      42.291 -16.175   0.049  1.00  0.00    -0.341 N 
HETATM   29  C   UNL     1      42.954 -16.619   1.170  1.00  0.00     0.320 C 
HETATM   30  N   UNL     1      43.139 -17.976   1.165  1.00  0.00    -0.309 N 
HETATM   31  O   UNL     1      43.321 -15.830   2.035  1.00  0.00    -0.247 OA
HETATM   32  H   UNL     1      42.877 -18.477   0.327  1.00  0.00     0.170 HD
HETATM   33  H   UNL     1      41.777 -16.891  -0.447  1.00  0.00     0.164 HD
BRANCH  30  34
HETATM   34  C   UNL     1      43.659 -18.769   2.212  1.00  0.00     0.036 A 
HETATM   35  C   UNL     1      43.945 -18.285   3.489  1.00  0.00     0.032 A 
HETATM   36  C   UNL     1      44.411 -19.149   4.486  1.00  0.00     0.039 A 
HETATM   37  C   UNL     1      44.585 -20.508   4.229  1.00  0.00     0.068 A 
HETATM   38  C   UNL     1      44.327 -20.994   2.951  1.00  0.00     0.039 A 
HETATM   39  C   UNL     1      43.869 -20.128   1.948  1.00  0.00     0.032 A 
BRANCH  37  40
HETATM   40  O   UNL     1      45.020 -21.242   5.296  1.00  0.00    -0.356 OA
HETATM   41  C   UNL     1      45.096 -22.650   5.109  1.00  0.00     0.210 C 
ENDBRANCH  37  40
ENDBRANCH  30  34
ENDBRANCH  27  28
ENDBRANCH   4  27
TORSDOF 9
ENDMDL
MODEL 5
REMARK VINA RESULT:      -8.3      2.987      7.986
REMARK  9 active torsions:
REMARK  status: ('A' for Active; 'I' for Inactive)
REMARK    1  A    between atoms: C_2  and  C_3 
REMARK    2  A    between atoms: C_3  and  C_4 
REMARK    3  A    between atoms: C_3  and  C_38 
REMARK    4  A    between atoms: C_6  and  C_7 
REMARK    5  A    between atoms: C_14  and  C_15 
REMARK    6  A    between atoms: C_18  and  C_19 
REMARK    7  A    between atoms: C_19  and  N_20 
REMARK       I    between atoms: N_20  and  C_21 
REMARK       I    between atoms: C_21  and  N_22 
REMARK    8  A    between atoms: N_22  and  C_23 
REMARK    9  A    between atoms: C_26  and  O_27 
ROOT
HETATM    1  C   UNL     1      40.008 -10.762   3.826  1.00  0.00     0.068 C 
HETATM    2  C   UNL     1      41.170 -10.408   4.797  1.00  0.00     0.001 C 
HETATM    3  C   UNL     1      41.754 -11.702   5.413  1.00  0.00     0.040 C 
HETATM    4  C   UNL     1      40.692 -12.433   6.257  1.00  0.00     0.206 C 
HETATM    5  N   UNL     1      39.379 -11.684   6.047  1.00  0.00    -0.065 N 
HETATM    6  H   UNL     1      38.634 -12.238   6.524  1.00  0.00     0.280 HD
HETATM    7  C   UNL     1      38.959 -11.598   4.587  1.00  0.00     0.246 C 
HETATM    8  C   UNL     1      40.585  -9.557   5.947  1.00  0.00     0.033 C 
HETATM    9  C   UNL     1      39.456 -10.310   6.657  1.00  0.00     0.236 C 
ENDROOT
BRANCH   1  10
HETATM   10  C   UNL     1      40.506 -11.429   2.562  1.00  0.00     0.045 A 
HETATM   11  N   UNL     1      40.491 -12.777   2.512  1.00  0.00    -0.233 NA
HETATM   12  C   UNL     1      41.012 -13.354   1.407  1.00  0.00     0.160 A 
HETATM   13  N   UNL     1      41.579 -12.678   0.396  1.00  0.00    -0.233 NA
HETATM   14  C   UNL     1      41.584 -11.332   0.463  1.00  0.00     0.043 A 
HETATM   15  C   UNL     1      41.036 -10.661   1.540  1.00  0.00     0.055 A 
BRANCH  12  16
HETATM   16  C   UNL     1      40.965 -14.820   1.311  1.00  0.00     0.014 A 
HETATM   17  C   UNL     1      40.193 -15.584   2.199  1.00  0.00     0.034 A 
HETATM   18  C   UNL     1      40.173 -16.963   2.070  1.00  0.00     0.117 A 
HETATM   19  N   UNL     1      40.864 -17.634   1.128  1.00  0.00    -0.273 NA
HETATM   20  C   UNL     1      41.623 -16.900   0.292  1.00  0.00     0.117 A 
HETATM   21  C   UNL     1      41.700 -15.517   0.340  1.00  0.00     0.034 A 
ENDBRANCH  12  16
BRANCH  14  22
HETATM   22  C   UNL     1      42.221 -10.601  -0.708  1.00  0.00     0.037 C 
BRANCH  22  23
HETATM   23  C   UNL     1      43.072 -11.522  -1.611  1.00  0.00     0.006 C 
HETATM   24  C   UNL     1      42.419 -11.826  -2.954  1.00  0.00     0.006 C 
ENDBRANCH  22  23
BRANCH  22  25
HETATM   25  C   UNL     1      43.068  -9.403  -0.227  1.00  0.00     0.006 C 
HETATM   26  C   UNL     1      44.045  -8.895  -1.280  1.00  0.00     0.006 C 
ENDBRANCH  22  25
ENDBRANCH  14  22
ENDBRANCH   1  10
BRANCH   4  27
HETATM   27  C   UNL     1      40.602 -13.953   5.956  1.00  0.00     0.157 C 
BRANCH  27  28
HETATM   28  N   UNL     1      41.874 -14.677   5.898  1.00  0.00    -0.341 N 
HETATM   29  C   UNL     1      41.959 -16.000   5.530  1.00  0.00     0.320 C 
HETATM   30  N   UNL     1      43.244 -16.385   5.256  1.00  0.00    -0.309 N 
HETATM   31  O   UNL     1      40.954 -16.703   5.484  1.00  0.00    -0.247 OA
HETATM   32  H   UNL     1      43.979 -15.719   5.447  1.00  0.00     0.170 HD
HETATM   33  H   UNL     1      42.670 -14.114   5.629  1.00  0.00     0.164 HD
BRANCH  30  34
HETATM   34  C   UNL     1      43.668 -17.625   4.726  1.00  0.00     0.036 A 
HETATM   35  C   UNL     1      44.095 -18.701   5.504  1.00  0.00     0.032 A 
HETATM   36  C   UNL     1      44.451 -19.913   4.903  1.00  0.00     0.039 A 
HETATM   37  C   UNL     1      44.372 -20.074   3.520  1.00  0.00     0.068 A 
HETATM   38  C   UNL     1      43.971 -18.997   2.735  1.00  0.00     0.039 A 
HETATM   39  C   UNL     1      43.624 -17.779   3.335  1.00  0.00     0.032 A 
BRANCH  37  40
HETATM   40  O   UNL     1      44.723 -21.313   3.067  1.00  0.00    -0.356 OA
HETATM   41  C   UNL     1      44.180 -21.708   1.813  1.00  0.00     0.210 C 
ENDBRANCH  37  40
ENDBRANCH  30  34
ENDBRANCH  27  28
ENDBRANCH   4  27
TORSDOF 9
ENDMDL
MODEL 6
REMARK VINA RESULT:      -8.0      4.249      9.309
REMARK  9 active torsions:
REMARK  status: ('A' for Active; 'I' for Inactive)
REMARK    1  A    between atoms: C_2  and  C_3 
REMARK    2  A    between atoms: C_3  and  C_4 
REMARK    3  A    between atoms: C_3  and  C_38 
REMARK    4  A    between atoms: C_6  and  C_7 
REMARK    5  A    between atoms: C_14  and  C_15 
REMARK    6  A    between atoms: C_18  and  C_19 
REMARK    7  A    between atoms: C_19  and  N_20 
REMARK       I    between atoms: N_20  and  C_21 
REMARK       I    between atoms: C_21  and  N_22 
REMARK    8  A    between atoms: N_22  and  C_23 
REMARK    9  A    between atoms: C_26  and  O_27 
ROOT
HETATM    1  C   UNL     1      38.997 -10.872   1.247  1.00  0.00     0.068 C 
HETATM    2  C   UNL     1      40.174 -10.495   2.190  1.00  0.00     0.001 C 
HETATM    3  C   UNL     1      41.080 -11.728   2.420  1.00  0.00     0.040 C 
HETATM    4  C   UNL     1      40.301 -12.853   3.128  1.00  0.00     0.206 C 
HETATM    5  N   UNL     1      38.848 -12.394   3.206  1.00  0.00    -0.065 N 
HETATM    6  H   UNL     1      38.296 -13.196   3.581  1.00  0.00     0.280 HD
HETATM    7  C   UNL     1      38.242 -12.074   1.847  1.00  0.00     0.246 C 
HETATM    8  C   UNL     1      39.576 -10.083   3.554  1.00  0.00     0.033 C 
HETATM    9  C   UNL     1      38.719 -11.214   4.133  1.00  0.00     0.236 C 
ENDROOT
BRANCH   1  10
HETATM   10  C   UNL     1      39.459 -11.102  -0.176  1.00  0.00     0.045 A 
HETATM   11  N   UNL     1      39.071 -12.238  -0.790  1.00  0.00    -0.233 NA
HETATM   12  C   UNL     1      39.558 -12.462  -2.030  1.00  0.00     0.160 A 
HETATM   13  N   UNL     1      40.430 -11.657  -2.657  1.00  0.00    -0.233 NA
HETATM   14  C   UNL     1      40.806 -10.525  -2.029  1.00  0.00     0.043 A 
HETATM   15  C   UNL     1      40.324 -10.201  -0.774  1.00  0.00     0.055 A 
BRANCH  12  16
HETATM   16  C   UNL     1      39.113 -13.673  -2.734  1.00  0.00     0.014 A 
HETATM   17  C   UNL     1      37.751 -13.986  -2.855  1.00  0.00     0.034 A 
HETATM   18  C   UNL     1      37.374 -15.134  -3.533  1.00  0.00     0.117 A 
HETATM   19  N   UNL     1      38.250 -15.990  -4.094  1.00  0.00    -0.273 NA
HETATM   20  C   UNL     1      39.558 -15.700  -3.955  1.00  0.00     0.117 A 
HETATM   21  C   UNL     1      40.028 -14.571  -3.302  1.00  0.00     0.034 A 
ENDBRANCH  12  16
BRANCH  14  22
HETATM   22  C   UNL     1      41.781  -9.632  -2.777  1.00  0.00     0.037 C 
BRANCH  22  23
HETATM   23  C   UNL     1      42.612 -10.390  -3.837  1.00  0.00     0.006 C 
HETATM   24  C   UNL     1      42.306  -9.961  -5.267  1.00  0.00     0.006 C 
ENDBRANCH  22  23
BRANCH  22  25
HETATM   25  C   UNL     1      42.720  -8.888  -1.803  1.00  0.00     0.006 C 
HETATM   26  C   UNL     1      43.928  -9.714  -1.380  1.00  0.00     0.006 C 
ENDBRANCH  22  25
ENDBRANCH  14  22
ENDBRANCH   1  10
BRANCH   4  27
HETATM   27  C   UNL     1      40.484 -14.244   2.464  1.00  0.00     0.157 C 
BRANCH  27  28
HETATM   28  N   UNL     1      41.790 -14.882   2.650  1.00  0.00    -0.341 N 
HETATM   29  C   UNL     1      41.927 -16.172   3.109  1.00  0.00     0.320 C 
HETATM   30  N   UNL     1      43.193 -16.661   2.922  1.00  0.00    -0.309 N 
HETATM   31  O   UNL     1      40.981 -16.756   3.626  1.00  0.00    -0.247 OA
HETATM   32  H   UNL     1      43.894 -16.018   2.581  1.00  0.00     0.170 HD
HETATM   33  H   UNL     1      42.500 -14.592   1.990  1.00  0.00     0.164 HD
BRANCH  30  34
HETATM   34  C   UNL     1      43.638 -17.982   3.153  1.00  0.00     0.036 A 
HETATM   35  C   UNL     1      44.054 -18.460   4.396  1.00  0.00     0.032 A 
HETATM   36  C   UNL     1      44.434 -19.797   4.550  1.00  0.00     0.039 A 
HETATM   37  C   UNL     1      44.389 -20.681   3.473  1.00  0.00     0.068 A 
HETATM   38  C   UNL     1      43.999 -20.207   2.224  1.00  0.00     0.039 A 
HETATM   39  C   UNL     1      43.628 -18.864   2.065  1.00  0.00     0.032 A 
BRANCH  37  40
HETATM   40  O   UNL     1      44.760 -21.962   3.767  1.00  0.00    -0.356 OA
HETATM   41  C   UNL     1      45.076 -22.236   5.126  1.00  0.00     0.210 C 
ENDBRANCH  37  40
ENDBRANCH  30  34
ENDBRANCH  27  28
ENDBRANCH   4  27
TORSDOF 9
ENDMDL
MODEL 7
REMARK VINA RESULT:      -7.9      2.514      7.559
REMARK  9 active torsions:
REMARK  status: ('A' for Active; 'I' for Inactive)
REMARK    1  A    between atoms: C_2  and  C_3 
REMARK    2  A    between atoms: C_3  and  C_4 
REMARK    3  A    between atoms: C_3  and  C_38 
REMARK    4  A    between atoms: C_6  and  C_7 
REMARK    5  A    between atoms: C_14  and  C_15 
REMARK    6  A    between atoms: C_18  and  C_19 
REMARK    7  A    between atoms: C_19  and  N_20 
REMARK       I    between atoms: N_20  and  C_21 
REMARK       I    between atoms: C_21  and  N_22 
REMARK    8  A    between atoms: N_22  and  C_23 
REMARK    9  A    between atoms: C_26  and  O_27 
ROOT
HETATM    1  C   UNL     1      41.174 -12.001   2.034  1.00  0.00     0.068 C 
HETATM    2  C   UNL     1      39.723 -11.653   1.598  1.00  0.00     0.001 C 
HETATM    3  C   UNL     1      38.798 -12.873   1.824  1.00  0.00     0.040 C 
HETATM    4  C   UNL     1      39.241 -14.062   0.949  1.00  0.00     0.206 C 
HETATM    5  N   UNL     1      40.549 -13.649   0.281  1.00  0.00    -0.065 N 
HETATM    6  H   UNL     1      40.912 -14.488  -0.222  1.00  0.00     0.280 HD
HETATM    7  C   UNL     1      41.636 -13.259   1.272  1.00  0.00     0.246 C 
HETATM    8  C   UNL     1      39.743 -11.346   0.083  1.00  0.00     0.033 C 
HETATM    9  C   UNL     1      40.307 -12.535  -0.702  1.00  0.00     0.236 C 
ENDROOT
BRANCH   1  10
HETATM   10  C   UNL     1      41.302 -12.127   3.537  1.00  0.00     0.045 A 
HETATM   11  N   UNL     1      41.813 -13.272   4.032  1.00  0.00    -0.233 NA
HETATM   12  C   UNL     1      41.846 -13.396   5.377  1.00  0.00     0.160 A 
HETATM   13  N   UNL     1      41.363 -12.482   6.233  1.00  0.00    -0.233 NA
HETATM   14  C   UNL     1      40.857 -11.344   5.720  1.00  0.00     0.043 A 
HETATM   15  C   UNL     1      40.822 -11.120   4.356  1.00  0.00     0.055 A 
BRANCH  12  16
HETATM   16  C   UNL     1      42.440 -14.618   5.940  1.00  0.00     0.014 A 
HETATM   17  C   UNL     1      43.828 -14.747   6.096  1.00  0.00     0.034 A 
HETATM   18  C   UNL     1      44.346 -15.913   6.636  1.00  0.00     0.117 A 
HETATM   19  N   UNL     1      43.586 -16.955   7.028  1.00  0.00    -0.273 NA
HETATM   20  C   UNL     1      42.256 -16.837   6.854  1.00  0.00     0.117 A 
HETATM   21  C   UNL     1      41.648 -15.707   6.330  1.00  0.00     0.034 A 
ENDBRANCH  12  16
BRANCH  14  22
HETATM   22  C   UNL     1      40.334 -10.327   6.721  1.00  0.00     0.037 C 
BRANCH  22  23
HETATM   23  C   UNL     1      41.442  -9.422   7.306  1.00  0.00     0.006 C 
HETATM   24  C   UNL     1      41.428  -8.006   6.743  1.00  0.00     0.006 C 
ENDBRANCH  22  23
BRANCH  22  25
HETATM   25  C   UNL     1      39.556 -11.015   7.863  1.00  0.00     0.006 C 
HETATM   26  C   UNL     1      40.121 -10.712   9.246  1.00  0.00     0.006 C 
ENDBRANCH  22  25
ENDBRANCH  14  22
ENDBRANCH   1  10
BRANCH   4  27
HETATM   27  C   UNL     1      39.330 -15.402   1.727  1.00  0.00     0.157 C 
BRANCH  27  28
HETATM   28  N   UNL     1      40.415 -16.306   1.336  1.00  0.00    -0.341 N 
HETATM   29  C   UNL     1      41.308 -16.830   2.242  1.00  0.00     0.320 C 
HETATM   30  N   UNL     1      42.036 -17.866   1.721  1.00  0.00    -0.309 N 
HETATM   31  O   UNL     1      41.397 -16.364   3.374  1.00  0.00    -0.247 OA
HETATM   32  H   UNL     1      41.925 -18.061   0.736  1.00  0.00     0.170 HD
HETATM   33  H   UNL     1      40.198 -16.916   0.558  1.00  0.00     0.164 HD
BRANCH  30  34
HETATM   34  C   UNL     1      42.935 -18.708   2.412  1.00  0.00     0.036 A 
HETATM   35  C   UNL     1      43.578 -18.356   3.600  1.00  0.00     0.032 A 
HETATM   36  C   UNL     1      44.417 -19.268   4.249  1.00  0.00     0.039 A 
HETATM   37  C   UNL     1      44.615 -20.548   3.733  1.00  0.00     0.068 A 
HETATM   38  C   UNL     1      43.998 -20.898   2.535  1.00  0.00     0.039 A 
HETATM   39  C   UNL     1      43.166 -19.982   1.878  1.00  0.00     0.032 A 
BRANCH  37  40
HETATM   40  O   UNL     1      45.436 -21.346   4.478  1.00  0.00    -0.356 OA
HETATM   41  C   UNL     1      44.879 -22.569   4.945  1.00  0.00     0.210 C 
ENDBRANCH  37  40
ENDBRANCH  30  34
ENDBRANCH  27  28
ENDBRANCH   4  27
TORSDOF 9
ENDMDL
MODEL 8
REMARK VINA RESULT:      -7.9      3.965      8.772
REMARK  9 active torsions:
REMARK  status: ('A' for Active; 'I' for Inactive)
REMARK    1  A    between atoms: C_2  and  C_3 
REMARK    2  A    between atoms: C_3  and  C_4 
REMARK    3  A    between atoms: C_3  and  C_38 
REMARK    4  A    between atoms: C_6  and  C_7 
REMARK    5  A    between atoms: C_14  and  C_15 
REMARK    6  A    between atoms: C_18  and  C_19 
REMARK    7  A    between atoms: C_19  and  N_20 
REMARK       I    between atoms: N_20  and  C_21 
REMARK       I    between atoms: C_21  and  N_22 
REMARK    8  A    between atoms: N_22  and  C_23 
REMARK    9  A    between atoms: C_26  and  O_27 
ROOT
HETATM    1  C   UNL     1      41.002 -11.849  -0.831  1.00  0.00     0.068 C 
HETATM    2  C   UNL     1      40.271 -12.179  -2.163  1.00  0.00     0.001 C 
HETATM    3  C   UNL     1      39.858 -13.670  -2.182  1.00  0.00     0.040 C 
HETATM    4  C   UNL     1      41.099 -14.581  -2.131  1.00  0.00     0.206 C 
HETATM    5  N   UNL     1      42.302 -13.667  -1.919  1.00  0.00    -0.065 N 
HETATM    6  H   UNL     1      43.130 -14.285  -1.771  1.00  0.00     0.280 HD
HETATM    7  C   UNL     1      42.196 -12.811  -0.665  1.00  0.00     0.246 C 
HETATM    8  C   UNL     1      41.268 -11.948  -3.321  1.00  0.00     0.033 C 
HETATM    9  C   UNL     1      42.525 -12.803  -3.132  1.00  0.00     0.236 C 
ENDROOT
BRANCH   1  10
HETATM   10  C   UNL     1      40.058 -11.854   0.352  1.00  0.00     0.045 A 
HETATM   11  N   UNL     1      40.391 -12.604   1.422  1.00  0.00    -0.233 NA
HETATM   12  C   UNL     1      39.499 -12.657   2.435  1.00  0.00     0.160 A 
HETATM   13  N   UNL     1      38.299 -12.056   2.418  1.00  0.00    -0.233 NA
HETATM   14  C   UNL     1      37.984 -11.309   1.341  1.00  0.00     0.043 A 
HETATM   15  C   UNL     1      38.857 -11.170   0.278  1.00  0.00     0.055 A 
BRANCH  12  16
HETATM   16  C   UNL     1      39.861 -13.433   3.630  1.00  0.00     0.014 A 
HETATM   17  C   UNL     1      39.702 -12.903   4.918  1.00  0.00     0.034 A 
HETATM   18  C   UNL     1      40.049 -13.671   6.018  1.00  0.00     0.117 A 
HETATM   19  N   UNL     1      40.545 -14.921   5.928  1.00  0.00    -0.273 NA
HETATM   20  C   UNL     1      40.719 -15.418   4.688  1.00  0.00     0.117 A 
HETATM   21  C   UNL     1      40.392 -14.728   3.532  1.00  0.00     0.034 A 
ENDBRANCH  12  16
BRANCH  14  22
HETATM   22  C   UNL     1      36.624 -10.631   1.366  1.00  0.00     0.037 C 
BRANCH  22  23
HETATM   23  C   UNL     1      35.596 -11.293   0.421  1.00  0.00     0.006 C 
HETATM   24  C   UNL     1      34.186 -10.737   0.573  1.00  0.00     0.006 C 
ENDBRANCH  22  23
BRANCH  22  25
HETATM   25  C   UNL     1      36.742  -9.126   1.046  1.00  0.00     0.006 C 
HETATM   26  C   UNL     1      37.127  -8.281   2.254  1.00  0.00     0.006 C 
ENDBRANCH  22  25
ENDBRANCH  14  22
ENDBRANCH   1  10
BRANCH   4  27
HETATM   27  C   UNL     1      40.986 -15.723  -1.085  1.00  0.00     0.157 C 
BRANCH  27  28
HETATM   28  N   UNL     1      42.078 -15.819  -0.114  1.00  0.00    -0.341 N 
HETATM   29  C   UNL     1      42.086 -16.746   0.904  1.00  0.00     0.320 C 
HETATM   30  N   UNL     1      43.315 -16.860   1.497  1.00  0.00    -0.309 N 
HETATM   31  O   UNL     1      41.066 -17.360   1.200  1.00  0.00    -0.247 OA
HETATM   32  H   UNL     1      44.030 -16.205   1.213  1.00  0.00     0.170 HD
HETATM   33  H   UNL     1      42.992 -15.589  -0.480  1.00  0.00     0.164 HD
BRANCH  30  34
HETATM   34  C   UNL     1      43.705 -17.803   2.474  1.00  0.00     0.036 A 
HETATM   35  C   UNL     1      43.706 -17.551   3.846  1.00  0.00     0.032 A 
HETATM   36  C   UNL     1      44.060 -18.558   4.751  1.00  0.00     0.039 A 
HETATM   37  C   UNL     1      44.403 -19.832   4.304  1.00  0.00     0.068 A 
HETATM   38  C   UNL     1      44.430 -20.085   2.935  1.00  0.00     0.039 A 
HETATM   39  C   UNL     1      44.085 -19.074   2.026  1.00  0.00     0.032 A 
BRANCH  37  40
HETATM   40  O   UNL     1      44.701 -20.726   5.292  1.00  0.00    -0.356 OA
HETATM   41  C   UNL     1      44.896 -22.077   4.889  1.00  0.00     0.210 C 
ENDBRANCH  37  40
ENDBRANCH  30  34
ENDBRANCH  27  28
ENDBRANCH   4  27
TORSDOF 9
ENDMDL
MODEL 9
REMARK VINA RESULT:      -7.7      3.805      9.164
REMARK  9 active torsions:
REMARK  status: ('A' for Active; 'I' for Inactive)
REMARK    1  A    between atoms: C_2  and  C_3 
REMARK    2  A    between atoms: C_3  and  C_4 
REMARK    3  A    between atoms: C_3  and  C_38 
REMARK    4  A    between atoms: C_6  and  C_7 
REMARK    5  A    between atoms: C_14  and  C_15 
REMARK    6  A    between atoms: C_18  and  C_19 
REMARK    7  A    between atoms: C_19  and  N_20 
REMARK       I    between atoms: N_20  and  C_21 
REMARK       I    between atoms: C_21  and  N_22 
REMARK    8  A    between atoms: N_22  and  C_23 
REMARK    9  A    between atoms: C_26  and  O_27 
ROOT
HETATM    1  C   UNL     1      40.833 -11.784  -0.755  1.00  0.00     0.068 C 
HETATM    2  C   UNL     1      40.073 -12.057  -2.084  1.00  0.00     0.001 C 
HETATM    3  C   UNL     1      39.664 -13.547  -2.161  1.00  0.00     0.040 C 
HETATM    4  C   UNL     1      40.909 -14.454  -2.181  1.00  0.00     0.206 C 
HETATM    5  N   UNL     1      42.114 -13.545  -1.955  1.00  0.00    -0.065 N 
HETATM    6  H   UNL     1      42.947 -14.165  -1.855  1.00  0.00     0.280 HD
HETATM    7  C   UNL     1      42.034 -12.747  -0.662  1.00  0.00     0.246 C 
HETATM    8  C   UNL     1      41.041 -11.769  -3.253  1.00  0.00     0.033 C 
HETATM    9  C   UNL     1      42.306 -12.626  -3.132  1.00  0.00     0.236 C 
ENDROOT
BRANCH   1  10
HETATM   10  C   UNL     1      39.917 -11.847   0.448  1.00  0.00     0.045 A 
HETATM   11  N   UNL     1      38.685 -11.313   0.331  1.00  0.00    -0.233 NA
HETATM   12  C   UNL     1      37.911 -11.308   1.438  1.00  0.00     0.160 A 
HETATM   13  N   UNL     1      38.310 -11.753   2.641  1.00  0.00    -0.233 NA
HETATM   14  C   UNL     1      39.545 -12.284   2.739  1.00  0.00     0.043 A 
HETATM   15  C   UNL     1      40.385 -12.363   1.644  1.00  0.00     0.055 A 
BRANCH  12  16
HETATM   16  C   UNL     1      36.548 -10.771   1.322  1.00  0.00     0.014 A 
HETATM   17  C   UNL     1      35.632 -11.303   0.402  1.00  0.00     0.034 A 
HETATM   18  C   UNL     1      34.355 -10.771   0.330  1.00  0.00     0.117 A 
HETATM   19  N   UNL     1      33.927  -9.752   1.100  1.00  0.00    -0.273 NA
HETATM   20  C   UNL     1      34.816  -9.228   1.965  1.00  0.00     0.117 A 
HETATM   21  C   UNL     1      36.111  -9.699   2.114  1.00  0.00     0.034 A 
ENDBRANCH  12  16
BRANCH  14  22
HETATM   22  C   UNL     1      39.953 -12.790   4.112  1.00  0.00     0.037 C 
BRANCH  22  23
HETATM   23  C   UNL     1      39.962 -14.333   4.215  1.00  0.00     0.006 C 
HETATM   24  C   UNL     1      41.362 -14.925   4.319  1.00  0.00     0.006 C 
ENDBRANCH  22  23
BRANCH  22  25
HETATM   25  C   UNL     1      39.059 -12.192   5.219  1.00  0.00     0.006 C 
HETATM   26  C   UNL     1      39.510 -12.566   6.626  1.00  0.00     0.006 C 
ENDBRANCH  22  25
ENDBRANCH  14  22
ENDBRANCH   1  10
BRANCH   4  27
HETATM   27  C   UNL     1      40.825 -15.642  -1.186  1.00  0.00     0.157 C 
BRANCH  27  28
HETATM   28  N   UNL     1      42.067 -15.996  -0.495  1.00  0.00    -0.341 N 
HETATM   29  C   UNL     1      42.084 -16.695   0.691  1.00  0.00     0.320 C 
HETATM   30  N   UNL     1      43.330 -17.173   0.999  1.00  0.00    -0.309 N 
HETATM   31  O   UNL     1      41.060 -16.828   1.354  1.00  0.00    -0.247 OA
HETATM   32  H   UNL     1      44.096 -16.886   0.406  1.00  0.00     0.170 HD
HETATM   33  H   UNL     1      42.852 -16.185  -1.105  1.00  0.00     0.164 HD
BRANCH  30  34
HETATM   34  C   UNL     1      43.672 -18.037   2.063  1.00  0.00     0.036 A 
HETATM   35  C   UNL     1      43.818 -17.623   3.387  1.00  0.00     0.032 A 
HETATM   36  C   UNL     1      44.110 -18.552   4.392  1.00  0.00     0.039 A 
HETATM   37  C   UNL     1      44.245 -19.907   4.094  1.00  0.00     0.068 A 
HETATM   38  C   UNL     1      44.126 -20.325   2.771  1.00  0.00     0.039 A 
HETATM   39  C   UNL     1      43.844 -19.394   1.762  1.00  0.00     0.032 A 
BRANCH  37  40
HETATM   40  O   UNL     1      44.504 -20.708   5.169  1.00  0.00    -0.356 OA
HETATM   41  C   UNL     1      43.997 -20.269   6.424  1.00  0.00     0.210 C 
ENDBRANCH  37  40
ENDBRANCH  30  34
ENDBRANCH  27  28
ENDBRANCH   4  27
TORSDOF 9
ENDMDL
MODEL 10
REMARK VINA RESULT:      -7.6      2.898      8.365
REMARK  9 active torsions:
REMARK  status: ('A' for Active; 'I' for Inactive)
REMARK    1  A    between atoms: C_2  and  C_3 
REMARK    2  A    between atoms: C_3  and  C_4 
REMARK    3  A    between atoms: C_3  and  C_38 
REMARK    4  A    between atoms: C_6  and  C_7 
REMARK    5  A    between atoms: C_14  and  C_15 
REMARK    6  A    between atoms: C_18  and  C_19 
REMARK    7  A    between atoms: C_19  and  N_20 
REMARK       I    between atoms: N_20  and  C_21 
REMARK       I    between atoms: C_21  and  N_22 
REMARK    8  A    between atoms: N_22  and  C_23 
REMARK    9  A    between atoms: C_26  and  O_27 
ROOT
HETATM    1  C   UNL     1      41.364 -11.744   1.704  1.00  0.00     0.068 C 
HETATM    2  C   UNL     1      39.954 -11.477   1.105  1.00  0.00     0.001 C 
HETATM    3  C   UNL     1      39.189 -12.812   0.944  1.00  0.00     0.040 C 
HETATM    4  C   UNL     1      39.914 -13.740  -0.050  1.00  0.00     0.206 C 
HETATM    5  N   UNL     1      41.232 -13.056  -0.403  1.00  0.00    -0.065 N 
HETATM    6  H   UNL     1      41.777 -13.728  -0.986  1.00  0.00     0.280 HD
HETATM    7  C   UNL     1      42.102 -12.760   0.810  1.00  0.00     0.246 C 
HETATM    8  C   UNL     1      40.144 -10.865  -0.302  1.00  0.00     0.033 C 
HETATM    9  C   UNL     1      40.976 -11.797  -1.189  1.00  0.00     0.236 C 
ENDROOT
BRANCH   1  10
HETATM   10  C   UNL     1      41.295 -12.161   3.158  1.00  0.00     0.045 A 
HETATM   11  N   UNL     1      40.682 -11.329   4.024  1.00  0.00    -0.233 NA
HETATM   12  C   UNL     1      40.700 -11.681   5.328  1.00  0.00     0.160 A 
HETATM   13  N   UNL     1      41.324 -12.767   5.809  1.00  0.00    -0.233 NA
HETATM   14  C   UNL     1      41.931 -13.587   4.929  1.00  0.00     0.043 A 
HETATM   15  C   UNL     1      41.926 -13.321   3.572  1.00  0.00     0.055 A 
BRANCH  12  16
HETATM   16  C   UNL     1      39.999 -10.812   6.284  1.00  0.00     0.014 A 
HETATM   17  C   UNL     1      39.487  -9.565   5.895  1.00  0.00     0.034 A 
HETATM   18  C   UNL     1      38.828  -8.780   6.827  1.00  0.00     0.117 A 
HETATM   19  N   UNL     1      38.644  -9.143   8.112  1.00  0.00    -0.273 NA
HETATM   20  C   UNL     1      39.157 -10.330   8.488  1.00  0.00     0.117 A 
HETATM   21  C   UNL     1      39.824 -11.185   7.625  1.00  0.00     0.034 A 
ENDBRANCH  12  16
BRANCH  14  22
HETATM   22  C   UNL     1      42.614 -14.814   5.510  1.00  0.00     0.037 C 
BRANCH  22  23
HETATM   23  C   UNL     1      41.633 -15.969   5.817  1.00  0.00     0.006 C 
HETATM   24  C   UNL     1      42.110 -16.888   6.935  1.00  0.00     0.006 C 
ENDBRANCH  22  23
BRANCH  22  25
HETATM   25  C   UNL     1      43.423 -14.458   6.775  1.00  0.00     0.006 C 
HETATM   26  C   UNL     1      44.931 -14.512   6.561  1.00  0.00     0.006 C 
ENDBRANCH  22  25
ENDBRANCH  14  22
ENDBRANCH   1  10
BRANCH   4  27
HETATM   27  C   UNL     1      40.082 -15.193   0.469  1.00  0.00     0.157 C 
BRANCH  27  28
HETATM   28  N   UNL     1      41.431 -15.577   0.891  1.00  0.00    -0.341 N 
HETATM   29  C   UNL     1      41.665 -16.566   1.819  1.00  0.00     0.320 C 
HETATM   30  N   UNL     1      42.975 -16.964   1.841  1.00  0.00    -0.309 N 
HETATM   31  O   UNL     1      40.755 -16.991   2.524  1.00  0.00    -0.247 OA
HETATM   32  H   UNL     1      43.629 -16.440   1.275  1.00  0.00     0.170 HD
HETATM   33  H   UNL     1      42.138 -15.501   0.171  1.00  0.00     0.164 HD
BRANCH  30  34
HETATM   34  C   UNL     1      43.527 -18.040   2.571  1.00  0.00     0.036 A 
HETATM   35  C   UNL     1      43.973 -17.941   3.889  1.00  0.00     0.032 A 
HETATM   36  C   UNL     1      44.461 -19.068   4.559  1.00  0.00     0.039 A 
HETATM   37  C   UNL     1      44.498 -20.312   3.930  1.00  0.00     0.068 A 
HETATM   38  C   UNL     1      44.079 -20.414   2.606  1.00  0.00     0.039 A 
HETATM   39  C   UNL     1      43.599 -19.283   1.931  1.00  0.00     0.032 A 
BRANCH  37  40
HETATM   40  O   UNL     1      44.972 -21.332   4.704  1.00  0.00    -0.356 OA
HETATM   41  C   UNL     1      44.723 -22.653   4.237  1.00  0.00     0.210 C 
ENDBRANCH  37  40
ENDBRANCH  30  34
ENDBRANCH  27  28
ENDBRANCH   4  27
TORSDOF 9
ENDMDL
