MODEL 1
REMARK VINA RESULT:      -7.9      0.000      0.000
REMARK  4 active torsions:
REMARK  status: ('A' for Active; 'I' for Inactive)
REMARK    1  A    between atoms: C_5  and  C_6 
REMARK    2  A    between atoms: C_12  and  C_13 
REMARK    3  A    between atoms: C_13  and  N_14 
REMARK       I    between atoms: N_14  and  C_15 
REMARK       I    between atoms: C_15  and  N_16 
REMARK    4  A    between atoms: N_16  and  C_17 
ROOT
HETATM    1  C   UNL     1      41.929 -15.570   3.510  1.00  0.00     0.168 C 
ENDROOT
BRANCH   1   2
HETATM    2  C   UNL     1      42.267 -14.559   4.549  1.00  0.00     0.023 A 
HETATM    3  C   UNL     1      42.089 -13.187   4.560  1.00  0.00     0.085 A 
HETATM    4  C   UNL     1      41.520 -12.195   3.624  1.00  0.00     0.079 C 
HETATM    5  O   UNL     1      42.581 -12.674   5.715  1.00  0.00    -0.217 OA
HETATM    6  N   UNL     1      43.103 -13.682   6.488  1.00  0.00    -0.127 NA
HETATM    7  C   UNL     1      42.913 -14.820   5.806  1.00  0.00     0.105 A 
BRANCH   7   8
HETATM    8  C   UNL     1      43.378 -16.092   6.354  1.00  0.00    -0.004 A 
HETATM    9  C   UNL     1      42.495 -16.985   6.973  1.00  0.00     0.014 A 
HETATM   10  C   UNL     1      42.958 -18.202   7.478  1.00  0.00     0.001 A 
HETATM   11  C   UNL     1      44.309 -18.532   7.379  1.00  0.00     0.000 A 
HETATM   12  C   UNL     1      45.200 -17.643   6.782  1.00  0.00     0.001 A 
HETATM   13  C   UNL     1      44.738 -16.427   6.273  1.00  0.00     0.014 A 
ENDBRANCH   7   8
ENDBRANCH   1   2
BRANCH   1  14
HETATM   14  N   UNL     1      43.064 -15.868   2.667  1.00  0.00    -0.338 N 
HETATM   15  C   UNL     1      43.665 -17.056   2.384  1.00  0.00     0.320 C 
HETATM   16  N   UNL     1      43.347 -18.103   3.201  1.00  0.00    -0.309 N 
HETATM   17  O   UNL     1      44.431 -17.079   1.427  1.00  0.00    -0.247 OA
HETATM   18  H   UNL     1      42.944 -17.869   4.093  1.00  0.00     0.170 HD
HETATM   19  H   UNL     1      43.328 -15.159   1.995  1.00  0.00     0.164 HD
BRANCH  16  20
HETATM   20  C   UNL     1      43.699 -19.460   3.031  1.00  0.00     0.036 A 
HETATM   21  C   UNL     1      43.317 -20.232   1.932  1.00  0.00     0.029 A 
HETATM   22  C   UNL     1      43.692 -21.577   1.844  1.00  0.00     0.002 A 
HETATM   23  C   UNL     1      44.444 -22.164   2.857  1.00  0.00     0.000 A 
HETATM   24  C   UNL     1      44.824 -21.407   3.961  1.00  0.00     0.002 A 
HETATM   25  C   UNL     1      44.453 -20.062   4.047  1.00  0.00     0.029 A 
ENDBRANCH  16  20
ENDBRANCH   1  14
TORSDOF 4
ENDMDL
MODEL 2
REMARK VINA RESULT:      -7.8      2.350      3.215
REMARK  4 active torsions:
REMARK  status: ('A' for Active; 'I' for Inactive)
REMARK    1  A    between atoms: C_5  and  C_6 
REMARK    2  A    between atoms: C_12  and  C_13 
REMARK    3  A    between atoms: C_13  and  N_14 
REMARK       I    between atoms: N_14  and  C_15 
REMARK       I    between atoms: C_15  and  N_16 
REMARK    4  A    between atoms: N_16  and  C_17 
ROOT
HETATM    1  C   UNL     1      41.358 -16.589   0.430  1.00  0.00     0.168 C 
ENDROOT
BRANCH   1   2
HETATM    2  C   UNL     1      40.654 -15.439   1.061  1.00  0.00     0.023 A 
HETATM    3  C   UNL     1      39.902 -14.425   0.495  1.00  0.00     0.085 A 
HETATM    4  C   UNL     1      39.486 -14.068  -0.877  1.00  0.00     0.079 C 
HETATM    5  O   UNL     1      39.479 -13.577   1.465  1.00  0.00    -0.217 OA
HETATM    6  N   UNL     1      39.946 -13.995   2.687  1.00  0.00    -0.127 NA
HETATM    7  C   UNL     1      40.644 -15.117   2.462  1.00  0.00     0.105 A 
BRANCH   7   8
HETATM    8  C   UNL     1      41.296 -15.811   3.569  1.00  0.00    -0.004 A 
HETATM    9  C   UNL     1      40.744 -16.972   4.127  1.00  0.00     0.014 A 
HETATM   10  C   UNL     1      41.390 -17.628   5.177  1.00  0.00     0.001 A 
HETATM   11  C   UNL     1      42.588 -17.126   5.685  1.00  0.00     0.000 A 
HETATM   12  C   UNL     1      43.136 -15.962   5.151  1.00  0.00     0.001 A 
HETATM   13  C   UNL     1      42.493 -15.305   4.099  1.00  0.00     0.014 A 
ENDBRANCH   7   8
ENDBRANCH   1   2
BRANCH   1  14
HETATM   14  N   UNL     1      42.779 -16.550   0.689  1.00  0.00    -0.338 N 
HETATM   15  C   UNL     1      43.595 -17.471   1.270  1.00  0.00     0.320 C 
HETATM   16  N   UNL     1      42.978 -18.474   1.962  1.00  0.00    -0.309 N 
HETATM   17  O   UNL     1      44.803 -17.319   1.121  1.00  0.00    -0.247 OA
HETATM   18  H   UNL     1      42.024 -18.308   2.235  1.00  0.00     0.170 HD
HETATM   19  H   UNL     1      43.315 -15.866   0.171  1.00  0.00     0.164 HD
BRANCH  16  20
HETATM   20  C   UNL     1      43.576 -19.629   2.512  1.00  0.00     0.036 A 
HETATM   21  C   UNL     1      44.220 -19.659   3.751  1.00  0.00     0.029 A 
HETATM   22  C   UNL     1      44.803 -20.841   4.221  1.00  0.00     0.002 A 
HETATM   23  C   UNL     1      44.755 -22.000   3.452  1.00  0.00     0.000 A 
HETATM   24  C   UNL     1      44.123 -21.981   2.212  1.00  0.00     0.002 A 
HETATM   25  C   UNL     1      43.536 -20.801   1.745  1.00  0.00     0.029 A 
ENDBRANCH  16  20
ENDBRANCH   1  14
TORSDOF 4
ENDMDL
MODEL 3
REMARK VINA RESULT:      -7.8      1.246      1.736
REMARK  4 active torsions:
REMARK  status: ('A' for Active; 'I' for Inactive)
REMARK    1  A    between atoms: C_5  and  C_6 
REMARK    2  A    between atoms: C_12  and  C_13 
REMARK    3  A    between atoms: C_13  and  N_14 
REMARK       I    between atoms: N_14  and  C_15 
REMARK       I    between atoms: C_15  and  N_16 
REMARK    4  A    between atoms: N_16  and  C_17 
ROOT
HETATM    1  C   UNL     1      40.928 -15.703   2.919  1.00  0.00     0.168 C 
ENDROOT
BRANCH   1   2
HETATM    2  C   UNL     1      40.711 -14.593   3.886  1.00  0.00     0.023 A 
HETATM    3  C   UNL     1      40.003 -13.412   3.755  1.00  0.00     0.085 A 
HETATM    4  C   UNL     1      39.199 -12.784   2.686  1.00  0.00     0.079 C 
HETATM    5  O   UNL     1      40.111 -12.688   4.897  1.00  0.00    -0.217 OA
HETATM    6  N   UNL     1      40.897 -13.358   5.801  1.00  0.00    -0.127 NA
HETATM    7  C   UNL     1      41.256 -14.507   5.213  1.00  0.00     0.105 A 
BRANCH   7   8
HETATM    8  C   UNL     1      42.123 -15.452   5.914  1.00  0.00    -0.004 A 
HETATM    9  C   UNL     1      41.605 -16.608   6.513  1.00  0.00     0.014 A 
HETATM   10  C   UNL     1      42.453 -17.505   7.167  1.00  0.00     0.001 A 
HETATM   11  C   UNL     1      43.822 -17.251   7.237  1.00  0.00     0.000 A 
HETATM   12  C   UNL     1      44.345 -16.095   6.662  1.00  0.00     0.001 A 
HETATM   13  C   UNL     1      43.500 -15.198   6.004  1.00  0.00     0.014 A 
ENDBRANCH   7   8
ENDBRANCH   1   2
BRANCH   1  14
HETATM   14  N   UNL     1      42.306 -15.774   2.489  1.00  0.00    -0.338 N 
HETATM   15  C   UNL     1      43.162 -16.831   2.442  1.00  0.00     0.320 C 
HETATM   16  N   UNL     1      42.789 -17.942   3.143  1.00  0.00    -0.309 N 
HETATM   17  O   UNL     1      44.184 -16.691   1.779  1.00  0.00    -0.247 OA
HETATM   18  H   UNL     1      42.089 -17.809   3.854  1.00  0.00     0.170 HD
HETATM   19  H   UNL     1      42.642 -15.010   1.917  1.00  0.00     0.164 HD
BRANCH  16  20
HETATM   20  C   UNL     1      43.407 -19.212   3.129  1.00  0.00     0.036 A 
HETATM   21  C   UNL     1      44.222 -19.694   4.155  1.00  0.00     0.029 A 
HETATM   22  C   UNL     1      44.812 -20.959   4.058  1.00  0.00     0.002 A 
HETATM   23  C   UNL     1      44.600 -21.748   2.932  1.00  0.00     0.000 A 
HETATM   24  C   UNL     1      43.796 -21.275   1.899  1.00  0.00     0.002 A 
HETATM   25  C   UNL     1      43.203 -20.013   1.997  1.00  0.00     0.029 A 
ENDBRANCH  16  20
ENDBRANCH   1  14
TORSDOF 4
ENDMDL
MODEL 4
REMARK VINA RESULT:      -7.7      1.973      6.051
REMARK  4 active torsions:
REMARK  status: ('A' for Active; 'I' for Inactive)
REMARK    1  A    between atoms: C_5  and  C_6 
REMARK    2  A    between atoms: C_12  and  C_13 
REMARK    3  A    between atoms: C_13  and  N_14 
REMARK       I    between atoms: N_14  and  C_15 
REMARK       I    between atoms: C_15  and  N_16 
REMARK    4  A    between atoms: N_16  and  C_17 
ROOT
HETATM    1  C   UNL     1      43.965 -18.632   2.539  1.00  0.00     0.168 C 
ENDROOT
BRANCH   1   2
HETATM    2  C   UNL     1      44.248 -19.792   3.427  1.00  0.00     0.023 A 
HETATM    3  C   UNL     1      44.506 -21.116   3.122  1.00  0.00     0.085 A 
HETATM    4  C   UNL     1      44.618 -21.903   1.877  1.00  0.00     0.079 C 
HETATM    5  O   UNL     1      44.677 -21.822   4.268  1.00  0.00    -0.217 OA
HETATM    6  N   UNL     1      44.526 -20.994   5.352  1.00  0.00    -0.127 NA
HETATM    7  C   UNL     1      44.279 -19.771   4.864  1.00  0.00     0.105 A 
BRANCH   7   8
HETATM    8  C   UNL     1      44.048 -18.649   5.772  1.00  0.00    -0.004 A 
HETATM    9  C   UNL     1      45.015 -17.652   5.957  1.00  0.00     0.014 A 
HETATM   10  C   UNL     1      44.769 -16.581   6.819  1.00  0.00     0.001 A 
HETATM   11  C   UNL     1      43.562 -16.503   7.512  1.00  0.00     0.000 A 
HETATM   12  C   UNL     1      42.601 -17.499   7.350  1.00  0.00     0.001 A 
HETATM   13  C   UNL     1      42.843 -18.569   6.486  1.00  0.00     0.014 A 
ENDBRANCH   7   8
ENDBRANCH   1   2
BRANCH   1  14
HETATM   14  N   UNL     1      42.550 -18.344   2.472  1.00  0.00    -0.338 N 
HETATM   15  C   UNL     1      41.848 -17.265   2.912  1.00  0.00     0.320 C 
HETATM   16  N   UNL     1      42.496 -16.436   3.783  1.00  0.00    -0.309 N 
HETATM   17  O   UNL     1      40.704 -17.134   2.489  1.00  0.00    -0.247 OA
HETATM   18  H   UNL     1      43.301 -16.820   4.250  1.00  0.00     0.170 HD
HETATM   19  H   UNL     1      42.009 -18.883   1.808  1.00  0.00     0.164 HD
BRANCH  16  20
HETATM   20  C   UNL     1      42.060 -15.179   4.255  1.00  0.00     0.036 A 
HETATM   21  C   UNL     1      42.652 -13.965   3.902  1.00  0.00     0.029 A 
HETATM   22  C   UNL     1      42.171 -12.760   4.427  1.00  0.00     0.002 A 
HETATM   23  C   UNL     1      41.099 -12.761   5.315  1.00  0.00     0.000 A 
HETATM   24  C   UNL     1      40.506 -13.965   5.681  1.00  0.00     0.002 A 
HETATM   25  C   UNL     1      40.983 -15.168   5.153  1.00  0.00     0.029 A 
ENDBRANCH  16  20
ENDBRANCH   1  14
TORSDOF 4
ENDMDL
MODEL 5
REMARK VINA RESULT:      -7.7      2.505      6.018
REMARK  4 active torsions:
REMARK  status: ('A' for Active; 'I' for Inactive)
REMARK    1  A    between atoms: C_5  and  C_6 
REMARK    2  A    between atoms: C_12  and  C_13 
REMARK    3  A    between atoms: C_13  and  N_14 
REMARK       I    between atoms: N_14  and  C_15 
REMARK       I    between atoms: C_15  and  N_16 
REMARK    4  A    between atoms: N_16  and  C_17 
ROOT
HETATM    1  C   UNL     1      41.937 -18.033   4.406  1.00  0.00     0.168 C 
ENDROOT
BRANCH   1   2
HETATM    2  C   UNL     1      43.189 -17.865   5.195  1.00  0.00     0.023 A 
HETATM    3  C   UNL     1      43.622 -16.812   5.979  1.00  0.00     0.085 A 
HETATM    4  C   UNL     1      43.074 -15.495   6.363  1.00  0.00     0.079 C 
HETATM    5  O   UNL     1      44.849 -17.095   6.483  1.00  0.00    -0.217 OA
HETATM    6  N   UNL     1      45.263 -18.327   6.039  1.00  0.00    -0.127 NA
HETATM    7  C   UNL     1      44.273 -18.806   5.273  1.00  0.00     0.105 A 
BRANCH   7   8
HETATM    8  C   UNL     1      44.409 -20.108   4.625  1.00  0.00    -0.004 A 
HETATM    9  C   UNL     1      44.369 -20.235   3.231  1.00  0.00     0.014 A 
HETATM   10  C   UNL     1      44.514 -21.488   2.631  1.00  0.00     0.001 A 
HETATM   11  C   UNL     1      44.689 -22.626   3.418  1.00  0.00     0.000 A 
HETATM   12  C   UNL     1      44.711 -22.513   4.807  1.00  0.00     0.001 A 
HETATM   13  C   UNL     1      44.570 -21.261   5.409  1.00  0.00     0.014 A 
ENDBRANCH   7   8
ENDBRANCH   1   2
BRANCH   1  14
HETATM   14  N   UNL     1      42.097 -17.568   3.047  1.00  0.00    -0.338 N 
HETATM   15  C   UNL     1      41.505 -16.532   2.394  1.00  0.00     0.320 C 
HETATM   16  N   UNL     1      40.399 -15.996   2.989  1.00  0.00    -0.309 N 
HETATM   17  O   UNL     1      42.014 -16.175   1.337  1.00  0.00    -0.247 OA
HETATM   18  H   UNL     1      39.943 -16.566   3.682  1.00  0.00     0.170 HD
HETATM   19  H   UNL     1      42.925 -17.882   2.556  1.00  0.00     0.164 HD
BRANCH  16  20
HETATM   20  C   UNL     1      39.703 -14.827   2.610  1.00  0.00     0.036 A 
HETATM   21  C   UNL     1      39.882 -13.582   3.217  1.00  0.00     0.029 A 
HETATM   22  C   UNL     1      39.141 -12.473   2.794  1.00  0.00     0.002 A 
HETATM   23  C   UNL     1      38.210 -12.601   1.767  1.00  0.00     0.000 A 
HETATM   24  C   UNL     1      38.018 -13.838   1.160  1.00  0.00     0.002 A 
HETATM   25  C   UNL     1      38.761 -14.945   1.579  1.00  0.00     0.029 A 
ENDBRANCH  16  20
ENDBRANCH   1  14
TORSDOF 4
ENDMDL
MODEL 6
REMARK VINA RESULT:      -7.6      2.541      5.617
REMARK  4 active torsions:
REMARK  status: ('A' for Active; 'I' for Inactive)
REMARK    1  A    between atoms: C_5  and  C_6 
REMARK    2  A    between atoms: C_12  and  C_13 
REMARK    3  A    between atoms: C_13  and  N_14 
REMARK       I    between atoms: N_14  and  C_15 
REMARK       I    between atoms: C_15  and  N_16 
REMARK    4  A    between atoms: N_16  and  C_17 
ROOT
HETATM    1  C   UNL     1      41.838 -18.105   5.159  1.00  0.00     0.168 C 
ENDROOT
BRANCH   1   2
HETATM    2  C   UNL     1      43.259 -18.141   5.601  1.00  0.00     0.023 A 
HETATM    3  C   UNL     1      43.916 -17.412   6.576  1.00  0.00     0.085 A 
HETATM    4  C   UNL     1      43.527 -16.366   7.544  1.00  0.00     0.079 C 
HETATM    5  O   UNL     1      45.224 -17.767   6.604  1.00  0.00    -0.217 OA
HETATM    6  N   UNL     1      45.470 -18.722   5.649  1.00  0.00    -0.127 NA
HETATM    7  C   UNL     1      44.298 -18.964   5.046  1.00  0.00     0.105 A 
BRANCH   7   8
HETATM    8  C   UNL     1      44.219 -19.932   3.954  1.00  0.00    -0.004 A 
HETATM    9  C   UNL     1      43.708 -19.574   2.700  1.00  0.00     0.014 A 
HETATM   10  C   UNL     1      43.653 -20.511   1.665  1.00  0.00     0.001 A 
HETATM   11  C   UNL     1      44.099 -21.816   1.878  1.00  0.00     0.000 A 
HETATM   12  C   UNL     1      44.591 -22.187   3.127  1.00  0.00     0.001 A 
HETATM   13  C   UNL     1      44.650 -21.251   4.162  1.00  0.00     0.014 A 
ENDBRANCH   7   8
ENDBRANCH   1   2
BRANCH   1  14
HETATM   14  N   UNL     1      41.326 -16.754   5.119  1.00  0.00    -0.338 N 
HETATM   15  C   UNL     1      41.169 -15.901   4.070  1.00  0.00     0.320 C 
HETATM   16  N   UNL     1      41.825 -16.232   2.919  1.00  0.00    -0.309 N 
HETATM   17  O   UNL     1      40.458 -14.919   4.252  1.00  0.00    -0.247 OA
HETATM   18  H   UNL     1      42.581 -16.890   3.008  1.00  0.00     0.170 HD
HETATM   19  H   UNL     1      40.782 -16.452   5.917  1.00  0.00     0.164 HD
BRANCH  16  20
HETATM   20  C   UNL     1      41.701 -15.615   1.655  1.00  0.00     0.036 A 
HETATM   21  C   UNL     1      41.862 -14.245   1.436  1.00  0.00     0.029 A 
HETATM   22  C   UNL     1      41.707 -13.707   0.154  1.00  0.00     0.002 A 
HETATM   23  C   UNL     1      41.380 -14.532  -0.918  1.00  0.00     0.000 A 
HETATM   24  C   UNL     1      41.208 -15.898  -0.712  1.00  0.00     0.002 A 
HETATM   25  C   UNL     1      41.368 -16.436   0.568  1.00  0.00     0.029 A 
ENDBRANCH  16  20
ENDBRANCH   1  14
TORSDOF 4
ENDMDL
MODEL 7
REMARK VINA RESULT:      -7.6      3.423      7.131
REMARK  4 active torsions:
REMARK  status: ('A' for Active; 'I' for Inactive)
REMARK    1  A    between atoms: C_5  and  C_6 
REMARK    2  A    between atoms: C_12  and  C_13 
REMARK    3  A    between atoms: C_13  and  N_14 
REMARK       I    between atoms: N_14  and  C_15 
REMARK       I    between atoms: C_15  and  N_16 
REMARK    4  A    between atoms: N_16  and  C_17 
ROOT
HETATM    1  C   UNL     1      43.783 -15.996   6.714  1.00  0.00     0.168 C 
ENDROOT
BRANCH   1   2
HETATM    2  C   UNL     1      42.750 -16.164   5.655  1.00  0.00     0.023 A 
HETATM    3  C   UNL     1      41.727 -15.323   5.256  1.00  0.00     0.085 A 
HETATM    4  C   UNL     1      41.250 -13.985   5.662  1.00  0.00     0.079 C 
HETATM    5  O   UNL     1      41.013 -15.914   4.265  1.00  0.00    -0.217 OA
HETATM    6  N   UNL     1      41.532 -17.156   3.993  1.00  0.00    -0.127 NA
HETATM    7  C   UNL     1      42.581 -17.316   4.812  1.00  0.00     0.105 A 
BRANCH   7   8
HETATM    8  C   UNL     1      43.351 -18.557   4.786  1.00  0.00    -0.004 A 
HETATM    9  C   UNL     1      43.962 -19.010   3.609  1.00  0.00     0.014 A 
HETATM   10  C   UNL     1      44.705 -20.193   3.609  1.00  0.00     0.001 A 
HETATM   11  C   UNL     1      44.836 -20.938   4.781  1.00  0.00     0.000 A 
HETATM   12  C   UNL     1      44.217 -20.506   5.952  1.00  0.00     0.001 A 
HETATM   13  C   UNL     1      43.476 -19.322   5.955  1.00  0.00     0.014 A 
ENDBRANCH   7   8
ENDBRANCH   1   2
BRANCH   1  14
HETATM   14  N   UNL     1      44.720 -14.947   6.383  1.00  0.00    -0.338 N 
HETATM   15  C   UNL     1      45.028 -13.799   7.045  1.00  0.00     0.320 C 
HETATM   16  N   UNL     1      44.158 -13.416   8.027  1.00  0.00    -0.309 N 
HETATM   17  O   UNL     1      46.050 -13.215   6.704  1.00  0.00    -0.247 OA
HETATM   18  H   UNL     1      43.239 -13.824   7.995  1.00  0.00     0.170 HD
HETATM   19  H   UNL     1      45.431 -15.174   5.700  1.00  0.00     0.164 HD
BRANCH  16  20
HETATM   20  C   UNL     1      44.327 -12.369   8.960  1.00  0.00     0.036 A 
HETATM   21  C   UNL     1      45.425 -12.256   9.815  1.00  0.00     0.029 A 
HETATM   22  C   UNL     1      45.511 -11.197  10.725  1.00  0.00     0.002 A 
HETATM   23  C   UNL     1      44.496 -10.247  10.794  1.00  0.00     0.000 A 
HETATM   24  C   UNL     1      43.392 -10.354   9.952  1.00  0.00     0.002 A 
HETATM   25  C   UNL     1      43.308 -11.409   9.040  1.00  0.00     0.029 A 
ENDBRANCH  16  20
ENDBRANCH   1  14
TORSDOF 4
ENDMDL
MODEL 8
REMARK VINA RESULT:      -7.6      2.247      3.940
REMARK  4 active torsions:
REMARK  status: ('A' for Active; 'I' for Inactive)
REMARK    1  A    between atoms: C_5  and  C_6 
REMARK    2  A    between atoms: C_12  and  C_13 
REMARK    3  A    between atoms: C_13  and  N_14 
REMARK       I    between atoms: N_14  and  C_15 
REMARK       I    between atoms: C_15  and  N_16 
REMARK    4  A    between atoms: N_16  and  C_17 
ROOT
HETATM    1  C   UNL     1      40.926 -15.823   6.006  1.00  0.00     0.168 C 
ENDROOT
BRANCH   1   2
HETATM    2  C   UNL     1      40.718 -14.696   5.056  1.00  0.00     0.023 A 
HETATM    3  C   UNL     1      40.104 -13.470   5.236  1.00  0.00     0.085 A 
HETATM    4  C   UNL     1      39.445 -12.783   6.366  1.00  0.00     0.079 C 
HETATM    5  O   UNL     1      40.123 -12.777   4.071  1.00  0.00    -0.217 OA
HETATM    6  N   UNL     1      40.735 -13.523   3.094  1.00  0.00    -0.127 NA
HETATM    7  C   UNL     1      41.106 -14.673   3.672  1.00  0.00     0.105 A 
BRANCH   7   8
HETATM    8  C   UNL     1      41.776 -15.708   2.888  1.00  0.00    -0.004 A 
HETATM    9  C   UNL     1      43.166 -15.705   2.715  1.00  0.00     0.014 A 
HETATM   10  C   UNL     1      43.788 -16.711   1.972  1.00  0.00     0.001 A 
HETATM   11  C   UNL     1      43.027 -17.722   1.387  1.00  0.00     0.000 A 
HETATM   12  C   UNL     1      41.641 -17.724   1.537  1.00  0.00     0.001 A 
HETATM   13  C   UNL     1      41.017 -16.721   2.282  1.00  0.00     0.014 A 
ENDBRANCH   7   8
ENDBRANCH   1   2
BRANCH   1  14
HETATM   14  N   UNL     1      42.297 -15.890   6.461  1.00  0.00    -0.338 N 
HETATM   15  C   UNL     1      43.214 -16.889   6.353  1.00  0.00     0.320 C 
HETATM   16  N   UNL     1      42.729 -18.120   6.012  1.00  0.00    -0.309 N 
HETATM   17  O   UNL     1      44.385 -16.597   6.570  1.00  0.00    -0.247 OA
HETATM   18  H   UNL     1      41.743 -18.266   6.149  1.00  0.00     0.170 HD
HETATM   19  H   UNL     1      42.744 -15.009   6.682  1.00  0.00     0.164 HD
BRANCH  16  20
HETATM   20  C   UNL     1      43.474 -19.272   5.680  1.00  0.00     0.036 A 
HETATM   21  C   UNL     1      43.664 -20.354   6.543  1.00  0.00     0.029 A 
HETATM   22  C   UNL     1      44.431 -21.454   6.145  1.00  0.00     0.002 A 
HETATM   23  C   UNL     1      45.021 -21.479   4.885  1.00  0.00     0.000 A 
HETATM   24  C   UNL     1      44.846 -20.404   4.019  1.00  0.00     0.002 A 
HETATM   25  C   UNL     1      44.076 -19.306   4.415  1.00  0.00     0.029 A 
ENDBRANCH  16  20
ENDBRANCH   1  14
TORSDOF 4
ENDMDL
MODEL 9
REMARK VINA RESULT:      -7.3      3.051      4.897
REMARK  4 active torsions:
REMARK  status: ('A' for Active; 'I' for Inactive)
REMARK    1  A    between atoms: C_5  and  C_6 
REMARK    2  A    between atoms: C_12  and  C_13 
REMARK    3  A    between atoms: C_13  and  N_14 
REMARK       I    between atoms: N_14  and  C_15 
REMARK       I    between atoms: C_15  and  N_16 
REMARK    4  A    between atoms: N_16  and  C_17 
ROOT
HETATM    1  C   UNL     1      41.449 -16.590   0.247  1.00  0.00     0.168 C 
ENDROOT
BRANCH   1   2
HETATM    2  C   UNL     1      40.968 -15.310  -0.344  1.00  0.00     0.023 A 
HETATM    3  C   UNL     1      40.697 -14.972  -1.657  1.00  0.00     0.085 A 
HETATM    4  C   UNL     1      40.748 -15.677  -2.954  1.00  0.00     0.079 C 
HETATM    5  O   UNL     1      40.308 -13.674  -1.721  1.00  0.00    -0.217 OA
HETATM    6  N   UNL     1      40.324 -13.120  -0.465  1.00  0.00    -0.127 NA
HETATM    7  C   UNL     1      40.707 -14.092   0.374  1.00  0.00     0.105 A 
BRANCH   7   8
HETATM    8  C   UNL     1      40.844 -13.819   1.802  1.00  0.00    -0.004 A 
HETATM    9  C   UNL     1      41.988 -13.198   2.319  1.00  0.00     0.014 A 
HETATM   10  C   UNL     1      42.092 -12.934   3.687  1.00  0.00     0.001 A 
HETATM   11  C   UNL     1      41.061 -13.299   4.551  1.00  0.00     0.000 A 
HETATM   12  C   UNL     1      39.926 -13.934   4.051  1.00  0.00     0.001 A 
HETATM   13  C   UNL     1      39.818 -14.196   2.683  1.00  0.00     0.014 A 
ENDBRANCH   7   8
ENDBRANCH   1   2
BRANCH   1  14
HETATM   14  N   UNL     1      42.841 -16.512   0.626  1.00  0.00    -0.338 N 
HETATM   15  C   UNL     1      43.637 -17.420   1.253  1.00  0.00     0.320 C 
HETATM   16  N   UNL     1      42.998 -18.458   1.869  1.00  0.00    -0.309 N 
HETATM   17  O   UNL     1      44.846 -17.225   1.210  1.00  0.00    -0.247 OA
HETATM   18  H   UNL     1      42.019 -18.330   2.063  1.00  0.00     0.170 HD
HETATM   19  H   UNL     1      43.395 -15.797   0.170  1.00  0.00     0.164 HD
BRANCH  16  20
HETATM   20  C   UNL     1      43.587 -19.607   2.442  1.00  0.00     0.036 A 
HETATM   21  C   UNL     1      43.667 -20.845   1.801  1.00  0.00     0.029 A 
HETATM   22  C   UNL     1      44.252 -21.941   2.445  1.00  0.00     0.002 A 
HETATM   23  C   UNL     1      44.754 -21.811   3.737  1.00  0.00     0.000 A 
HETATM   24  C   UNL     1      44.672 -20.584   4.389  1.00  0.00     0.002 A 
HETATM   25  C   UNL     1      44.092 -19.488   3.745  1.00  0.00     0.029 A 
ENDBRANCH  16  20
ENDBRANCH   1  14
TORSDOF 4
ENDMDL
MODEL 10
REMARK VINA RESULT:      -7.1      2.219      6.400
REMARK  4 active torsions:
REMARK  status: ('A' for Active; 'I' for Inactive)
REMARK    1  A    between atoms: C_5  and  C_6 
REMARK    2  A    between atoms: C_12  and  C_13 
REMARK    3  A    between atoms: C_13  and  N_14 
REMARK       I    between atoms: N_14  and  C_15 
REMARK       I    between atoms: C_15  and  N_16 
REMARK    4  A    between atoms: N_16  and  C_17 
ROOT
HETATM    1  C   UNL     1      42.358 -17.264   4.035  1.00  0.00     0.168 C 
ENDROOT
BRANCH   1   2
HETATM    2  C   UNL     1      43.480 -17.559   4.968  1.00  0.00     0.023 A 
HETATM    3  C   UNL     1      43.988 -16.824   6.024  1.00  0.00     0.085 A 
HETATM    4  C   UNL     1      43.661 -15.528   6.654  1.00  0.00     0.079 C 
HETATM    5  O   UNL     1      45.040 -17.482   6.571  1.00  0.00    -0.217 OA
HETATM    6  N   UNL     1      45.263 -18.653   5.890  1.00  0.00    -0.127 NA
HETATM    7  C   UNL     1      44.329 -18.719   4.932  1.00  0.00     0.105 A 
BRANCH   7   8
HETATM    8  C   UNL     1      44.300 -19.850   4.008  1.00  0.00    -0.004 A 
HETATM    9  C   UNL     1      44.719 -21.126   4.406  1.00  0.00     0.014 A 
HETATM   10  C   UNL     1      44.671 -22.197   3.511  1.00  0.00     0.001 A 
HETATM   11  C   UNL     1      44.216 -22.001   2.208  1.00  0.00     0.000 A 
HETATM   12  C   UNL     1      43.815 -20.732   1.795  1.00  0.00     0.001 A 
HETATM   13  C   UNL     1      43.859 -19.660   2.690  1.00  0.00     0.014 A 
ENDBRANCH   7   8
ENDBRANCH   1   2
BRANCH   1  14
HETATM   14  N   UNL     1      42.662 -16.144   3.173  1.00  0.00    -0.338 N 
HETATM   15  C   UNL     1      42.058 -14.931   3.058  1.00  0.00     0.320 C 
HETATM   16  N   UNL     1      40.823 -14.814   3.627  1.00  0.00    -0.309 N 
HETATM   17  O   UNL     1      42.673 -14.057   2.456  1.00  0.00    -0.247 OA
HETATM   18  H   UNL     1      40.338 -15.674   3.824  1.00  0.00     0.170 HD
HETATM   19  H   UNL     1      43.584 -16.133   2.755  1.00  0.00     0.164 HD
BRANCH  16  20
HETATM   20  C   UNL     1      40.062 -13.636   3.790  1.00  0.00     0.036 A 
HETATM   21  C   UNL     1      39.402 -12.983   2.746  1.00  0.00     0.029 A 
HETATM   22  C   UNL     1      38.681 -11.809   2.985  1.00  0.00     0.002 A 
HETATM   23  C   UNL     1      38.619 -11.272   4.269  1.00  0.00     0.000 A 
HETATM   24  C   UNL     1      39.279 -11.909   5.316  1.00  0.00     0.002 A 
HETATM   25  C   UNL     1      39.996 -13.085   5.077  1.00  0.00     0.029 A 
ENDBRANCH  16  20
ENDBRANCH   1  14
TORSDOF 4
ENDMDL
