MODEL 1
REMARK VINA RESULT:      -9.7      0.000      0.000
REMARK  6 active torsions:
REMARK  status: ('A' for Active; 'I' for Inactive)
REMARK    1  A    between atoms: C_2  and  O_3 
REMARK    2  A    between atoms: C_2  and  C_4 
REMARK    3  A    between atoms: C_6  and  N_7 
REMARK       I    between atoms: N_7  and  C_8 
REMARK    4  A    between atoms: C_8  and  C_9 
REMARK    5  A    between atoms: C_14  and  C_15 
REMARK    6  A    between atoms: C_23  and  C_24 
ROOT
HETATM    1  C   UNL     1      42.708 -13.886   5.628  1.00  0.00     0.148 A 
HETATM    2  N   UNL     1      41.483 -14.301   5.224  1.00  0.00    -0.165 NA
HETATM    3  N   UNL     1      41.766 -15.209   4.270  1.00  0.00    -0.240 N 
HETATM    4  C   UNL     1      43.100 -15.449   4.108  1.00  0.00     0.123 A 
HETATM    5  N   UNL     1      43.542 -16.417   3.281  1.00  0.00    -0.366 N 
HETATM    6  C   UNL     1      42.653 -17.418   2.695  1.00  0.00     0.118 C 
HETATM    7  C   UNL     1      41.256 -17.401   3.355  1.00  0.00     0.066 C 
HETATM    8  C   UNL     1      40.739 -15.972   3.587  1.00  0.00     0.221 C 
HETATM    9  C   UNL     1      43.744 -14.566   4.929  1.00  0.00     0.089 A 
HETATM   10  H   UNL     1      44.539 -16.588   3.156  1.00  0.00     0.161 HD
ENDROOT
BRANCH   1  11
HETATM   11  C   UNL     1      42.894 -12.884   6.693  1.00  0.00     0.276 C 
HETATM   12  N   UNL     1      43.936 -13.211   7.538  1.00  0.00    -0.322 N 
HETATM   13  H   UNL     1      44.376 -14.099   7.314  1.00  0.00     0.169 HD
HETATM   14  O   UNL     1      42.180 -11.891   6.759  1.00  0.00    -0.266 OA
BRANCH  12  15
HETATM   15  C   UNL     1      44.437 -12.475   8.626  1.00  0.00     0.035 A 
HETATM   16  C   UNL     1      43.730 -12.268   9.813  1.00  0.00     0.039 A 
HETATM   17  C   UNL     1      44.278 -11.513  10.867  1.00  0.00    -0.028 A 
HETATM   18  C   UNL     1      45.563 -10.977  10.712  1.00  0.00     0.010 A 
HETATM   19  C   UNL     1      46.273 -11.175   9.529  1.00  0.00     0.003 A 
HETATM   20  C   UNL     1      45.711 -11.919   8.490  1.00  0.00     0.029 A 
BRANCH  17  21
HETATM   21  C   UNL     1      43.483 -11.334  12.142  1.00  0.00     0.147 C 
HETATM   22  C   UNL     1      43.512  -9.886  12.617  1.00  0.00     0.044 C 
BRANCH  21  23
HETATM   23  O   UNL     1      42.126 -11.731  11.945  1.00  0.00    -0.391 OA
HETATM   24  H   UNL     1      41.575 -11.104  12.443  1.00  0.00     0.210 HD
ENDBRANCH  21  23
ENDBRANCH  17  21
ENDBRANCH  12  15
ENDBRANCH   1  11
BRANCH   8  25
HETATM   25  C   UNL     1      40.342 -15.276   2.306  1.00  0.00     0.409 C 
HETATM   26  F   UNL     1      41.266 -14.379   1.900  1.00  0.00    -0.169 F 
HETATM   27  F   UNL     1      40.109 -16.121   1.282  1.00  0.00    -0.169 F 
HETATM   28  F   UNL     1      39.191 -14.581   2.504  1.00  0.00    -0.169 F 
ENDBRANCH   8  25
BRANCH   6  29
HETATM   29  C   UNL     1      43.321 -18.779   2.827  1.00  0.00    -0.035 A 
HETATM   30  C   UNL     1      43.158 -19.765   1.835  1.00  0.00     0.012 A 
HETATM   31  C   UNL     1      43.741 -21.023   1.974  1.00  0.00     0.043 A 
HETATM   32  C   UNL     1      44.487 -21.307   3.111  1.00  0.00     0.116 A 
HETATM   33  F   UNL     1      45.039 -22.518   3.253  1.00  0.00    -0.206 F 
HETATM   34  C   UNL     1      44.659 -20.353   4.108  1.00  0.00     0.043 A 
HETATM   35  C   UNL     1      44.078 -19.090   3.969  1.00  0.00     0.012 A 
ENDBRANCH   6  29
TORSDOF 6
ENDMDL
MODEL 2
REMARK VINA RESULT:      -9.2      4.856      9.291
REMARK  6 active torsions:
REMARK  status: ('A' for Active; 'I' for Inactive)
REMARK    1  A    between atoms: C_2  and  O_3 
REMARK    2  A    between atoms: C_2  and  C_4 
REMARK    3  A    between atoms: C_6  and  N_7 
REMARK       I    between atoms: N_7  and  C_8 
REMARK    4  A    between atoms: C_8  and  C_9 
REMARK    5  A    between atoms: C_14  and  C_15 
REMARK    6  A    between atoms: C_23  and  C_24 
ROOT
HETATM    1  C   UNL     1      39.756 -14.796   1.458  1.00  0.00     0.148 A 
HETATM    2  N   UNL     1      40.947 -14.195   1.698  1.00  0.00    -0.165 NA
HETATM    3  N   UNL     1      41.586 -15.084   2.483  1.00  0.00    -0.240 N 
HETATM    4  C   UNL     1      40.897 -16.245   2.685  1.00  0.00     0.123 A 
HETATM    5  N   UNL     1      41.450 -17.281   3.346  1.00  0.00    -0.366 N 
HETATM    6  C   UNL     1      42.872 -17.335   3.677  1.00  0.00     0.118 C 
HETATM    7  C   UNL     1      43.674 -16.237   2.942  1.00  0.00     0.066 C 
HETATM    8  C   UNL     1      42.945 -14.883   2.945  1.00  0.00     0.221 C 
HETATM    9  C   UNL     1      39.681 -16.070   2.086  1.00  0.00     0.089 A 
HETATM   10  H   UNL     1      40.929 -18.144   3.501  1.00  0.00     0.161 HD
ENDROOT
BRANCH   1  11
HETATM   11  C   UNL     1      38.716 -14.184   0.612  1.00  0.00     0.276 C 
HETATM   12  N   UNL     1      39.193 -13.854  -0.641  1.00  0.00    -0.322 N 
HETATM   13  H   UNL     1      40.183 -14.050  -0.762  1.00  0.00     0.169 HD
HETATM   14  O   UNL     1      37.575 -14.023   1.028  1.00  0.00    -0.266 OA
BRANCH  12  15
HETATM   15  C   UNL     1      38.486 -13.306  -1.725  1.00  0.00     0.035 A 
HETATM   16  C   UNL     1      37.680 -14.057  -2.584  1.00  0.00     0.039 A 
HETATM   17  C   UNL     1      37.001 -13.456  -3.661  1.00  0.00    -0.028 A 
HETATM   18  C   UNL     1      37.135 -12.075  -3.853  1.00  0.00     0.010 A 
HETATM   19  C   UNL     1      37.940 -11.318  -3.003  1.00  0.00     0.003 A 
HETATM   20  C   UNL     1      38.615 -11.932  -1.945  1.00  0.00     0.029 A 
BRANCH  17  21
HETATM   21  C   UNL     1      36.123 -14.308  -4.552  1.00  0.00     0.147 C 
HETATM   22  C   UNL     1      34.855 -13.566  -4.958  1.00  0.00     0.044 C 
BRANCH  21  23
HETATM   23  O   UNL     1      36.832 -14.695  -5.729  1.00  0.00    -0.391 OA
HETATM   24  H   UNL     1      36.342 -14.329  -6.484  1.00  0.00     0.210 HD
ENDBRANCH  21  23
ENDBRANCH  17  21
ENDBRANCH  12  15
ENDBRANCH   1  11
BRANCH   8  25
HETATM   25  C   UNL     1      42.940 -14.223   4.304  1.00  0.00     0.409 C 
HETATM   26  F   UNL     1      41.845 -14.543   5.027  1.00  0.00    -0.169 F 
HETATM   27  F   UNL     1      44.026 -14.512   5.050  1.00  0.00    -0.169 F 
HETATM   28  F   UNL     1      42.922 -12.873   4.154  1.00  0.00    -0.169 F 
ENDBRANCH   8  25
BRANCH   6  29
HETATM   29  C   UNL     1      43.383 -18.727   3.339  1.00  0.00    -0.035 A 
HETATM   30  C   UNL     1      44.247 -19.414   4.216  1.00  0.00     0.012 A 
HETATM   31  C   UNL     1      44.743 -20.675   3.888  1.00  0.00     0.043 A 
HETATM   32  C   UNL     1      44.386 -21.255   2.678  1.00  0.00     0.116 A 
HETATM   33  F   UNL     1      44.869 -22.461   2.357  1.00  0.00    -0.206 F 
HETATM   34  C   UNL     1      43.540 -20.596   1.793  1.00  0.00     0.043 A 
HETATM   35  C   UNL     1      43.038 -19.335   2.121  1.00  0.00     0.012 A 
ENDBRANCH   6  29
TORSDOF 6
ENDMDL
MODEL 3
REMARK VINA RESULT:      -9.0      6.295      9.678
REMARK  6 active torsions:
REMARK  status: ('A' for Active; 'I' for Inactive)
REMARK    1  A    between atoms: C_2  and  O_3 
REMARK    2  A    between atoms: C_2  and  C_4 
REMARK    3  A    between atoms: C_6  and  N_7 
REMARK       I    between atoms: N_7  and  C_8 
REMARK    4  A    between atoms: C_8  and  C_9 
REMARK    5  A    between atoms: C_14  and  C_15 
REMARK    6  A    between atoms: C_23  and  C_24 
ROOT
HETATM    1  C   UNL     1      41.264 -15.728   0.429  1.00  0.00     0.148 A 
HETATM    2  N   UNL     1      41.317 -15.899  -0.915  1.00  0.00    -0.165 NA
HETATM    3  N   UNL     1      41.098 -14.658  -1.390  1.00  0.00    -0.240 N 
HETATM    4  C   UNL     1      40.991 -13.701  -0.422  1.00  0.00     0.123 A 
HETATM    5  N   UNL     1      40.893 -12.394  -0.737  1.00  0.00    -0.366 N 
HETATM    6  C   UNL     1      41.131 -11.890  -2.088  1.00  0.00     0.118 C 
HETATM    7  C   UNL     1      41.771 -12.964  -2.996  1.00  0.00     0.066 C 
HETATM    8  C   UNL     1      41.127 -14.347  -2.806  1.00  0.00     0.221 C 
HETATM    9  C   UNL     1      41.033 -14.367   0.771  1.00  0.00     0.089 A 
HETATM   10  H   UNL     1      40.805 -11.684  -0.011  1.00  0.00     0.161 HD
ENDROOT
BRANCH   1  11
HETATM   11  C   UNL     1      41.468 -16.838   1.377  1.00  0.00     0.276 C 
HETATM   12  N   UNL     1      42.805 -17.141   1.542  1.00  0.00    -0.322 N 
HETATM   13  H   UNL     1      43.422 -16.582   0.960  1.00  0.00     0.169 HD
HETATM   14  O   UNL     1      40.519 -17.380   1.931  1.00  0.00    -0.266 OA
BRANCH  12  15
HETATM   15  C   UNL     1      43.381 -18.096   2.397  1.00  0.00     0.035 A 
HETATM   16  C   UNL     1      43.698 -19.399   2.003  1.00  0.00     0.039 A 
HETATM   17  C   UNL     1      44.265 -20.317   2.907  1.00  0.00    -0.028 A 
HETATM   18  C   UNL     1      44.522 -19.898   4.218  1.00  0.00     0.010 A 
HETATM   19  C   UNL     1      44.205 -18.602   4.621  1.00  0.00     0.003 A 
HETATM   20  C   UNL     1      43.634 -17.706   3.715  1.00  0.00     0.029 A 
BRANCH  17  21
HETATM   21  C   UNL     1      44.611 -21.711   2.428  1.00  0.00     0.147 C 
HETATM   22  C   UNL     1      44.607 -22.711   3.578  1.00  0.00     0.044 C 
BRANCH  21  23
HETATM   23  O   UNL     1      43.682 -22.143   1.434  1.00  0.00    -0.391 OA
HETATM   24  H   UNL     1      43.321 -21.341   1.020  1.00  0.00     0.210 HD
ENDBRANCH  21  23
ENDBRANCH  17  21
ENDBRANCH  12  15
ENDBRANCH   1  11
BRANCH   8  25
HETATM   25  C   UNL     1      39.733 -14.429  -3.383  1.00  0.00     0.409 C 
HETATM   26  F   UNL     1      39.350 -13.274  -3.970  1.00  0.00    -0.169 F 
HETATM   27  F   UNL     1      39.579 -15.421  -4.284  1.00  0.00    -0.169 F 
HETATM   28  F   UNL     1      38.841 -14.670  -2.386  1.00  0.00    -0.169 F 
ENDBRANCH   8  25
BRANCH   6  29
HETATM   29  C   UNL     1      42.005 -10.649  -1.982  1.00  0.00    -0.035 A 
HETATM   30  C   UNL     1      41.763  -9.522  -2.792  1.00  0.00     0.012 A 
HETATM   31  C   UNL     1      42.586  -8.399  -2.719  1.00  0.00     0.043 A 
HETATM   32  C   UNL     1      43.661  -8.398  -1.840  1.00  0.00     0.116 A 
HETATM   33  F   UNL     1      44.460  -7.326  -1.776  1.00  0.00    -0.206 F 
HETATM   34  C   UNL     1      43.925  -9.500  -1.034  1.00  0.00     0.043 A 
HETATM   35  C   UNL     1      43.100 -10.624  -1.102  1.00  0.00     0.012 A 
ENDBRANCH   6  29
TORSDOF 6
ENDMDL
MODEL 4
REMARK VINA RESULT:      -8.9      5.044      8.086
REMARK  6 active torsions:
REMARK  status: ('A' for Active; 'I' for Inactive)
REMARK    1  A    between atoms: C_2  and  O_3 
REMARK    2  A    between atoms: C_2  and  C_4 
REMARK    3  A    between atoms: C_6  and  N_7 
REMARK       I    between atoms: N_7  and  C_8 
REMARK    4  A    between atoms: C_8  and  C_9 
REMARK    5  A    between atoms: C_14  and  C_15 
REMARK    6  A    between atoms: C_23  and  C_24 
ROOT
HETATM    1  C   UNL     1      41.536 -14.024   1.130  1.00  0.00     0.148 A 
HETATM    2  N   UNL     1      42.180 -13.773   2.295  1.00  0.00    -0.165 NA
HETATM    3  N   UNL     1      42.181 -14.972   2.909  1.00  0.00    -0.240 N 
HETATM    4  C   UNL     1      41.646 -15.982   2.161  1.00  0.00     0.123 A 
HETATM    5  N   UNL     1      41.684 -17.261   2.582  1.00  0.00    -0.366 N 
HETATM    6  C   UNL     1      42.489 -17.690   3.723  1.00  0.00     0.118 C 
HETATM    7  C   UNL     1      43.477 -16.591   4.174  1.00  0.00     0.066 C 
HETATM    8  C   UNL     1      42.830 -15.196   4.186  1.00  0.00     0.221 C 
HETATM    9  C   UNL     1      41.163 -15.393   1.026  1.00  0.00     0.089 A 
HETATM   10  H   UNL     1      41.276 -18.011   2.025  1.00  0.00     0.161 HD
ENDROOT
BRANCH   1  11
HETATM   11  C   UNL     1      41.310 -12.985   0.109  1.00  0.00     0.276 C 
HETATM   12  N   UNL     1      42.418 -12.179  -0.065  1.00  0.00    -0.322 N 
HETATM   13  H   UNL     1      43.187 -12.407   0.558  1.00  0.00     0.169 HD
HETATM   14  O   UNL     1      40.243 -12.905  -0.488  1.00  0.00    -0.266 OA
BRANCH  12  15
HETATM   15  C   UNL     1      42.592 -11.126  -0.980  1.00  0.00     0.035 A 
HETATM   16  C   UNL     1      42.309 -11.230  -2.344  1.00  0.00     0.039 A 
HETATM   17  C   UNL     1      42.512 -10.143  -3.216  1.00  0.00    -0.028 A 
HETATM   18  C   UNL     1      42.994  -8.939  -2.688  1.00  0.00     0.010 A 
HETATM   19  C   UNL     1      43.284  -8.828  -1.329  1.00  0.00     0.003 A 
HETATM   20  C   UNL     1      43.085  -9.918  -0.479  1.00  0.00     0.029 A 
BRANCH  17  21
HETATM   21  C   UNL     1      42.172 -10.296  -4.682  1.00  0.00     0.147 C 
HETATM   22  C   UNL     1      42.494  -9.029  -5.465  1.00  0.00     0.044 C 
BRANCH  21  23
HETATM   23  O   UNL     1      42.892 -11.389  -5.252  1.00  0.00    -0.391 OA
HETATM   24  H   UNL     1      43.832 -11.144  -5.236  1.00  0.00     0.210 HD
ENDBRANCH  21  23
ENDBRANCH  17  21
ENDBRANCH  12  15
ENDBRANCH   1  11
BRANCH   8  25
HETATM   25  C   UNL     1      41.837 -15.020   5.311  1.00  0.00     0.409 C 
HETATM   26  F   UNL     1      40.563 -15.225   4.910  1.00  0.00    -0.169 F 
HETATM   27  F   UNL     1      42.071 -15.821   6.370  1.00  0.00    -0.169 F 
HETATM   28  F   UNL     1      41.895 -13.742   5.772  1.00  0.00    -0.169 F 
ENDBRANCH   8  25
BRANCH   6  29
HETATM   29  C   UNL     1      43.213 -18.972   3.335  1.00  0.00    -0.035 A 
HETATM   30  C   UNL     1      42.949 -19.608   2.106  1.00  0.00     0.012 A 
HETATM   31  C   UNL     1      43.586 -20.801   1.767  1.00  0.00     0.043 A 
HETATM   32  C   UNL     1      44.486 -21.370   2.659  1.00  0.00     0.116 A 
HETATM   33  F   UNL     1      45.091 -22.521   2.341  1.00  0.00    -0.206 F 
HETATM   34  C   UNL     1      44.759 -20.766   3.881  1.00  0.00     0.043 A 
HETATM   35  C   UNL     1      44.125 -19.568   4.221  1.00  0.00     0.012 A 
ENDBRANCH   6  29
TORSDOF 6
ENDMDL
MODEL 5
REMARK VINA RESULT:      -8.9      2.600      2.827
REMARK  6 active torsions:
REMARK  status: ('A' for Active; 'I' for Inactive)
REMARK    1  A    between atoms: C_2  and  O_3 
REMARK    2  A    between atoms: C_2  and  C_4 
REMARK    3  A    between atoms: C_6  and  N_7 
REMARK       I    between atoms: N_7  and  C_8 
REMARK    4  A    between atoms: C_8  and  C_9 
REMARK    5  A    between atoms: C_14  and  C_15 
REMARK    6  A    between atoms: C_23  and  C_24 
ROOT
HETATM    1  C   UNL     1      40.604 -13.608   5.214  1.00  0.00     0.148 A 
HETATM    2  N   UNL     1      39.863 -14.234   4.268  1.00  0.00    -0.165 NA
HETATM    3  N   UNL     1      40.766 -15.004   3.631  1.00  0.00    -0.240 N 
HETATM    4  C   UNL     1      42.018 -14.960   4.174  1.00  0.00     0.123 A 
HETATM    5  N   UNL     1      43.003 -15.765   3.730  1.00  0.00    -0.366 N 
HETATM    6  C   UNL     1      42.755 -16.884   2.823  1.00  0.00     0.118 C 
HETATM    7  C   UNL     1      41.247 -17.190   2.688  1.00  0.00     0.066 C 
HETATM    8  C   UNL     1      40.403 -15.911   2.560  1.00  0.00     0.221 C 
HETATM    9  C   UNL     1      41.965 -14.020   5.165  1.00  0.00     0.089 A 
HETATM   10  H   UNL     1      43.938 -15.723   4.133  1.00  0.00     0.161 HD
ENDROOT
BRANCH   1  11
HETATM   11  C   UNL     1      40.020 -12.659   6.179  1.00  0.00     0.276 C 
HETATM   12  N   UNL     1      40.987 -11.933   6.844  1.00  0.00    -0.322 N 
HETATM   13  H   UNL     1      41.936 -12.194   6.592  1.00  0.00     0.169 HD
HETATM   14  O   UNL     1      38.806 -12.566   6.320  1.00  0.00    -0.266 OA
BRANCH  12  15
HETATM   15  C   UNL     1      40.809 -10.908   7.790  1.00  0.00     0.035 A 
HETATM   16  C   UNL     1      40.580 -11.139   9.149  1.00  0.00     0.039 A 
HETATM   17  C   UNL     1      40.398 -10.072  10.049  1.00  0.00    -0.028 A 
HETATM   18  C   UNL     1      40.464  -8.761   9.561  1.00  0.00     0.010 A 
HETATM   19  C   UNL     1      40.687  -8.522   8.206  1.00  0.00     0.003 A 
HETATM   20  C   UNL     1      40.857  -9.591   7.324  1.00  0.00     0.029 A 
BRANCH  17  21
HETATM   21  C   UNL     1      40.173 -10.371  11.516  1.00  0.00     0.147 C 
HETATM   22  C   UNL     1      38.965  -9.617  12.059  1.00  0.00     0.044 C 
BRANCH  21  23
HETATM   23  O   UNL     1      39.977 -11.770  11.717  1.00  0.00    -0.391 OA
HETATM   24  H   UNL     1      39.635 -11.879  12.620  1.00  0.00     0.210 HD
ENDBRANCH  21  23
ENDBRANCH  17  21
ENDBRANCH  12  15
ENDBRANCH   1  11
BRANCH   8  25
HETATM   25  C   UNL     1      40.570 -15.229   1.223  1.00  0.00     0.409 C 
HETATM   26  F   UNL     1      41.457 -14.212   1.270  1.00  0.00    -0.169 F 
HETATM   27  F   UNL     1      40.951 -16.063   0.234  1.00  0.00    -0.169 F 
HETATM   28  F   UNL     1      39.384 -14.688   0.837  1.00  0.00    -0.169 F 
ENDBRANCH   8  25
BRANCH   6  29
HETATM   29  C   UNL     1      43.530 -18.088   3.338  1.00  0.00    -0.035 A 
HETATM   30  C   UNL     1      43.827 -19.174   2.491  1.00  0.00     0.012 A 
HETATM   31  C   UNL     1      44.506 -20.292   2.973  1.00  0.00     0.043 A 
HETATM   32  C   UNL     1      44.885 -20.336   4.308  1.00  0.00     0.116 A 
HETATM   33  F   UNL     1      45.527 -21.413   4.777  1.00  0.00    -0.206 F 
HETATM   34  C   UNL     1      44.599 -19.281   5.167  1.00  0.00     0.043 A 
HETATM   35  C   UNL     1      43.923 -18.157   4.685  1.00  0.00     0.012 A 
ENDBRANCH   6  29
TORSDOF 6
ENDMDL
MODEL 6
REMARK VINA RESULT:      -8.8      4.825      9.029
REMARK  6 active torsions:
REMARK  status: ('A' for Active; 'I' for Inactive)
REMARK    1  A    between atoms: C_2  and  O_3 
REMARK    2  A    between atoms: C_2  and  C_4 
REMARK    3  A    between atoms: C_6  and  N_7 
REMARK       I    between atoms: N_7  and  C_8 
REMARK    4  A    between atoms: C_8  and  C_9 
REMARK    5  A    between atoms: C_14  and  C_15 
REMARK    6  A    between atoms: C_23  and  C_24 
ROOT
HETATM    1  C   UNL     1      39.643 -14.896   1.354  1.00  0.00     0.148 A 
HETATM    2  N   UNL     1      40.821 -14.250   1.536  1.00  0.00    -0.165 NA
HETATM    3  N   UNL     1      41.512 -15.092   2.330  1.00  0.00    -0.240 N 
HETATM    4  C   UNL     1      40.867 -16.267   2.591  1.00  0.00     0.123 A 
HETATM    5  N   UNL     1      41.472 -17.263   3.267  1.00  0.00    -0.366 N 
HETATM    6  C   UNL     1      42.905 -17.260   3.555  1.00  0.00     0.118 C 
HETATM    7  C   UNL     1      43.649 -16.164   2.760  1.00  0.00     0.066 C 
HETATM    8  C   UNL     1      42.877 -14.834   2.742  1.00  0.00     0.221 C 
HETATM    9  C   UNL     1      39.628 -16.150   2.024  1.00  0.00     0.089 A 
HETATM   10  H   UNL     1      40.985 -18.136   3.467  1.00  0.00     0.161 HD
ENDROOT
BRANCH   1  11
HETATM   11  C   UNL     1      38.559 -14.345   0.521  1.00  0.00     0.276 C 
HETATM   12  N   UNL     1      38.932 -14.223  -0.803  1.00  0.00    -0.322 N 
HETATM   13  H   UNL     1      39.895 -14.494  -0.980  1.00  0.00     0.169 HD
HETATM   14  O   UNL     1      37.471 -14.058   1.006  1.00  0.00    -0.266 OA
BRANCH  12  15
HETATM   15  C   UNL     1      38.153 -13.789  -1.889  1.00  0.00     0.035 A 
HETATM   16  C   UNL     1      37.641 -12.494  -2.008  1.00  0.00     0.039 A 
HETATM   17  C   UNL     1      36.857 -12.117  -3.115  1.00  0.00    -0.028 A 
HETATM   18  C   UNL     1      36.605 -13.066  -4.114  1.00  0.00     0.010 A 
HETATM   19  C   UNL     1      37.108 -14.361  -4.002  1.00  0.00     0.003 A 
HETATM   20  C   UNL     1      37.876 -14.722  -2.893  1.00  0.00     0.029 A 
BRANCH  17  21
HETATM   21  C   UNL     1      36.343 -10.698  -3.210  1.00  0.00     0.147 C 
HETATM   22  C   UNL     1      35.027 -10.632  -3.977  1.00  0.00     0.044 C 
BRANCH  21  23
HETATM   23  O   UNL     1      36.149 -10.148  -1.907  1.00  0.00    -0.391 OA
HETATM   24  H   UNL     1      36.548  -9.262  -1.914  1.00  0.00     0.210 HD
ENDBRANCH  21  23
ENDBRANCH  17  21
ENDBRANCH  12  15
ENDBRANCH   1  11
BRANCH   8  25
HETATM   25  C   UNL     1      42.891 -14.129   4.079  1.00  0.00     0.409 C 
HETATM   26  F   UNL     1      43.879 -14.574   4.885  1.00  0.00    -0.169 F 
HETATM   27  F   UNL     1      43.009 -12.789   3.983  1.00  0.00    -0.169 F 
HETATM   28  F   UNL     1      41.724 -14.369   4.732  1.00  0.00    -0.169 F 
ENDBRANCH   8  25
BRANCH   6  29
HETATM   29  C   UNL     1      43.451 -18.647   3.247  1.00  0.00    -0.035 A 
HETATM   30  C   UNL     1      43.053 -19.340   2.087  1.00  0.00     0.012 A 
HETATM   31  C   UNL     1      43.526 -20.625   1.824  1.00  0.00     0.043 A 
HETATM   32  C   UNL     1      44.396 -21.228   2.723  1.00  0.00     0.116 A 
HETATM   33  F   UNL     1      44.843 -22.466   2.478  1.00  0.00    -0.206 F 
HETATM   34  C   UNL     1      44.800 -20.568   3.878  1.00  0.00     0.043 A 
HETATM   35  C   UNL     1      44.330 -19.279   4.142  1.00  0.00     0.012 A 
ENDBRANCH   6  29
TORSDOF 6
ENDMDL
MODEL 7
REMARK VINA RESULT:      -8.6      5.443      9.021
REMARK  6 active torsions:
REMARK  status: ('A' for Active; 'I' for Inactive)
REMARK    1  A    between atoms: C_2  and  O_3 
REMARK    2  A    between atoms: C_2  and  C_4 
REMARK    3  A    between atoms: C_6  and  N_7 
REMARK       I    between atoms: N_7  and  C_8 
REMARK    4  A    between atoms: C_8  and  C_9 
REMARK    5  A    between atoms: C_14  and  C_15 
REMARK    6  A    between atoms: C_23  and  C_24 
ROOT
HETATM    1  C   UNL     1      41.916 -15.378   0.664  1.00  0.00     0.148 A 
HETATM    2  N   UNL     1      42.063 -14.032   0.594  1.00  0.00    -0.165 NA
HETATM    3  N   UNL     1      41.570 -13.734  -0.624  1.00  0.00    -0.240 N 
HETATM    4  C   UNL     1      41.048 -14.804  -1.292  1.00  0.00     0.123 A 
HETATM    5  N   UNL     1      40.408 -14.651  -2.468  1.00  0.00    -0.366 N 
HETATM    6  C   UNL     1      40.021 -13.342  -2.989  1.00  0.00     0.118 C 
HETATM    7  C   UNL     1      40.168 -12.234  -1.922  1.00  0.00     0.066 C 
HETATM    8  C   UNL     1      41.469 -12.373  -1.114  1.00  0.00     0.221 C 
HETATM    9  C   UNL     1      41.308 -15.897  -0.513  1.00  0.00     0.089 A 
HETATM   10  H   UNL     1      40.026 -15.454  -2.967  1.00  0.00     0.161 HD
ENDROOT
BRANCH   1  11
HETATM   11  C   UNL     1      42.313 -16.157   1.851  1.00  0.00     0.276 C 
HETATM   12  N   UNL     1      42.915 -17.352   1.510  1.00  0.00    -0.322 N 
HETATM   13  H   UNL     1      42.952 -17.516   0.508  1.00  0.00     0.169 HD
HETATM   14  O   UNL     1      42.112 -15.733   2.983  1.00  0.00    -0.266 OA
BRANCH  12  15
HETATM   15  C   UNL     1      43.466 -18.322   2.364  1.00  0.00     0.035 A 
HETATM   16  C   UNL     1      43.820 -18.074   3.693  1.00  0.00     0.039 A 
HETATM   17  C   UNL     1      44.377 -19.084   4.501  1.00  0.00    -0.028 A 
HETATM   18  C   UNL     1      44.563 -20.358   3.951  1.00  0.00     0.010 A 
HETATM   19  C   UNL     1      44.217 -20.614   2.625  1.00  0.00     0.003 A 
HETATM   20  C   UNL     1      43.673 -19.599   1.835  1.00  0.00     0.029 A 
BRANCH  17  21
HETATM   21  C   UNL     1      44.725 -18.773   5.940  1.00  0.00     0.147 C 
HETATM   22  C   UNL     1      44.381 -17.332   6.298  1.00  0.00     0.044 C 
BRANCH  21  23
HETATM   23  O   UNL     1      44.028 -19.650   6.824  1.00  0.00    -0.391 OA
HETATM   24  H   UNL     1      44.670 -19.945   7.492  1.00  0.00     0.210 HD
ENDBRANCH  21  23
ENDBRANCH  17  21
ENDBRANCH  12  15
ENDBRANCH   1  11
BRANCH   8  25
HETATM   25  C   UNL     1      42.699 -12.017  -1.916  1.00  0.00     0.409 C 
HETATM   26  F   UNL     1      43.308 -13.105  -2.435  1.00  0.00    -0.169 F 
HETATM   27  F   UNL     1      42.456 -11.158  -2.927  1.00  0.00    -0.169 F 
HETATM   28  F   UNL     1      43.610 -11.415  -1.108  1.00  0.00    -0.169 F 
ENDBRANCH   8  25
BRANCH   6  29
HETATM   29  C   UNL     1      38.592 -13.442  -3.502  1.00  0.00    -0.035 A 
HETATM   30  C   UNL     1      37.819 -12.285  -3.722  1.00  0.00     0.012 A 
HETATM   31  C   UNL     1      36.498 -12.379  -4.159  1.00  0.00     0.043 A 
HETATM   32  C   UNL     1      35.939 -13.633  -4.372  1.00  0.00     0.116 A 
HETATM   33  F   UNL     1      34.668 -13.726  -4.780  1.00  0.00    -0.206 F 
HETATM   34  C   UNL     1      36.678 -14.790  -4.157  1.00  0.00     0.043 A 
HETATM   35  C   UNL     1      38.003 -14.698  -3.723  1.00  0.00     0.012 A 
ENDBRANCH   6  29
TORSDOF 6
ENDMDL
MODEL 8
REMARK VINA RESULT:      -8.4      5.622      8.814
REMARK  6 active torsions:
REMARK  status: ('A' for Active; 'I' for Inactive)
REMARK    1  A    between atoms: C_2  and  O_3 
REMARK    2  A    between atoms: C_2  and  C_4 
REMARK    3  A    between atoms: C_6  and  N_7 
REMARK       I    between atoms: N_7  and  C_8 
REMARK    4  A    between atoms: C_8  and  C_9 
REMARK    5  A    between atoms: C_14  and  C_15 
REMARK    6  A    between atoms: C_23  and  C_24 
ROOT
HETATM    1  C   UNL     1      42.239 -14.513   1.272  1.00  0.00     0.148 A 
HETATM    2  N   UNL     1      42.280 -13.185   1.002  1.00  0.00    -0.165 NA
HETATM    3  N   UNL     1      41.802 -13.114  -0.256  1.00  0.00    -0.240 N 
HETATM    4  C   UNL     1      41.387 -14.312  -0.763  1.00  0.00     0.123 A 
HETATM    5  N   UNL     1      40.774 -14.391  -1.960  1.00  0.00    -0.366 N 
HETATM    6  C   UNL     1      40.299 -13.211  -2.680  1.00  0.00     0.118 C 
HETATM    7  C   UNL     1      40.325 -11.947  -1.791  1.00  0.00     0.066 C 
HETATM    8  C   UNL     1      41.608 -11.856  -0.948  1.00  0.00     0.221 C 
HETATM    9  C   UNL     1      41.711 -15.251   0.176  1.00  0.00     0.089 A 
HETATM   10  H   UNL     1      40.473 -15.289  -2.339  1.00  0.00     0.161 HD
ENDROOT
BRANCH   1  11
HETATM   11  C   UNL     1      42.660 -15.070   2.570  1.00  0.00     0.276 C 
HETATM   12  N   UNL     1      42.473 -16.437   2.634  1.00  0.00    -0.322 N 
HETATM   13  H   UNL     1      42.045 -16.826   1.800  1.00  0.00     0.169 HD
HETATM   14  O   UNL     1      43.125 -14.351   3.447  1.00  0.00    -0.266 OA
BRANCH  12  15
HETATM   15  C   UNL     1      42.804 -17.311   3.683  1.00  0.00     0.035 A 
HETATM   16  C   UNL     1      43.709 -18.368   3.555  1.00  0.00     0.039 A 
HETATM   17  C   UNL     1      43.996 -19.219   4.639  1.00  0.00    -0.028 A 
HETATM   18  C   UNL     1      43.364 -18.982   5.865  1.00  0.00     0.010 A 
HETATM   19  C   UNL     1      42.456 -17.933   6.002  1.00  0.00     0.003 A 
HETATM   20  C   UNL     1      42.176 -17.103   4.914  1.00  0.00     0.029 A 
BRANCH  17  21
HETATM   21  C   UNL     1      44.999 -20.338   4.457  1.00  0.00     0.147 C 
HETATM   22  C   UNL     1      44.686 -21.520   5.367  1.00  0.00     0.044 C 
BRANCH  21  23
HETATM   23  O   UNL     1      45.010 -20.785   3.102  1.00  0.00    -0.391 OA
HETATM   24  H   UNL     1      44.129 -21.153   2.920  1.00  0.00     0.210 HD
ENDBRANCH  21  23
ENDBRANCH  17  21
ENDBRANCH  12  15
ENDBRANCH   1  11
BRANCH   8  25
HETATM   25  C   UNL     1      42.829 -11.522  -1.772  1.00  0.00     0.409 C 
HETATM   26  F   UNL     1      42.518 -10.870  -2.914  1.00  0.00    -0.169 F 
HETATM   27  F   UNL     1      43.742 -10.782  -1.111  1.00  0.00    -0.169 F 
HETATM   28  F   UNL     1      43.456 -12.670  -2.142  1.00  0.00    -0.169 F 
ENDBRANCH   8  25
BRANCH   6  29
HETATM   29  C   UNL     1      38.900 -13.506  -3.199  1.00  0.00    -0.035 A 
HETATM   30  C   UNL     1      38.447 -14.832  -3.347  1.00  0.00     0.012 A 
HETATM   31  C   UNL     1      37.177 -15.101  -3.856  1.00  0.00     0.043 A 
HETATM   32  C   UNL     1      36.354 -14.046  -4.227  1.00  0.00     0.116 A 
HETATM   33  F   UNL     1      35.138 -14.302  -4.725  1.00  0.00    -0.206 F 
HETATM   34  C   UNL     1      36.778 -12.728  -4.096  1.00  0.00     0.043 A 
HETATM   35  C   UNL     1      38.049 -12.456  -3.583  1.00  0.00     0.012 A 
ENDBRANCH   6  29
TORSDOF 6
ENDMDL
MODEL 9
REMARK VINA RESULT:      -8.4      3.861      5.131
REMARK  6 active torsions:
REMARK  status: ('A' for Active; 'I' for Inactive)
REMARK    1  A    between atoms: C_2  and  O_3 
REMARK    2  A    between atoms: C_2  and  C_4 
REMARK    3  A    between atoms: C_6  and  N_7 
REMARK       I    between atoms: N_7  and  C_8 
REMARK    4  A    between atoms: C_8  and  C_9 
REMARK    5  A    between atoms: C_14  and  C_15 
REMARK    6  A    between atoms: C_23  and  C_24 
ROOT
HETATM    1  C   UNL     1      42.305 -14.359   5.362  1.00  0.00     0.148 A 
HETATM    2  N   UNL     1      43.286 -14.746   6.213  1.00  0.00    -0.165 NA
HETATM    3  N   UNL     1      43.261 -16.090   6.118  1.00  0.00    -0.240 N 
HETATM    4  C   UNL     1      42.375 -16.566   5.194  1.00  0.00     0.123 A 
HETATM    5  N   UNL     1      42.317 -17.878   4.892  1.00  0.00    -0.366 N 
HETATM    6  C   UNL     1      43.330 -18.834   5.335  1.00  0.00     0.118 C 
HETATM    7  C   UNL     1      44.574 -18.123   5.915  1.00  0.00     0.066 C 
HETATM    8  C   UNL     1      44.198 -16.941   6.823  1.00  0.00     0.221 C 
HETATM    9  C   UNL     1      41.695 -15.476   4.728  1.00  0.00     0.089 A 
HETATM   10  H   UNL     1      41.648 -18.231   4.208  1.00  0.00     0.161 HD
ENDROOT
BRANCH   1  11
HETATM   11  C   UNL     1      41.976 -12.941   5.125  1.00  0.00     0.276 C 
HETATM   12  N   UNL     1      41.279 -12.386   6.179  1.00  0.00    -0.322 N 
HETATM   13  H   UNL     1      41.075 -13.048   6.923  1.00  0.00     0.169 HD
HETATM   14  O   UNL     1      42.320 -12.376   4.094  1.00  0.00    -0.266 OA
BRANCH  12  15
HETATM   15  C   UNL     1      40.846 -11.058   6.332  1.00  0.00     0.035 A 
HETATM   16  C   UNL     1      39.685 -10.549   5.744  1.00  0.00     0.039 A 
HETATM   17  C   UNL     1      39.304  -9.206   5.924  1.00  0.00    -0.028 A 
HETATM   18  C   UNL     1      40.108  -8.380   6.719  1.00  0.00     0.010 A 
HETATM   19  C   UNL     1      41.270  -8.878   7.306  1.00  0.00     0.003 A 
HETATM   20  C   UNL     1      41.639 -10.211   7.111  1.00  0.00     0.029 A 
BRANCH  17  21
HETATM   21  C   UNL     1      38.027  -8.706   5.284  1.00  0.00     0.147 C 
HETATM   22  C   UNL     1      38.303  -7.577   4.297  1.00  0.00     0.044 C 
BRANCH  21  23
HETATM   23  O   UNL     1      37.361  -9.767   4.601  1.00  0.00    -0.391 OA
HETATM   24  H   UNL     1      36.418  -9.533   4.570  1.00  0.00     0.210 HD
ENDBRANCH  21  23
ENDBRANCH  17  21
ENDBRANCH  12  15
ENDBRANCH   1  11
BRANCH   8  25
HETATM   25  C   UNL     1      43.609 -17.379   8.143  1.00  0.00     0.409 C 
HETATM   26  F   UNL     1      42.309 -17.728   8.037  1.00  0.00    -0.169 F 
HETATM   27  F   UNL     1      44.267 -18.409   8.714  1.00  0.00    -0.169 F 
HETATM   28  F   UNL     1      43.660 -16.349   9.029  1.00  0.00    -0.169 F 
ENDBRANCH   8  25
BRANCH   6  29
HETATM   29  C   UNL     1      43.689 -19.723   4.154  1.00  0.00    -0.035 A 
HETATM   30  C   UNL     1      43.269 -19.398   2.849  1.00  0.00     0.012 A 
HETATM   31  C   UNL     1      43.568 -20.233   1.773  1.00  0.00     0.043 A 
HETATM   32  C   UNL     1      44.284 -21.402   1.996  1.00  0.00     0.116 A 
HETATM   33  F   UNL     1      44.563 -22.210   0.966  1.00  0.00    -0.206 F 
HETATM   34  C   UNL     1      44.705 -21.749   3.275  1.00  0.00     0.043 A 
HETATM   35  C   UNL     1      44.410 -20.912   4.354  1.00  0.00     0.012 A 
ENDBRANCH   6  29
TORSDOF 6
ENDMDL
MODEL 10
REMARK VINA RESULT:      -8.4      3.966      8.972
REMARK  6 active torsions:
REMARK  status: ('A' for Active; 'I' for Inactive)
REMARK    1  A    between atoms: C_2  and  O_3 
REMARK    2  A    between atoms: C_2  and  C_4 
REMARK    3  A    between atoms: C_6  and  N_7 
REMARK       I    between atoms: N_7  and  C_8 
REMARK    4  A    between atoms: C_8  and  C_9 
REMARK    5  A    between atoms: C_14  and  C_15 
REMARK    6  A    between atoms: C_23  and  C_24 
ROOT
HETATM    1  C   UNL     1      40.897 -14.962   4.324  1.00  0.00     0.148 A 
HETATM    2  N   UNL     1      41.067 -13.761   3.721  1.00  0.00    -0.165 NA
HETATM    3  N   UNL     1      40.625 -12.888   4.647  1.00  0.00    -0.240 N 
HETATM    4  C   UNL     1      40.261 -13.467   5.829  1.00  0.00     0.123 A 
HETATM    5  N   UNL     1      39.912 -12.721   6.896  1.00  0.00    -0.366 N 
HETATM    6  C   UNL     1      40.123 -11.275   6.947  1.00  0.00     0.118 C 
HETATM    7  C   UNL     1      41.027 -10.785   5.794  1.00  0.00     0.066 C 
HETATM    8  C   UNL     1      40.675 -11.452   4.455  1.00  0.00     0.221 C 
HETATM    9  C   UNL     1      40.367 -14.816   5.636  1.00  0.00     0.089 A 
HETATM   10  H   UNL     1      39.633 -13.157   7.774  1.00  0.00     0.161 HD
ENDROOT
BRANCH   1  11
HETATM   11  C   UNL     1      41.269 -16.233   3.676  1.00  0.00     0.276 C 
HETATM   12  N   UNL     1      42.498 -16.695   4.105  1.00  0.00    -0.322 N 
HETATM   13  H   UNL     1      42.958 -16.071   4.762  1.00  0.00     0.169 HD
HETATM   14  O   UNL     1      40.524 -16.773   2.866  1.00  0.00    -0.266 OA
BRANCH  12  15
HETATM   15  C   UNL     1      43.150 -17.889   3.751  1.00  0.00     0.035 A 
HETATM   16  C   UNL     1      43.612 -18.824   4.681  1.00  0.00     0.039 A 
HETATM   17  C   UNL     1      44.268 -20.000   4.268  1.00  0.00    -0.028 A 
HETATM   18  C   UNL     1      44.441 -20.227   2.898  1.00  0.00     0.010 A 
HETATM   19  C   UNL     1      43.987 -19.297   1.964  1.00  0.00     0.003 A 
HETATM   20  C   UNL     1      43.347 -18.132   2.389  1.00  0.00     0.029 A 
BRANCH  17  21
HETATM   21  C   UNL     1      44.732 -20.994   5.311  1.00  0.00     0.147 C 
HETATM   22  C   UNL     1      43.853 -20.947   6.555  1.00  0.00     0.044 C 
BRANCH  21  23
HETATM   23  O   UNL     1      44.716 -22.319   4.781  1.00  0.00    -0.391 OA
HETATM   24  H   UNL     1      45.238 -22.870   5.388  1.00  0.00     0.210 HD
ENDBRANCH  21  23
ENDBRANCH  17  21
ENDBRANCH  12  15
ENDBRANCH   1  11
BRANCH   8  25
HETATM   25  C   UNL     1      39.367 -10.959   3.880  1.00  0.00     0.409 C 
HETATM   26  F   UNL     1      38.329 -11.763   4.199  1.00  0.00    -0.169 F 
HETATM   27  F   UNL     1      39.048  -9.705   4.259  1.00  0.00    -0.169 F 
HETATM   28  F   UNL     1      39.443 -10.946   2.523  1.00  0.00    -0.169 F 
ENDBRANCH   8  25
BRANCH   6  29
HETATM   29  C   UNL     1      40.710 -10.932   8.308  1.00  0.00    -0.035 A 
HETATM   30  C   UNL     1      42.064 -10.564   8.441  1.00  0.00     0.012 A 
HETATM   31  C   UNL     1      42.610 -10.285   9.693  1.00  0.00     0.043 A 
HETATM   32  C   UNL     1      41.808 -10.379  10.822  1.00  0.00     0.116 A 
HETATM   33  F   UNL     1      42.332 -10.122  12.027  1.00  0.00    -0.206 F 
HETATM   34  C   UNL     1      40.470 -10.746  10.720  1.00  0.00     0.043 A 
HETATM   35  C   UNL     1      39.920 -11.022   9.466  1.00  0.00     0.012 A 
ENDBRANCH   6  29
TORSDOF 6
ENDMDL
