MODEL 1
REMARK VINA RESULT:      -9.1      0.000      0.000
REMARK  8 active torsions:
REMARK  status: ('A' for Active; 'I' for Inactive)
REMARK    1  A    between atoms: C_4  and  C_5 
REMARK    2  A    between atoms: C_5  and  N_6 
REMARK    3  A    between atoms: N_10  and  C_11 
REMARK    4  A    between atoms: C_13  and  N_14 
REMARK    5  A    between atoms: N_17  and  C_19 
REMARK    6  A    between atoms: C_19  and  C_20 
REMARK    7  A    between atoms: C_29  and  N_30 
REMARK    8  A    between atoms: C_31  and  N_32 
ROOT
HETATM    1  C   UNL     1      39.889 -12.938   4.146  1.00  0.00     0.181 A 
HETATM    2  N   UNL     1      40.148 -14.071   3.450  1.00  0.00    -0.042 NA
HETATM    3  C   UNL     1      39.930 -14.145   2.127  1.00  0.00     0.728 A 
HETATM    4  N   UNL     1      39.403 -13.144   1.424  1.00  0.00    -0.048 NA
HETATM    5  C   UNL     1      39.119 -12.006   2.076  1.00  0.00     0.157 A 
HETATM    6  C   UNL     1      39.335 -11.884   3.439  1.00  0.00     0.189 A 
ENDROOT
BRANCH   1   7
HETATM    7  N   UNL     1      40.228 -12.997   5.488  1.00  0.00    -0.360 N 
HETATM    8  C   UNL     1      39.340 -12.901   6.665  1.00  0.00     0.152 C 
HETATM    9  C   UNL     1      39.604 -11.592   7.453  1.00  0.00     0.255 C 
HETATM   10  N   UNL     1      41.091 -11.495   7.816  1.00  0.00    -0.064 N 
HETATM   11  H   UNL     1      41.285 -12.315   8.404  1.00  0.00     0.280 HD
HETATM   12  C   UNL     1      41.992 -11.652   6.595  1.00  0.00     0.255 C 
HETATM   13  C   UNL     1      41.666 -12.965   5.844  1.00  0.00     0.152 C 
BRANCH  10  14
HETATM   14  C   UNL     1      41.448 -10.311   8.698  1.00  0.00     0.273 C 
BRANCH  14  15
HETATM   15  C   UNL     1      41.998 -10.584  10.074  1.00  0.00    -0.033 A 
HETATM   16  C   UNL     1      43.357 -10.334  10.330  1.00  0.00     0.009 A 
HETATM   17  C   UNL     1      43.897 -10.534  11.602  1.00  0.00     0.001 A 
HETATM   18  C   UNL     1      43.089 -10.991  12.638  1.00  0.00     0.000 A 
HETATM   19  C   UNL     1      41.739 -11.232  12.406  1.00  0.00     0.001 A 
HETATM   20  C   UNL     1      41.192 -11.017  11.138  1.00  0.00     0.009 A 
ENDBRANCH  14  15
ENDBRANCH  10  14
ENDBRANCH   1   7
BRANCH   6  21
HETATM   21  N   UNL     1      39.097 -10.615   4.034  1.00  0.00    -0.108 N 
HETATM   22  O   UNL     1      37.947 -10.401   4.440  1.00  0.00    -0.532 OA
HETATM   23  O   UNL     1      40.028  -9.802   4.043  1.00  0.00    -0.532 OA
ENDBRANCH   6  21
BRANCH   3  24
HETATM   24  N   UNL     1      40.316 -15.308   1.471  1.00  0.00    -0.211 N 
HETATM   25  C   UNL     1      39.980 -16.575   2.141  1.00  0.00     0.169 C 
HETATM   26  C   UNL     1      41.055 -16.999   3.162  1.00  0.00     0.255 C 
HETATM   27  N   UNL     1      42.429 -17.021   2.483  1.00  0.00    -0.064 N 
HETATM   28  H   UNL     1      42.362 -17.694   1.709  1.00  0.00     0.280 HD
HETATM   29  C   UNL     1      42.753 -15.657   1.881  1.00  0.00     0.255 C 
HETATM   30  C   UNL     1      41.656 -15.244   0.869  1.00  0.00     0.169 C 
BRANCH  27  31
HETATM   31  C   UNL     1      43.525 -17.533   3.388  1.00  0.00     0.273 C 
BRANCH  31  32
HETATM   32  C   UNL     1      43.799 -18.999   3.184  1.00  0.00    -0.033 A 
HETATM   33  C   UNL     1      44.511 -19.733   4.146  1.00  0.00     0.009 A 
HETATM   34  C   UNL     1      44.805 -21.081   3.934  1.00  0.00     0.001 A 
HETATM   35  C   UNL     1      44.387 -21.710   2.764  1.00  0.00     0.000 A 
HETATM   36  C   UNL     1      43.668 -20.997   1.807  1.00  0.00     0.001 A 
HETATM   37  C   UNL     1      43.375 -19.648   2.014  1.00  0.00     0.009 A 
ENDBRANCH  31  32
ENDBRANCH  27  31
ENDBRANCH   3  24
BRANCH   5  38
HETATM   38  N   UNL     1      38.553 -11.018   1.279  1.00  0.00    -0.284 NA
HETATM   39  H   UNL     1      37.880 -10.467   1.805  1.00  0.00     0.125 HD
HETATM   40  H   UNL     1      38.155 -11.327   0.395  1.00  0.00     0.125 HD
ENDBRANCH   5  38
TORSDOF 8
ENDMDL
MODEL 2
REMARK VINA RESULT:      -9.1      3.992      7.974
REMARK  8 active torsions:
REMARK  status: ('A' for Active; 'I' for Inactive)
REMARK    1  A    between atoms: C_4  and  C_5 
REMARK    2  A    between atoms: C_5  and  N_6 
REMARK    3  A    between atoms: N_10  and  C_11 
REMARK    4  A    between atoms: C_13  and  N_14 
REMARK    5  A    between atoms: N_17  and  C_19 
REMARK    6  A    between atoms: C_19  and  C_20 
REMARK    7  A    between atoms: C_29  and  N_30 
REMARK    8  A    between atoms: C_31  and  N_32 
ROOT
HETATM    1  C   UNL     1      40.656 -14.304   3.509  1.00  0.00     0.181 A 
HETATM    2  N   UNL     1      39.519 -14.005   2.835  1.00  0.00    -0.042 NA
HETATM    3  C   UNL     1      39.186 -12.734   2.554  1.00  0.00     0.728 A 
HETATM    4  N   UNL     1      39.911 -11.691   2.955  1.00  0.00    -0.048 NA
HETATM    5  C   UNL     1      41.039 -11.941   3.637  1.00  0.00     0.157 A 
HETATM    6  C   UNL     1      41.424 -13.236   3.943  1.00  0.00     0.189 A 
ENDROOT
BRANCH   1   7
HETATM    7  N   UNL     1      40.893 -15.659   3.664  1.00  0.00    -0.360 N 
HETATM    8  C   UNL     1      40.960 -16.443   4.915  1.00  0.00     0.152 C 
HETATM    9  C   UNL     1      42.403 -16.951   5.173  1.00  0.00     0.255 C 
HETATM   10  N   UNL     1      42.906 -17.729   3.951  1.00  0.00    -0.064 N 
HETATM   11  H   UNL     1      42.260 -18.520   3.843  1.00  0.00     0.280 HD
HETATM   12  C   UNL     1      42.776 -16.923   2.663  1.00  0.00     0.255 C 
HETATM   13  C   UNL     1      41.321 -16.432   2.474  1.00  0.00     0.152 C 
BRANCH  10  14
HETATM   14  C   UNL     1      44.265 -18.381   4.136  1.00  0.00     0.273 C 
BRANCH  14  15
HETATM   15  C   UNL     1      44.373 -19.873   3.957  1.00  0.00    -0.033 A 
HETATM   16  C   UNL     1      44.190 -20.424   2.677  1.00  0.00     0.009 A 
HETATM   17  C   UNL     1      44.322 -21.798   2.460  1.00  0.00     0.001 A 
HETATM   18  C   UNL     1      44.636 -22.643   3.519  1.00  0.00     0.000 A 
HETATM   19  C   UNL     1      44.834 -22.114   4.790  1.00  0.00     0.001 A 
HETATM   20  C   UNL     1      44.718 -20.738   5.007  1.00  0.00     0.009 A 
ENDBRANCH  14  15
ENDBRANCH  10  14
ENDBRANCH   1   7
BRANCH   6  21
HETATM   21  N   UNL     1      42.679 -13.417   4.584  1.00  0.00    -0.108 N 
HETATM   22  O   UNL     1      42.676 -13.400   5.822  1.00  0.00    -0.532 OA
HETATM   23  O   UNL     1      43.681 -13.513   3.866  1.00  0.00    -0.532 OA
ENDBRANCH   6  21
BRANCH   3  24
HETATM   24  N   UNL     1      38.057 -12.518   1.772  1.00  0.00    -0.211 N 
HETATM   25  C   UNL     1      37.599 -13.659   0.962  1.00  0.00     0.169 C 
HETATM   26  C   UNL     1      38.316 -13.735  -0.400  1.00  0.00     0.255 C 
HETATM   27  N   UNL     1      38.188 -12.391  -1.124  1.00  0.00    -0.064 N 
HETATM   28  H   UNL     1      37.182 -12.217  -1.241  1.00  0.00     0.280 HD
HETATM   29  C   UNL     1      38.756 -11.263  -0.268  1.00  0.00     0.255 C 
HETATM   30  C   UNL     1      38.031 -11.212   1.099  1.00  0.00     0.169 C 
BRANCH  27  31
HETATM   31  C   UNL     1      38.772 -12.415  -2.518  1.00  0.00     0.273 C 
BRANCH  31  32
HETATM   32  C   UNL     1      39.099 -13.810  -2.978  1.00  0.00    -0.033 A 
HETATM   33  C   UNL     1      38.130 -14.595  -3.624  1.00  0.00     0.009 A 
HETATM   34  C   UNL     1      38.420 -15.904  -4.009  1.00  0.00     0.001 A 
HETATM   35  C   UNL     1      39.681 -16.441  -3.760  1.00  0.00     0.000 A 
HETATM   36  C   UNL     1      40.656 -15.669  -3.132  1.00  0.00     0.001 A 
HETATM   37  C   UNL     1      40.369 -14.360  -2.742  1.00  0.00     0.009 A 
ENDBRANCH  31  32
ENDBRANCH  27  31
ENDBRANCH   3  24
BRANCH   5  38
HETATM   38  N   UNL     1      41.726 -10.801   4.039  1.00  0.00    -0.284 NA
HETATM   39  H   UNL     1      42.731 -10.951   4.003  1.00  0.00     0.125 HD
HETATM   40  H   UNL     1      41.451 -10.403   4.934  1.00  0.00     0.125 HD
ENDBRANCH   5  38
TORSDOF 8
ENDMDL
MODEL 3
REMARK VINA RESULT:      -9.0      3.499      7.647
REMARK  8 active torsions:
REMARK  status: ('A' for Active; 'I' for Inactive)
REMARK    1  A    between atoms: C_4  and  C_5 
REMARK    2  A    between atoms: C_5  and  N_6 
REMARK    3  A    between atoms: N_10  and  C_11 
REMARK    4  A    between atoms: C_13  and  N_14 
REMARK    5  A    between atoms: N_17  and  C_19 
REMARK    6  A    between atoms: C_19  and  C_20 
REMARK    7  A    between atoms: C_29  and  N_30 
REMARK    8  A    between atoms: C_31  and  N_32 
ROOT
HETATM    1  C   UNL     1      41.059 -14.126   3.654  1.00  0.00     0.181 A 
HETATM    2  N   UNL     1      41.399 -15.223   4.374  1.00  0.00    -0.042 NA
HETATM    3  C   UNL     1      40.866 -15.459   5.584  1.00  0.00     0.728 A 
HETATM    4  N   UNL     1      40.017 -14.620   6.176  1.00  0.00    -0.048 NA
HETATM    5  C   UNL     1      39.662 -13.514   5.504  1.00  0.00     0.157 A 
HETATM    6  C   UNL     1      40.182 -13.236   4.250  1.00  0.00     0.189 A 
ENDROOT
BRANCH   1   7
HETATM    7  N   UNL     1      41.643 -14.058   2.400  1.00  0.00    -0.360 N 
HETATM    8  C   UNL     1      42.367 -12.926   1.785  1.00  0.00     0.152 C 
HETATM    9  C   UNL     1      41.568 -12.341   0.592  1.00  0.00     0.255 C 
HETATM   10  N   UNL     1      41.237 -13.454  -0.409  1.00  0.00    -0.064 N 
HETATM   11  H   UNL     1      42.144 -13.818  -0.727  1.00  0.00     0.280 HD
HETATM   12  C   UNL     1      40.540 -14.636   0.257  1.00  0.00     0.255 C 
HETATM   13  C   UNL     1      41.377 -15.161   1.447  1.00  0.00     0.152 C 
BRANCH  10  14
HETATM   14  C   UNL     1      40.561 -12.977  -1.682  1.00  0.00     0.273 C 
BRANCH  14  15
HETATM   15  C   UNL     1      39.735 -13.962  -2.467  1.00  0.00    -0.033 A 
HETATM   16  C   UNL     1      38.339 -13.800  -2.515  1.00  0.00     0.009 A 
HETATM   17  C   UNL     1      37.541 -14.667  -3.265  1.00  0.00     0.001 A 
HETATM   18  C   UNL     1      38.123 -15.712  -3.974  1.00  0.00     0.000 A 
HETATM   19  C   UNL     1      39.504 -15.881  -3.947  1.00  0.00     0.001 A 
HETATM   20  C   UNL     1      40.306 -15.005  -3.212  1.00  0.00     0.009 A 
ENDBRANCH  14  15
ENDBRANCH  10  14
ENDBRANCH   1   7
BRANCH   6  21
HETATM   21  N   UNL     1      39.682 -12.094   3.568  1.00  0.00    -0.108 N 
HETATM   22  O   UNL     1      40.228 -11.013   3.822  1.00  0.00    -0.532 OA
HETATM   23  O   UNL     1      38.705 -12.251   2.827  1.00  0.00    -0.532 OA
ENDBRANCH   6  21
BRANCH   3  24
HETATM   24  N   UNL     1      41.191 -16.655   6.213  1.00  0.00    -0.211 N 
HETATM   25  C   UNL     1      42.423 -16.653   7.018  1.00  0.00     0.169 C 
HETATM   26  C   UNL     1      43.676 -16.958   6.171  1.00  0.00     0.255 C 
HETATM   27  N   UNL     1      43.465 -18.260   5.393  1.00  0.00    -0.064 N 
HETATM   28  H   UNL     1      43.299 -18.995   6.091  1.00  0.00     0.280 HD
HETATM   29  C   UNL     1      42.220 -18.168   4.516  1.00  0.00     0.255 C 
HETATM   30  C   UNL     1      40.977 -17.849   5.382  1.00  0.00     0.169 C 
BRANCH  27  31
HETATM   31  C   UNL     1      44.691 -18.689   4.620  1.00  0.00     0.273 C 
BRANCH  31  32
HETATM   32  C   UNL     1      44.636 -20.137   4.214  1.00  0.00    -0.033 A 
HETATM   33  C   UNL     1      44.783 -21.153   5.173  1.00  0.00     0.009 A 
HETATM   34  C   UNL     1      44.778 -22.495   4.789  1.00  0.00     0.001 A 
HETATM   35  C   UNL     1      44.620 -22.836   3.448  1.00  0.00     0.000 A 
HETATM   36  C   UNL     1      44.460 -21.838   2.489  1.00  0.00     0.001 A 
HETATM   37  C   UNL     1      44.467 -20.495   2.868  1.00  0.00     0.009 A 
ENDBRANCH  31  32
ENDBRANCH  27  31
ENDBRANCH   3  24
BRANCH   5  38
HETATM   38  N   UNL     1      38.792 -12.681   6.197  1.00  0.00    -0.284 NA
HETATM   39  H   UNL     1      38.850 -12.846   7.199  1.00  0.00     0.125 HD
HETATM   40  H   UNL     1      37.823 -12.683   5.886  1.00  0.00     0.125 HD
ENDBRANCH   5  38
TORSDOF 8
ENDMDL
MODEL 4
REMARK VINA RESULT:      -8.9      1.695      3.005
REMARK  8 active torsions:
REMARK  status: ('A' for Active; 'I' for Inactive)
REMARK    1  A    between atoms: C_4  and  C_5 
REMARK    2  A    between atoms: C_5  and  N_6 
REMARK    3  A    between atoms: N_10  and  C_11 
REMARK    4  A    between atoms: C_13  and  N_14 
REMARK    5  A    between atoms: N_17  and  C_19 
REMARK    6  A    between atoms: C_19  and  C_20 
REMARK    7  A    between atoms: C_29  and  N_30 
REMARK    8  A    between atoms: C_31  and  N_32 
ROOT
HETATM    1  C   UNL     1      40.784 -10.918   5.914  1.00  0.00     0.181 A 
HETATM    2  N   UNL     1      41.717 -11.900   5.883  1.00  0.00    -0.042 NA
HETATM    3  C   UNL     1      41.996 -12.566   4.751  1.00  0.00     0.728 A 
HETATM    4  N   UNL     1      41.350 -12.349   3.606  1.00  0.00    -0.048 NA
HETATM    5  C   UNL     1      40.408 -11.393   3.594  1.00  0.00     0.157 A 
HETATM    6  C   UNL     1      40.094 -10.676   4.738  1.00  0.00     0.189 A 
ENDROOT
BRANCH   1   7
HETATM    7  N   UNL     1      40.658 -10.282   7.137  1.00  0.00    -0.360 N 
HETATM    8  C   UNL     1      41.679  -9.518   7.885  1.00  0.00     0.152 C 
HETATM    9  C   UNL     1      42.081 -10.259   9.186  1.00  0.00     0.255 C 
HETATM   10  N   UNL     1      40.831 -10.562  10.021  1.00  0.00    -0.064 N 
HETATM   11  H   UNL     1      40.417  -9.648  10.240  1.00  0.00     0.280 HD
HETATM   12  C   UNL     1      39.768 -11.301   9.214  1.00  0.00     0.255 C 
HETATM   13  C   UNL     1      39.425 -10.522   7.923  1.00  0.00     0.152 C 
BRANCH  10  14
HETATM   14  C   UNL     1      41.114 -11.179  11.379  1.00  0.00     0.273 C 
BRANCH  14  15
HETATM   15  C   UNL     1      41.590 -10.278  12.489  1.00  0.00    -0.033 A 
HETATM   16  C   UNL     1      40.643  -9.555  13.236  1.00  0.00     0.009 A 
HETATM   17  C   UNL     1      41.038  -8.741  14.300  1.00  0.00     0.001 A 
HETATM   18  C   UNL     1      42.385  -8.633  14.631  1.00  0.00     0.000 A 
HETATM   19  C   UNL     1      43.334  -9.351  13.911  1.00  0.00     0.001 A 
HETATM   20  C   UNL     1      42.940 -10.179  12.857  1.00  0.00     0.009 A 
ENDBRANCH  14  15
ENDBRANCH  10  14
ENDBRANCH   1   7
BRANCH   6  21
HETATM   21  N   UNL     1      39.153  -9.618   4.616  1.00  0.00    -0.108 N 
HETATM   22  O   UNL     1      37.959  -9.922   4.734  1.00  0.00    -0.532 OA
HETATM   23  O   UNL     1      39.587  -8.495   4.338  1.00  0.00    -0.532 OA
ENDBRANCH   6  21
BRANCH   3  24
HETATM   24  N   UNL     1      43.035 -13.488   4.781  1.00  0.00    -0.211 N 
HETATM   25  C   UNL     1      43.550 -13.931   3.474  1.00  0.00     0.169 C 
HETATM   26  C   UNL     1      42.746 -15.114   2.899  1.00  0.00     0.255 C 
HETATM   27  N   UNL     1      42.679 -16.241   3.934  1.00  0.00    -0.064 N 
HETATM   28  H   UNL     1      43.649 -16.512   4.135  1.00  0.00     0.280 HD
HETATM   29  C   UNL     1      42.061 -15.740   5.236  1.00  0.00     0.255 C 
HETATM   30  C   UNL     1      42.874 -14.545   5.790  1.00  0.00     0.169 C 
BRANCH  27  31
HETATM   31  C   UNL     1      42.000 -17.484   3.407  1.00  0.00     0.273 C 
BRANCH  31  32
HETATM   32  C   UNL     1      42.954 -18.638   3.254  1.00  0.00    -0.033 A 
HETATM   33  C   UNL     1      42.929 -19.437   2.100  1.00  0.00     0.009 A 
HETATM   34  C   UNL     1      43.783 -20.535   1.979  1.00  0.00     0.001 A 
HETATM   35  C   UNL     1      44.673 -20.842   3.005  1.00  0.00     0.000 A 
HETATM   36  C   UNL     1      44.718 -20.049   4.150  1.00  0.00     0.001 A 
HETATM   37  C   UNL     1      43.864 -18.952   4.276  1.00  0.00     0.009 A 
ENDBRANCH  31  32
ENDBRANCH  27  31
ENDBRANCH   3  24
BRANCH   5  38
HETATM   38  N   UNL     1      39.765 -11.242   2.371  1.00  0.00    -0.284 NA
HETATM   39  H   UNL     1      40.435 -11.239   1.606  1.00  0.00     0.125 HD
HETATM   40  H   UNL     1      39.124 -10.456   2.294  1.00  0.00     0.125 HD
ENDBRANCH   5  38
TORSDOF 8
ENDMDL
MODEL 5
REMARK VINA RESULT:      -8.9      1.864      2.540
REMARK  8 active torsions:
REMARK  status: ('A' for Active; 'I' for Inactive)
REMARK    1  A    between atoms: C_4  and  C_5 
REMARK    2  A    between atoms: C_5  and  N_6 
REMARK    3  A    between atoms: N_10  and  C_11 
REMARK    4  A    between atoms: C_13  and  N_14 
REMARK    5  A    between atoms: N_17  and  C_19 
REMARK    6  A    between atoms: C_19  and  C_20 
REMARK    7  A    between atoms: C_29  and  N_30 
REMARK    8  A    between atoms: C_31  and  N_32 
ROOT
HETATM    1  C   UNL     1      40.118 -13.583   3.801  1.00  0.00     0.181 A 
HETATM    2  N   UNL     1      40.376 -14.722   3.113  1.00  0.00    -0.042 NA
HETATM    3  C   UNL     1      39.996 -14.868   1.833  1.00  0.00     0.728 A 
HETATM    4  N   UNL     1      39.303 -13.940   1.174  1.00  0.00    -0.048 NA
HETATM    5  C   UNL     1      39.014 -12.801   1.822  1.00  0.00     0.157 A 
HETATM    6  C   UNL     1      39.394 -12.605   3.140  1.00  0.00     0.189 A 
ENDROOT
BRANCH   1   7
HETATM    7  N   UNL     1      40.630 -13.560   5.087  1.00  0.00    -0.360 N 
HETATM    8  C   UNL     1      41.192 -12.414   5.831  1.00  0.00     0.152 C 
HETATM    9  C   UNL     1      42.716 -12.596   6.060  1.00  0.00     0.255 C 
HETATM   10  N   UNL     1      42.982 -13.941   6.744  1.00  0.00    -0.064 N 
HETATM   11  H   UNL     1      42.485 -13.897   7.643  1.00  0.00     0.280 HD
HETATM   12  C   UNL     1      42.346 -15.105   5.990  1.00  0.00     0.255 C 
HETATM   13  C   UNL     1      40.834 -14.855   5.779  1.00  0.00     0.152 C 
BRANCH  10  14
HETATM   14  C   UNL     1      44.432 -14.176   7.130  1.00  0.00     0.273 C 
BRANCH  14  15
HETATM   15  C   UNL     1      45.131 -13.127   7.955  1.00  0.00    -0.033 A 
HETATM   16  C   UNL     1      46.379 -12.641   7.527  1.00  0.00     0.009 A 
HETATM   17  C   UNL     1      47.042 -11.639   8.239  1.00  0.00     0.001 A 
HETATM   18  C   UNL     1      46.471 -11.110   9.392  1.00  0.00     0.000 A 
HETATM   19  C   UNL     1      45.231 -11.570   9.823  1.00  0.00     0.001 A 
HETATM   20  C   UNL     1      44.558 -12.560   9.103  1.00  0.00     0.009 A 
ENDBRANCH  14  15
ENDBRANCH  10  14
ENDBRANCH   1   7
BRANCH   6  21
HETATM   21  N   UNL     1      39.132 -11.335   3.720  1.00  0.00    -0.108 N 
HETATM   22  O   UNL     1      38.139 -11.255   4.455  1.00  0.00    -0.532 OA
HETATM   23  O   UNL     1      39.869 -10.395   3.400  1.00  0.00    -0.532 OA
ENDBRANCH   6  21
BRANCH   3  24
HETATM   24  N   UNL     1      40.387 -16.024   1.169  1.00  0.00    -0.211 N 
HETATM   25  C   UNL     1      40.214 -17.287   1.905  1.00  0.00     0.169 C 
HETATM   26  C   UNL     1      41.420 -17.606   2.812  1.00  0.00     0.255 C 
HETATM   27  N   UNL     1      42.709 -17.561   1.986  1.00  0.00    -0.064 N 
HETATM   28  H   UNL     1      42.606 -18.263   1.243  1.00  0.00     0.280 HD
HETATM   29  C   UNL     1      42.872 -16.199   1.316  1.00  0.00     0.255 C 
HETATM   30  C   UNL     1      41.646 -15.893   0.422  1.00  0.00     0.169 C 
BRANCH  27  31
HETATM   31  C   UNL     1      43.930 -17.970   2.777  1.00  0.00     0.273 C 
BRANCH  31  32
HETATM   32  C   UNL     1      44.100 -19.464   2.838  1.00  0.00    -0.033 A 
HETATM   33  C   UNL     1      43.654 -20.277   1.783  1.00  0.00     0.009 A 
HETATM   34  C   UNL     1      43.770 -21.665   1.861  1.00  0.00     0.001 A 
HETATM   35  C   UNL     1      44.337 -22.256   2.988  1.00  0.00     0.000 A 
HETATM   36  C   UNL     1      44.796 -21.460   4.035  1.00  0.00     0.001 A 
HETATM   37  C   UNL     1      44.679 -20.071   3.963  1.00  0.00     0.009 A 
ENDBRANCH  31  32
ENDBRANCH  27  31
ENDBRANCH   3  24
BRANCH   5  38
HETATM   38  N   UNL     1      38.272 -11.893   1.075  1.00  0.00    -0.284 NA
HETATM   39  H   UNL     1      37.290 -12.156   1.054  1.00  0.00     0.125 HD
HETATM   40  H   UNL     1      38.614 -11.697   0.137  1.00  0.00     0.125 HD
ENDBRANCH   5  38
TORSDOF 8
ENDMDL
MODEL 6
REMARK VINA RESULT:      -8.8      1.828      9.140
REMARK  8 active torsions:
REMARK  status: ('A' for Active; 'I' for Inactive)
REMARK    1  A    between atoms: C_4  and  C_5 
REMARK    2  A    between atoms: C_5  and  N_6 
REMARK    3  A    between atoms: N_10  and  C_11 
REMARK    4  A    between atoms: C_13  and  N_14 
REMARK    5  A    between atoms: N_17  and  C_19 
REMARK    6  A    between atoms: C_19  and  C_20 
REMARK    7  A    between atoms: C_29  and  N_30 
REMARK    8  A    between atoms: C_31  and  N_32 
ROOT
HETATM    1  C   UNL     1      40.601 -12.369   5.018  1.00  0.00     0.181 A 
HETATM    2  N   UNL     1      40.520 -11.573   6.112  1.00  0.00    -0.042 NA
HETATM    3  C   UNL     1      39.581 -10.619   6.216  1.00  0.00     0.728 A 
HETATM    4  N   UNL     1      38.708 -10.354   5.244  1.00  0.00    -0.048 NA
HETATM    5  C   UNL     1      38.760 -11.110   4.137  1.00  0.00     0.157 A 
HETATM    6  C   UNL     1      39.708 -12.110   3.992  1.00  0.00     0.189 A 
ENDROOT
BRANCH   1   7
HETATM    7  N   UNL     1      41.578 -13.347   5.089  1.00  0.00    -0.360 N 
HETATM    8  C   UNL     1      42.920 -13.352   4.470  1.00  0.00     0.152 C 
HETATM    9  C   UNL     1      43.014 -14.432   3.361  1.00  0.00     0.255 C 
HETATM   10  N   UNL     1      42.613 -15.798   3.931  1.00  0.00    -0.064 N 
HETATM   11  H   UNL     1      43.287 -15.992   4.682  1.00  0.00     0.280 HD
HETATM   12  C   UNL     1      41.250 -15.758   4.614  1.00  0.00     0.255 C 
HETATM   13  C   UNL     1      41.215 -14.651   5.694  1.00  0.00     0.152 C 
BRANCH  10  14
HETATM   14  C   UNL     1      42.785 -16.958   2.966  1.00  0.00     0.273 C 
BRANCH  14  15
HETATM   15  C   UNL     1      43.583 -18.153   3.419  1.00  0.00    -0.033 A 
HETATM   16  C   UNL     1      43.952 -18.257   4.771  1.00  0.00     0.009 A 
HETATM   17  C   UNL     1      44.656 -19.368   5.241  1.00  0.00     0.001 A 
HETATM   18  C   UNL     1      45.006 -20.391   4.366  1.00  0.00     0.000 A 
HETATM   19  C   UNL     1      44.638 -20.311   3.026  1.00  0.00     0.001 A 
HETATM   20  C   UNL     1      43.919 -19.209   2.558  1.00  0.00     0.009 A 
ENDBRANCH  14  15
ENDBRANCH  10  14
ENDBRANCH   1   7
BRANCH   6  21
HETATM   21  N   UNL     1      39.634 -12.925   2.830  1.00  0.00    -0.108 N 
HETATM   22  O   UNL     1      40.250 -12.527   1.833  1.00  0.00    -0.532 OA
HETATM   23  O   UNL     1      38.913 -13.929   2.878  1.00  0.00    -0.532 OA
ENDBRANCH   6  21
BRANCH   3  24
HETATM   24  N   UNL     1      39.502  -9.914   7.411  1.00  0.00    -0.211 N 
HETATM   25  C   UNL     1      40.580  -8.944   7.667  1.00  0.00     0.169 C 
HETATM   26  C   UNL     1      41.809  -9.597   8.332  1.00  0.00     0.255 C 
HETATM   27  N   UNL     1      41.370 -10.356   9.588  1.00  0.00    -0.064 N 
HETATM   28  H   UNL     1      40.932  -9.666  10.210  1.00  0.00     0.280 HD
HETATM   29  C   UNL     1      40.313 -11.402   9.243  1.00  0.00     0.255 C 
HETATM   30  C   UNL     1      39.095 -10.729   8.565  1.00  0.00     0.169 C 
BRANCH  27  31
HETATM   31  C   UNL     1      42.532 -10.936  10.361  1.00  0.00     0.273 C 
BRANCH  31  32
HETATM   32  C   UNL     1      42.508 -10.540  11.813  1.00  0.00    -0.033 A 
HETATM   33  C   UNL     1      41.469 -10.970  12.653  1.00  0.00     0.009 A 
HETATM   34  C   UNL     1      41.423 -10.564  13.988  1.00  0.00     0.001 A 
HETATM   35  C   UNL     1      42.417  -9.732  14.498  1.00  0.00     0.000 A 
HETATM   36  C   UNL     1      43.461  -9.310  13.678  1.00  0.00     0.001 A 
HETATM   37  C   UNL     1      43.509  -9.710  12.342  1.00  0.00     0.009 A 
ENDBRANCH  31  32
ENDBRANCH  27  31
ENDBRANCH   3  24
BRANCH   5  38
HETATM   38  N   UNL     1      37.833 -10.759   3.163  1.00  0.00    -0.284 NA
HETATM   39  H   UNL     1      38.222 -10.876   2.231  1.00  0.00     0.125 HD
HETATM   40  H   UNL     1      37.402  -9.842   3.262  1.00  0.00     0.125 HD
ENDBRANCH   5  38
TORSDOF 8
ENDMDL
MODEL 7
REMARK VINA RESULT:      -8.8      3.766      8.512
REMARK  8 active torsions:
REMARK  status: ('A' for Active; 'I' for Inactive)
REMARK    1  A    between atoms: C_4  and  C_5 
REMARK    2  A    between atoms: C_5  and  N_6 
REMARK    3  A    between atoms: N_10  and  C_11 
REMARK    4  A    between atoms: C_13  and  N_14 
REMARK    5  A    between atoms: N_17  and  C_19 
REMARK    6  A    between atoms: C_19  and  C_20 
REMARK    7  A    between atoms: C_29  and  N_30 
REMARK    8  A    between atoms: C_31  and  N_32 
ROOT
HETATM    1  C   UNL     1      40.717 -14.059   3.517  1.00  0.00     0.181 A 
HETATM    2  N   UNL     1      40.373 -14.067   2.206  1.00  0.00    -0.042 NA
HETATM    3  C   UNL     1      39.461 -13.211   1.717  1.00  0.00     0.728 A 
HETATM    4  N   UNL     1      38.800 -12.343   2.481  1.00  0.00    -0.048 NA
HETATM    5  C   UNL     1      39.100 -12.310   3.789  1.00  0.00     0.157 A 
HETATM    6  C   UNL     1      40.040 -13.169   4.334  1.00  0.00     0.189 A 
ENDROOT
BRANCH   1   7
HETATM    7  N   UNL     1      41.718 -14.954   3.855  1.00  0.00    -0.360 N 
HETATM    8  C   UNL     1      43.168 -14.854   3.589  1.00  0.00     0.152 C 
HETATM    9  C   UNL     1      43.619 -15.930   2.567  1.00  0.00     0.255 C 
HETATM   10  N   UNL     1      43.195 -17.321   3.055  1.00  0.00    -0.064 N 
HETATM   11  H   UNL     1      43.672 -17.455   3.954  1.00  0.00     0.280 HD
HETATM   12  C   UNL     1      41.705 -17.387   3.377  1.00  0.00     0.255 C 
HETATM   13  C   UNL     1      41.317 -16.279   4.384  1.00  0.00     0.152 C 
BRANCH  10  14
HETATM   14  C   UNL     1      43.691 -18.469   2.194  1.00  0.00     0.273 C 
BRANCH  14  15
HETATM   15  C   UNL     1      44.037 -19.771   2.868  1.00  0.00    -0.033 A 
HETATM   16  C   UNL     1      44.021 -20.958   2.114  1.00  0.00     0.009 A 
HETATM   17  C   UNL     1      44.376 -22.180   2.690  1.00  0.00     0.001 A 
HETATM   18  C   UNL     1      44.747 -22.237   4.029  1.00  0.00     0.000 A 
HETATM   19  C   UNL     1      44.780 -21.071   4.787  1.00  0.00     0.001 A 
HETATM   20  C   UNL     1      44.442 -19.845   4.209  1.00  0.00     0.009 A 
ENDBRANCH  14  15
ENDBRANCH  10  14
ENDBRANCH   1   7
BRANCH   6  21
HETATM   21  N   UNL     1      40.366 -13.004   5.708  1.00  0.00    -0.108 N 
HETATM   22  O   UNL     1      39.666 -13.620   6.521  1.00  0.00    -0.532 OA
HETATM   23  O   UNL     1      41.274 -12.214   5.990  1.00  0.00    -0.532 OA
ENDBRANCH   6  21
BRANCH   3  24
HETATM   24  N   UNL     1      39.239 -13.216   0.344  1.00  0.00    -0.211 N 
HETATM   25  C   UNL     1      39.932 -14.264  -0.423  1.00  0.00     0.169 C 
HETATM   26  C   UNL     1      41.360 -13.845  -0.828  1.00  0.00     0.255 C 
HETATM   27  N   UNL     1      41.313 -12.497  -1.555  1.00  0.00    -0.064 N 
HETATM   28  H   UNL     1      40.714 -12.629  -2.379  1.00  0.00     0.280 HD
HETATM   29  C   UNL     1      40.659 -11.435  -0.675  1.00  0.00     0.255 C 
HETATM   30  C   UNL     1      39.233 -11.879  -0.269  1.00  0.00     0.169 C 
BRANCH  27  31
HETATM   31  C   UNL     1      42.661 -12.067  -2.083  1.00  0.00     0.273 C 
BRANCH  31  32
HETATM   32  C   UNL     1      42.551 -10.978  -3.116  1.00  0.00    -0.033 A 
HETATM   33  C   UNL     1      42.726  -9.632  -2.756  1.00  0.00     0.009 A 
HETATM   34  C   UNL     1      42.577  -8.619  -3.706  1.00  0.00     0.001 A 
HETATM   35  C   UNL     1      42.259  -8.940  -5.023  1.00  0.00     0.000 A 
HETATM   36  C   UNL     1      42.095 -10.272  -5.396  1.00  0.00     0.001 A 
HETATM   37  C   UNL     1      42.240 -11.288  -4.449  1.00  0.00     0.009 A 
ENDBRANCH  31  32
ENDBRANCH  27  31
ENDBRANCH   3  24
BRANCH   5  38
HETATM   38  N   UNL     1      38.353 -11.394   4.521  1.00  0.00    -0.284 NA
HETATM   39  H   UNL     1      37.374 -11.666   4.554  1.00  0.00     0.125 HD
HETATM   40  H   UNL     1      38.449 -10.418   4.252  1.00  0.00     0.125 HD
ENDBRANCH   5  38
TORSDOF 8
ENDMDL
MODEL 8
REMARK VINA RESULT:      -8.8      3.124      4.717
REMARK  8 active torsions:
REMARK  status: ('A' for Active; 'I' for Inactive)
REMARK    1  A    between atoms: C_4  and  C_5 
REMARK    2  A    between atoms: C_5  and  N_6 
REMARK    3  A    between atoms: N_10  and  C_11 
REMARK    4  A    between atoms: C_13  and  N_14 
REMARK    5  A    between atoms: N_17  and  C_19 
REMARK    6  A    between atoms: C_19  and  C_20 
REMARK    7  A    between atoms: C_29  and  N_30 
REMARK    8  A    between atoms: C_31  and  N_32 
ROOT
HETATM    1  C   UNL     1      42.111 -11.270   7.752  1.00  0.00     0.181 A 
HETATM    2  N   UNL     1      41.803 -11.881   6.582  1.00  0.00    -0.042 NA
HETATM    3  C   UNL     1      42.564 -12.870   6.087  1.00  0.00     0.728 A 
HETATM    4  N   UNL     1      43.688 -13.281   6.673  1.00  0.00    -0.048 NA
HETATM    5  C   UNL     1      44.039 -12.694   7.828  1.00  0.00     0.157 A 
HETATM    6  C   UNL     1      43.278 -11.675   8.379  1.00  0.00     0.189 A 
ENDROOT
BRANCH   1   7
HETATM    7  N   UNL     1      41.195 -10.317   8.163  1.00  0.00    -0.360 N 
HETATM    8  C   UNL     1      41.265  -8.849   8.010  1.00  0.00     0.152 C 
HETATM    9  C   UNL     1      41.435  -8.156   9.387  1.00  0.00     0.255 C 
HETATM   10  N   UNL     1      40.319  -8.605  10.336  1.00  0.00    -0.064 N 
HETATM   11  H   UNL     1      39.441  -8.310   9.890  1.00  0.00     0.280 HD
HETATM   12  C   UNL     1      40.227 -10.124  10.437  1.00  0.00     0.255 C 
HETATM   13  C   UNL     1      40.077 -10.755   9.032  1.00  0.00     0.152 C 
BRANCH  10  14
HETATM   14  C   UNL     1      40.311  -7.897  11.680  1.00  0.00     0.273 C 
BRANCH  14  15
HETATM   15  C   UNL     1      41.175  -8.447  12.784  1.00  0.00    -0.033 A 
HETATM   16  C   UNL     1      40.577  -8.818  14.001  1.00  0.00     0.009 A 
HETATM   17  C   UNL     1      41.336  -9.371  15.035  1.00  0.00     0.001 A 
HETATM   18  C   UNL     1      42.704  -9.557  14.871  1.00  0.00     0.000 A 
HETATM   19  C   UNL     1      43.311  -9.208  13.669  1.00  0.00     0.001 A 
HETATM   20  C   UNL     1      42.552  -8.670  12.627  1.00  0.00     0.009 A 
ENDBRANCH  14  15
ENDBRANCH  10  14
ENDBRANCH   1   7
BRANCH   6  21
HETATM   21  N   UNL     1      43.668 -11.175   9.650  1.00  0.00    -0.108 N 
HETATM   22  O   UNL     1      44.488 -10.248   9.653  1.00  0.00    -0.532 OA
HETATM   23  O   UNL     1      43.214 -11.739  10.652  1.00  0.00    -0.532 OA
ENDBRANCH   6  21
BRANCH   3  24
HETATM   24  N   UNL     1      42.124 -13.511   4.935  1.00  0.00    -0.211 N 
HETATM   25  C   UNL     1      40.806 -14.161   5.016  1.00  0.00     0.169 C 
HETATM   26  C   UNL     1      40.894 -15.596   5.574  1.00  0.00     0.255 C 
HETATM   27  N   UNL     1      41.914 -16.401   4.764  1.00  0.00    -0.064 N 
HETATM   28  H   UNL     1      41.583 -16.398   3.791  1.00  0.00     0.280 HD
HETATM   29  C   UNL     1      43.279 -15.718   4.788  1.00  0.00     0.255 C 
HETATM   30  C   UNL     1      43.167 -14.276   4.236  1.00  0.00     0.169 C 
BRANCH  27  31
HETATM   31  C   UNL     1      41.982 -17.852   5.177  1.00  0.00     0.273 C 
BRANCH  31  32
HETATM   32  C   UNL     1      42.914 -18.653   4.309  1.00  0.00    -0.033 A 
HETATM   33  C   UNL     1      42.727 -18.704   2.918  1.00  0.00     0.009 A 
HETATM   34  C   UNL     1      43.564 -19.484   2.119  1.00  0.00     0.001 A 
HETATM   35  C   UNL     1      44.598 -20.216   2.698  1.00  0.00     0.000 A 
HETATM   36  C   UNL     1      44.802 -20.165   4.075  1.00  0.00     0.001 A 
HETATM   37  C   UNL     1      43.965 -19.388   4.879  1.00  0.00     0.009 A 
ENDBRANCH  31  32
ENDBRANCH  27  31
ENDBRANCH   3  24
BRANCH   5  38
HETATM   38  N   UNL     1      45.232 -13.162   8.365  1.00  0.00    -0.284 NA
HETATM   39  H   UNL     1      45.274 -14.177   8.331  1.00  0.00     0.125 HD
HETATM   40  H   UNL     1      45.472 -12.821   9.293  1.00  0.00     0.125 HD
ENDBRANCH   5  38
TORSDOF 8
ENDMDL
MODEL 9
REMARK VINA RESULT:      -8.8      3.741      7.550
REMARK  8 active torsions:
REMARK  status: ('A' for Active; 'I' for Inactive)
REMARK    1  A    between atoms: C_4  and  C_5 
REMARK    2  A    between atoms: C_5  and  N_6 
REMARK    3  A    between atoms: N_10  and  C_11 
REMARK    4  A    between atoms: C_13  and  N_14 
REMARK    5  A    between atoms: N_17  and  C_19 
REMARK    6  A    between atoms: C_19  and  C_20 
REMARK    7  A    between atoms: C_29  and  N_30 
REMARK    8  A    between atoms: C_31  and  N_32 
ROOT
HETATM    1  C   UNL     1      41.060 -14.727   2.631  1.00  0.00     0.181 A 
HETATM    2  N   UNL     1      41.145 -15.686   3.585  1.00  0.00    -0.042 NA
HETATM    3  C   UNL     1      41.589 -15.406   4.821  1.00  0.00     0.728 A 
HETATM    4  N   UNL     1      42.021 -14.197   5.178  1.00  0.00    -0.048 NA
HETATM    5  C   UNL     1      41.967 -13.220   4.260  1.00  0.00     0.157 A 
HETATM    6  C   UNL     1      41.509 -13.463   2.975  1.00  0.00     0.189 A 
ENDROOT
BRANCH   1   7
HETATM    7  N   UNL     1      40.522 -15.157   1.430  1.00  0.00    -0.360 N 
HETATM    8  C   UNL     1      41.220 -15.744   0.267  1.00  0.00     0.152 C 
HETATM    9  C   UNL     1      41.178 -14.782  -0.948  1.00  0.00     0.255 C 
HETATM   10  N   UNL     1      39.726 -14.396  -1.256  1.00  0.00    -0.064 N 
HETATM   11  H   UNL     1      39.247 -15.278  -1.477  1.00  0.00     0.280 HD
HETATM   12  C   UNL     1      39.007 -13.845  -0.029  1.00  0.00     0.255 C 
HETATM   13  C   UNL     1      39.101 -14.841   1.151  1.00  0.00     0.152 C 
BRANCH  10  14
HETATM   14  C   UNL     1      39.549 -13.552  -2.506  1.00  0.00     0.273 C 
BRANCH  14  15
HETATM   15  C   UNL     1      40.548 -12.458  -2.777  1.00  0.00    -0.033 A 
HETATM   16  C   UNL     1      41.429 -12.589  -3.865  1.00  0.00     0.009 A 
HETATM   17  C   UNL     1      42.342 -11.579  -4.177  1.00  0.00     0.001 A 
HETATM   18  C   UNL     1      42.392 -10.424  -3.404  1.00  0.00     0.000 A 
HETATM   19  C   UNL     1      41.520 -10.271  -2.331  1.00  0.00     0.001 A 
HETATM   20  C   UNL     1      40.595 -11.273  -2.027  1.00  0.00     0.009 A 
ENDBRANCH  14  15
ENDBRANCH  10  14
ENDBRANCH   1   7
BRANCH   6  21
HETATM   21  N   UNL     1      41.396 -12.354   2.094  1.00  0.00    -0.108 N 
HETATM   22  O   UNL     1      40.375 -11.662   2.202  1.00  0.00    -0.532 OA
HETATM   23  O   UNL     1      42.285 -12.200   1.249  1.00  0.00    -0.532 OA
ENDBRANCH   6  21
BRANCH   3  24
HETATM   24  N   UNL     1      41.549 -16.422   5.769  1.00  0.00    -0.211 N 
HETATM   25  C   UNL     1      42.538 -16.336   6.856  1.00  0.00     0.169 C 
HETATM   26  C   UNL     1      43.886 -16.980   6.473  1.00  0.00     0.255 C 
HETATM   27  N   UNL     1      43.650 -18.413   5.984  1.00  0.00    -0.064 N 
HETATM   28  H   UNL     1      43.202 -18.917   6.759  1.00  0.00     0.280 HD
HETATM   29  C   UNL     1      42.681 -18.426   4.805  1.00  0.00     0.255 C 
HETATM   30  C   UNL     1      41.340 -17.764   5.206  1.00  0.00     0.169 C 
BRANCH  27  31
HETATM   31  C   UNL     1      44.933 -19.154   5.691  1.00  0.00     0.273 C 
BRANCH  31  32
HETATM   32  C   UNL     1      44.739 -20.263   4.693  1.00  0.00    -0.033 A 
HETATM   33  C   UNL     1      44.761 -21.606   5.104  1.00  0.00     0.009 A 
HETATM   34  C   UNL     1      44.627 -22.635   4.171  1.00  0.00     0.001 A 
HETATM   35  C   UNL     1      44.466 -22.335   2.820  1.00  0.00     0.000 A 
HETATM   36  C   UNL     1      44.430 -21.007   2.400  1.00  0.00     0.001 A 
HETATM   37  C   UNL     1      44.566 -19.975   3.330  1.00  0.00     0.009 A 
ENDBRANCH  31  32
ENDBRANCH  27  31
ENDBRANCH   3  24
BRANCH   5  38
HETATM   38  N   UNL     1      42.455 -11.996   4.702  1.00  0.00    -0.284 NA
HETATM   39  H   UNL     1      42.708 -12.039   5.685  1.00  0.00     0.125 HD
HETATM   40  H   UNL     1      41.871 -11.185   4.513  1.00  0.00     0.125 HD
ENDBRANCH   5  38
TORSDOF 8
ENDMDL
MODEL 10
REMARK VINA RESULT:      -8.8      3.768      8.221
REMARK  8 active torsions:
REMARK  status: ('A' for Active; 'I' for Inactive)
REMARK    1  A    between atoms: C_4  and  C_5 
REMARK    2  A    between atoms: C_5  and  N_6 
REMARK    3  A    between atoms: N_10  and  C_11 
REMARK    4  A    between atoms: C_13  and  N_14 
REMARK    5  A    between atoms: N_17  and  C_19 
REMARK    6  A    between atoms: C_19  and  C_20 
REMARK    7  A    between atoms: C_29  and  N_30 
REMARK    8  A    between atoms: C_31  and  N_32 
ROOT
HETATM    1  C   UNL     1      41.037 -14.736   2.565  1.00  0.00     0.181 A 
HETATM    2  N   UNL     1      41.108 -15.708   3.506  1.00  0.00    -0.042 NA
HETATM    3  C   UNL     1      41.541 -15.447   4.750  1.00  0.00     0.728 A 
HETATM    4  N   UNL     1      41.975 -14.245   5.128  1.00  0.00    -0.048 NA
HETATM    5  C   UNL     1      41.935 -13.256   4.223  1.00  0.00     0.157 A 
HETATM    6  C   UNL     1      41.488 -13.479   2.930  1.00  0.00     0.189 A 
ENDROOT
BRANCH   1   7
HETATM    7  N   UNL     1      40.508 -15.147   1.353  1.00  0.00    -0.360 N 
HETATM    8  C   UNL     1      41.203 -15.785   0.216  1.00  0.00     0.152 C 
HETATM    9  C   UNL     1      41.249 -14.835  -1.009  1.00  0.00     0.255 C 
HETATM   10  N   UNL     1      39.831 -14.371  -1.360  1.00  0.00    -0.064 N 
HETATM   11  H   UNL     1      39.309 -15.226  -1.587  1.00  0.00     0.280 HD
HETATM   12  C   UNL     1      39.111 -13.766  -0.159  1.00  0.00     0.255 C 
HETATM   13  C   UNL     1      39.115 -14.753   1.032  1.00  0.00     0.152 C 
BRANCH  10  14
HETATM   14  C   UNL     1      39.737 -13.531  -2.622  1.00  0.00     0.273 C 
BRANCH  14  15
HETATM   15  C   UNL     1      38.408 -13.442  -3.325  1.00  0.00    -0.033 A 
HETATM   16  C   UNL     1      37.758 -14.628  -3.712  1.00  0.00     0.009 A 
HETATM   17  C   UNL     1      36.505 -14.592  -4.329  1.00  0.00     0.001 A 
HETATM   18  C   UNL     1      35.884 -13.372  -4.573  1.00  0.00     0.000 A 
HETATM   19  C   UNL     1      36.507 -12.189  -4.187  1.00  0.00     0.001 A 
HETATM   20  C   UNL     1      37.752 -12.223  -3.555  1.00  0.00     0.009 A 
ENDBRANCH  14  15
ENDBRANCH  10  14
ENDBRANCH   1   7
BRANCH   6  21
HETATM   21  N   UNL     1      41.388 -12.357   2.064  1.00  0.00    -0.108 N 
HETATM   22  O   UNL     1      40.417 -11.609   2.235  1.00  0.00    -0.532 OA
HETATM   23  O   UNL     1      42.234 -12.247   1.169  1.00  0.00    -0.532 OA
ENDBRANCH   6  21
BRANCH   3  24
HETATM   24  N   UNL     1      41.488 -16.476   5.684  1.00  0.00    -0.211 N 
HETATM   25  C   UNL     1      42.439 -16.386   6.805  1.00  0.00     0.169 C 
HETATM   26  C   UNL     1      43.810 -17.002   6.460  1.00  0.00     0.255 C 
HETATM   27  N   UNL     1      43.616 -18.432   5.946  1.00  0.00    -0.064 N 
HETATM   28  H   UNL     1      43.151 -18.954   6.699  1.00  0.00     0.280 HD
HETATM   29  C   UNL     1      42.688 -18.447   4.734  1.00  0.00     0.255 C 
HETATM   30  C   UNL     1      41.323 -17.814   5.098  1.00  0.00     0.169 C 
BRANCH  27  31
HETATM   31  C   UNL     1      44.921 -19.147   5.688  1.00  0.00     0.273 C 
BRANCH  31  32
HETATM   32  C   UNL     1      44.762 -20.310   4.746  1.00  0.00    -0.033 A 
HETATM   33  C   UNL     1      44.770 -21.628   5.232  1.00  0.00     0.009 A 
HETATM   34  C   UNL     1      44.668 -22.707   4.353  1.00  0.00     0.001 A 
HETATM   35  C   UNL     1      44.552 -22.483   2.984  1.00  0.00     0.000 A 
HETATM   36  C   UNL     1      44.529 -21.181   2.490  1.00  0.00     0.001 A 
HETATM   37  C   UNL     1      44.634 -20.098   3.365  1.00  0.00     0.009 A 
ENDBRANCH  31  32
ENDBRANCH  27  31
ENDBRANCH   3  24
BRANCH   5  38
HETATM   38  N   UNL     1      42.425 -12.040   4.686  1.00  0.00    -0.284 NA
HETATM   39  H   UNL     1      43.205 -11.722   4.118  1.00  0.00     0.125 HD
HETATM   40  H   UNL     1      42.656 -11.996   5.676  1.00  0.00     0.125 HD
ENDBRANCH   5  38
TORSDOF 8
ENDMDL
