MODEL 1
REMARK VINA RESULT:      -7.1      0.000      0.000
REMARK  2 active torsions:
REMARK  status: ('A' for Active; 'I' for Inactive)
REMARK    1  A    between atoms: N_6  and  C_7 
REMARK    2  A    between atoms: C_11  and  N_12 
ROOT
HETATM    1  C   UNL     1      43.427 -18.077   3.569  1.00  0.00     0.048 A 
HETATM    2  C   UNL     1      44.235 -18.900   4.394  1.00  0.00     0.040 A 
HETATM    3 BR   UNL     1      44.868 -18.287   6.086  1.00  0.00    -0.049 Br
HETATM    4  C   UNL     1      44.561 -20.211   4.033  1.00  0.00     0.057 A 
HETATM    5  C   UNL     1      44.076 -20.726   2.829  1.00  0.00     0.104 A 
HETATM    6  C   UNL     1      43.275 -19.941   1.993  1.00  0.00     0.038 A 
HETATM    7  C   UNL     1      42.958 -18.628   2.364  1.00  0.00     0.033 A 
ENDROOT
BRANCH   1   8
HETATM    8  N   UNL     1      43.115 -16.763   3.949  1.00  0.00    -0.377 N 
HETATM    9  C   UNL     1      43.448 -15.752   2.922  1.00  0.00     0.150 C 
HETATM   10  C   UNL     1      43.520 -14.359   3.582  1.00  0.00     0.254 C 
HETATM   11  N   UNL     1      42.218 -14.044   4.328  1.00  0.00    -0.072 N 
HETATM   12  C   UNL     1      42.270 -12.698   4.986  1.00  0.00     0.269 C 
HETATM   13  H   UNL     1      41.467 -14.021   3.627  1.00  0.00     0.279 HD
HETATM   14  C   UNL     1      41.872 -15.151   5.330  1.00  0.00     0.254 C 
HETATM   15  C   UNL     1      41.832 -16.529   4.631  1.00  0.00     0.150 C 
ENDBRANCH   1   8
BRANCH   5  16
HETATM   16  N   UNL     1      44.405 -22.104   2.441  1.00  0.00    -0.116 N 
HETATM   17  O   UNL     1      44.332 -22.395   1.240  1.00  0.00    -0.532 OA
HETATM   18  O   UNL     1      44.732 -22.889   3.342  1.00  0.00    -0.532 OA
ENDBRANCH   5  16
TORSDOF 2
ENDMDL
MODEL 2
REMARK VINA RESULT:      -6.6      1.683      2.260
REMARK  2 active torsions:
REMARK  status: ('A' for Active; 'I' for Inactive)
REMARK    1  A    between atoms: N_6  and  C_7 
REMARK    2  A    between atoms: C_11  and  N_12 
ROOT
HETATM    1  C   UNL     1      43.179 -18.252   3.933  1.00  0.00     0.048 A 
HETATM    2  C   UNL     1      42.797 -18.676   2.636  1.00  0.00     0.040 A 
HETATM    3 BR   UNL     1      41.787 -17.542   1.481  1.00  0.00    -0.049 Br
HETATM    4  C   UNL     1      43.184 -19.918   2.122  1.00  0.00     0.057 A 
HETATM    5  C   UNL     1      43.972 -20.763   2.907  1.00  0.00     0.104 A 
HETATM    6  C   UNL     1      44.367 -20.374   4.191  1.00  0.00     0.038 A 
HETATM    7  C   UNL     1      43.969 -19.129   4.695  1.00  0.00     0.033 A 
ENDROOT
BRANCH   1   8
HETATM    8  N   UNL     1      42.775 -17.003   4.430  1.00  0.00    -0.377 N 
HETATM    9  C   UNL     1      41.383 -16.983   4.927  1.00  0.00     0.150 C 
HETATM   10  C   UNL     1      40.889 -15.523   5.001  1.00  0.00     0.254 C 
HETATM   11  N   UNL     1      41.838 -14.671   5.852  1.00  0.00    -0.072 N 
HETATM   12  C   UNL     1      41.382 -13.245   5.929  1.00  0.00     0.269 C 
HETATM   13  H   UNL     1      41.818 -15.057   6.804  1.00  0.00     0.279 HD
HETATM   14  C   UNL     1      43.281 -14.777   5.348  1.00  0.00     0.254 C 
HETATM   15  C   UNL     1      43.726 -16.256   5.269  1.00  0.00     0.150 C 
ENDBRANCH   1   8
BRANCH   5  16
HETATM   16  N   UNL     1      44.392 -22.067   2.377  1.00  0.00    -0.116 N 
HETATM   17  O   UNL     1      44.310 -22.243   1.155  1.00  0.00    -0.532 OA
HETATM   18  O   UNL     1      44.801 -22.909   3.189  1.00  0.00    -0.532 OA
ENDBRANCH   5  16
TORSDOF 2
ENDMDL
MODEL 3
REMARK VINA RESULT:      -6.5      1.790      2.404
REMARK  2 active torsions:
REMARK  status: ('A' for Active; 'I' for Inactive)
REMARK    1  A    between atoms: N_6  and  C_7 
REMARK    2  A    between atoms: C_11  and  N_12 
ROOT
HETATM    1  C   UNL     1      43.683 -18.108   5.016  1.00  0.00     0.048 A 
HETATM    2  C   UNL     1      43.949 -18.578   3.706  1.00  0.00     0.040 A 
HETATM    3 BR   UNL     1      43.867 -17.410   2.199  1.00  0.00    -0.049 Br
HETATM    4  C   UNL     1      44.334 -19.900   3.461  1.00  0.00     0.057 A 
HETATM    5  C   UNL     1      44.463 -20.782   4.537  1.00  0.00     0.104 A 
HETATM    6  C   UNL     1      44.209 -20.349   5.843  1.00  0.00     0.038 A 
HETATM    7  C   UNL     1      43.821 -19.023   6.074  1.00  0.00     0.033 A 
ENDROOT
BRANCH   1   8
HETATM    8  N   UNL     1      43.294 -16.778   5.238  1.00  0.00    -0.377 N 
HETATM    9  C   UNL     1      41.830 -16.575   5.219  1.00  0.00     0.150 C 
HETATM   10  C   UNL     1      41.524 -15.079   4.997  1.00  0.00     0.254 C 
HETATM   11  N   UNL     1      42.230 -14.219   6.052  1.00  0.00    -0.072 N 
HETATM   12  C   UNL     1      41.956 -12.759   5.848  1.00  0.00     0.269 C 
HETATM   13  H   UNL     1      41.845 -14.485   6.966  1.00  0.00     0.279 HD
HETATM   14  C   UNL     1      43.735 -14.512   6.089  1.00  0.00     0.254 C 
HETATM   15  C   UNL     1      43.993 -16.022   6.291  1.00  0.00     0.150 C 
ENDBRANCH   1   8
BRANCH   5  16
HETATM   16  N   UNL     1      44.874 -22.171   4.296  1.00  0.00    -0.116 N 
HETATM   17  O   UNL     1      44.555 -22.684   3.215  1.00  0.00    -0.532 OA
HETATM   18  O   UNL     1      45.512 -22.742   5.190  1.00  0.00    -0.532 OA
ENDBRANCH   5  16
TORSDOF 2
ENDMDL
MODEL 4
REMARK VINA RESULT:      -6.1      3.244      3.555
REMARK  2 active torsions:
REMARK  status: ('A' for Active; 'I' for Inactive)
REMARK    1  A    between atoms: N_6  and  C_7 
REMARK    2  A    between atoms: C_11  and  N_12 
ROOT
HETATM    1  C   UNL     1      42.250 -17.201   2.501  1.00  0.00     0.048 A 
HETATM    2  C   UNL     1      42.784 -16.845   3.765  1.00  0.00     0.040 A 
HETATM    3 BR   UNL     1      42.403 -15.152   4.559  1.00  0.00    -0.049 Br
HETATM    4  C   UNL     1      43.566 -17.732   4.511  1.00  0.00     0.057 A 
HETATM    5  C   UNL     1      43.828 -19.005   3.999  1.00  0.00     0.104 A 
HETATM    6  C   UNL     1      43.316 -19.388   2.755  1.00  0.00     0.038 A 
HETATM    7  C   UNL     1      42.535 -18.489   2.017  1.00  0.00     0.033 A 
ENDROOT
BRANCH   1   8
HETATM    8  N   UNL     1      41.470 -16.294   1.768  1.00  0.00    -0.377 N 
HETATM    9  C   UNL     1      41.830 -16.223   0.336  1.00  0.00     0.150 C 
HETATM   10  C   UNL     1      41.278 -14.912  -0.264  1.00  0.00     0.254 C 
HETATM   11  N   UNL     1      39.768 -14.799  -0.023  1.00  0.00    -0.072 N 
HETATM   12  C   UNL     1      39.211 -13.527  -0.589  1.00  0.00     0.269 C 
HETATM   13  H   UNL     1      39.323 -15.583  -0.518  1.00  0.00     0.279 HD
HETATM   14  C   UNL     1      39.431 -14.951   1.465  1.00  0.00     0.254 C 
HETATM   15  C   UNL     1      40.021 -16.263   2.028  1.00  0.00     0.150 C 
ENDBRANCH   1   8
BRANCH   5  16
HETATM   16  N   UNL     1      44.643 -19.949   4.775  1.00  0.00    -0.116 N 
HETATM   17  O   UNL     1      45.515 -20.586   4.170  1.00  0.00    -0.532 OA
HETATM   18  O   UNL     1      44.403 -20.049   5.986  1.00  0.00    -0.532 OA
ENDBRANCH   5  16
TORSDOF 2
ENDMDL
MODEL 5
REMARK VINA RESULT:      -6.1      2.530      2.721
REMARK  2 active torsions:
REMARK  status: ('A' for Active; 'I' for Inactive)
REMARK    1  A    between atoms: N_6  and  C_7 
REMARK    2  A    between atoms: C_11  and  N_12 
ROOT
HETATM    1  C   UNL     1      42.139 -17.185   2.796  1.00  0.00     0.048 A 
HETATM    2  C   UNL     1      42.388 -17.730   4.080  1.00  0.00     0.040 A 
HETATM    3 BR   UNL     1      41.531 -17.032   5.636  1.00  0.00    -0.049 Br
HETATM    4  C   UNL     1      43.227 -18.834   4.262  1.00  0.00     0.057 A 
HETATM    5  C   UNL     1      43.836 -19.417   3.148  1.00  0.00     0.104 A 
HETATM    6  C   UNL     1      43.609 -18.904   1.867  1.00  0.00     0.038 A 
HETATM    7  C   UNL     1      42.769 -17.797   1.699  1.00  0.00     0.033 A 
ENDROOT
BRANCH   1   8
HETATM    8  N   UNL     1      41.295 -16.075   2.637  1.00  0.00    -0.377 N 
HETATM    9  C   UNL     1      42.019 -14.793   2.498  1.00  0.00     0.150 C 
HETATM   10  C   UNL     1      41.055 -13.627   2.802  1.00  0.00     0.254 C 
HETATM   11  N   UNL     1      39.810 -13.707   1.911  1.00  0.00    -0.072 N 
HETATM   12  C   UNL     1      38.853 -12.588   2.197  1.00  0.00     0.269 C 
HETATM   13  H   UNL     1      40.126 -13.607   0.939  1.00  0.00     0.279 HD
HETATM   14  C   UNL     1      39.130 -15.076   2.030  1.00  0.00     0.254 C 
HETATM   15  C   UNL     1      40.136 -16.213   1.740  1.00  0.00     0.150 C 
ENDBRANCH   1   8
BRANCH   5  16
HETATM   16  N   UNL     1      44.714 -20.581   3.324  1.00  0.00    -0.116 N 
HETATM   17  O   UNL     1      45.362 -20.657   4.376  1.00  0.00    -0.532 OA
HETATM   18  O   UNL     1      44.751 -21.413   2.406  1.00  0.00    -0.532 OA
ENDBRANCH   5  16
TORSDOF 2
ENDMDL
MODEL 6
REMARK VINA RESULT:      -6.0      2.245      2.992
REMARK  2 active torsions:
REMARK  status: ('A' for Active; 'I' for Inactive)
REMARK    1  A    between atoms: N_6  and  C_7 
REMARK    2  A    between atoms: C_11  and  N_12 
ROOT
HETATM    1  C   UNL     1      42.993 -17.049   4.181  1.00  0.00     0.048 A 
HETATM    2  C   UNL     1      43.668 -17.938   3.307  1.00  0.00     0.040 A 
HETATM    3 BR   UNL     1      44.044 -17.455   1.501  1.00  0.00    -0.049 Br
HETATM    4  C   UNL     1      44.135 -19.183   3.739  1.00  0.00     0.057 A 
HETATM    5  C   UNL     1      43.933 -19.562   5.069  1.00  0.00     0.104 A 
HETATM    6  C   UNL     1      43.272 -18.707   5.957  1.00  0.00     0.038 A 
HETATM    7  C   UNL     1      42.807 -17.464   5.511  1.00  0.00     0.033 A 
ENDROOT
BRANCH   1   8
HETATM    8  N   UNL     1      42.530 -15.806   3.725  1.00  0.00    -0.377 N 
HETATM    9  C   UNL     1      41.070 -15.623   3.875  1.00  0.00     0.150 C 
HETATM   10  C   UNL     1      40.601 -14.482   2.948  1.00  0.00     0.254 C 
HETATM   11  N   UNL     1      41.392 -13.198   3.225  1.00  0.00    -0.072 N 
HETATM   12  C   UNL     1      40.959 -12.078   2.328  1.00  0.00     0.269 C 
HETATM   13  H   UNL     1      41.189 -12.921   4.193  1.00  0.00     0.279 HD
HETATM   14  C   UNL     1      42.902 -13.447   3.131  1.00  0.00     0.254 C 
HETATM   15  C   UNL     1      43.323 -14.611   4.057  1.00  0.00     0.150 C 
ENDBRANCH   1   8
BRANCH   5  16
HETATM   16  N   UNL     1      44.425 -20.864   5.538  1.00  0.00    -0.116 N 
HETATM   17  O   UNL     1      43.962 -21.304   6.599  1.00  0.00    -0.532 OA
HETATM   18  O   UNL     1      45.274 -21.439   4.842  1.00  0.00    -0.532 OA
ENDBRANCH   5  16
TORSDOF 2
ENDMDL
MODEL 7
REMARK VINA RESULT:      -6.0      1.633      1.989
REMARK  2 active torsions:
REMARK  status: ('A' for Active; 'I' for Inactive)
REMARK    1  A    between atoms: N_6  and  C_7 
REMARK    2  A    between atoms: C_11  and  N_12 
ROOT
HETATM    1  C   UNL     1      42.998 -16.980   4.881  1.00  0.00     0.048 A 
HETATM    2  C   UNL     1      43.439 -17.888   5.876  1.00  0.00     0.040 A 
HETATM    3 BR   UNL     1      43.169 -17.531   7.731  1.00  0.00    -0.049 Br
HETATM    4  C   UNL     1      44.041 -19.106   5.547  1.00  0.00     0.057 A 
HETATM    5  C   UNL     1      44.212 -19.440   4.202  1.00  0.00     0.104 A 
HETATM    6  C   UNL     1      43.787 -18.567   3.195  1.00  0.00     0.038 A 
HETATM    7  C   UNL     1      43.187 -17.348   3.537  1.00  0.00     0.033 A 
ENDROOT
BRANCH   1   8
HETATM    8  N   UNL     1      42.399 -15.761   5.233  1.00  0.00    -0.377 N 
HETATM    9  C   UNL     1      43.241 -14.580   4.946  1.00  0.00     0.150 C 
HETATM   10  C   UNL     1      42.733 -13.379   5.771  1.00  0.00     0.254 C 
HETATM   11  N   UNL     1      41.244 -13.128   5.504  1.00  0.00    -0.072 N 
HETATM   12  C   UNL     1      40.727 -11.971   6.305  1.00  0.00     0.269 C 
HETATM   13  H   UNL     1      41.152 -12.887   4.510  1.00  0.00     0.279 HD
HETATM   14  C   UNL     1      40.417 -14.396   5.744  1.00  0.00     0.254 C 
HETATM   15  C   UNL     1      40.973 -15.577   4.916  1.00  0.00     0.150 C 
ENDBRANCH   1   8
BRANCH   5  16
HETATM   16  N   UNL     1      44.837 -20.720   3.842  1.00  0.00    -0.116 N 
HETATM   17  O   UNL     1      44.898 -21.011   2.640  1.00  0.00    -0.532 OA
HETATM   18  O   UNL     1      45.261 -21.428   4.766  1.00  0.00    -0.532 OA
ENDBRANCH   5  16
TORSDOF 2
ENDMDL
MODEL 8
REMARK VINA RESULT:      -5.8      3.522      4.125
REMARK  2 active torsions:
REMARK  status: ('A' for Active; 'I' for Inactive)
REMARK    1  A    between atoms: N_6  and  C_7 
REMARK    2  A    between atoms: C_11  and  N_12 
ROOT
HETATM    1  C   UNL     1      42.282 -16.657   3.016  1.00  0.00     0.048 A 
HETATM    2  C   UNL     1      42.794 -16.017   4.172  1.00  0.00     0.040 A 
HETATM    3 BR   UNL     1      42.373 -14.199   4.566  1.00  0.00    -0.049 Br
HETATM    4  C   UNL     1      43.585 -16.699   5.103  1.00  0.00     0.057 A 
HETATM    5  C   UNL     1      43.877 -18.048   4.889  1.00  0.00     0.104 A 
HETATM    6  C   UNL     1      43.386 -18.709   3.758  1.00  0.00     0.038 A 
HETATM    7  C   UNL     1      42.597 -18.014   2.833  1.00  0.00     0.033 A 
ENDROOT
BRANCH   1   8
HETATM    8  N   UNL     1      41.494 -15.952   2.094  1.00  0.00    -0.377 N 
HETATM    9  C   UNL     1      42.013 -15.998   0.710  1.00  0.00     0.150 C 
HETATM   10  C   UNL     1      41.385 -14.850  -0.109  1.00  0.00     0.254 C 
HETATM   11  N   UNL     1      39.854 -14.915  -0.045  1.00  0.00    -0.072 N 
HETATM   12  C   UNL     1      39.222 -13.801  -0.826  1.00  0.00     0.269 C 
HETATM   13  H   UNL     1      39.570 -15.802  -0.479  1.00  0.00     0.279 HD
HETATM   14  C   UNL     1      39.360 -14.939   1.406  1.00  0.00     0.254 C 
HETATM   15  C   UNL     1      40.031 -16.087   2.193  1.00  0.00     0.150 C 
ENDBRANCH   1   8
BRANCH   5  16
HETATM   16  N   UNL     1      44.699 -18.779   5.862  1.00  0.00    -0.116 N 
HETATM   17  O   UNL     1      45.501 -18.124   6.541  1.00  0.00    -0.532 OA
HETATM   18  O   UNL     1      44.540 -20.005   5.939  1.00  0.00    -0.532 OA
ENDBRANCH   5  16
TORSDOF 2
ENDMDL
MODEL 9
REMARK VINA RESULT:      -5.8      3.199      4.105
REMARK  2 active torsions:
REMARK  status: ('A' for Active; 'I' for Inactive)
REMARK    1  A    between atoms: N_6  and  C_7 
REMARK    2  A    between atoms: C_11  and  N_12 
ROOT
HETATM    1  C   UNL     1      42.685 -17.451   3.724  1.00  0.00     0.048 A 
HETATM    2  C   UNL     1      42.151 -17.111   4.992  1.00  0.00     0.040 A 
HETATM    3 BR   UNL     1      40.863 -15.717   5.183  1.00  0.00    -0.049 Br
HETATM    4  C   UNL     1      42.500 -17.813   6.151  1.00  0.00     0.057 A 
HETATM    5  C   UNL     1      43.398 -18.879   6.057  1.00  0.00     0.104 A 
HETATM    6  C   UNL     1      43.942 -19.240   4.819  1.00  0.00     0.038 A 
HETATM    7  C   UNL     1      43.586 -18.528   3.667  1.00  0.00     0.033 A 
ENDROOT
BRANCH   1   8
HETATM    8  N   UNL     1      42.324 -16.731   2.575  1.00  0.00    -0.377 N 
HETATM    9  C   UNL     1      42.978 -15.409   2.472  1.00  0.00     0.150 C 
HETATM   10  C   UNL     1      42.191 -14.526   1.480  1.00  0.00     0.254 C 
HETATM   11  N   UNL     1      42.049 -15.229   0.124  1.00  0.00    -0.072 N 
HETATM   12  C   UNL     1      41.278 -14.393  -0.853  1.00  0.00     0.269 C 
HETATM   13  H   UNL     1      42.997 -15.354  -0.252  1.00  0.00     0.279 HD
HETATM   14  C   UNL     1      41.434 -16.624   0.284  1.00  0.00     0.254 C 
HETATM   15  C   UNL     1      42.240 -17.463   1.301  1.00  0.00     0.150 C 
ENDBRANCH   1   8
BRANCH   5  16
HETATM   16  N   UNL     1      43.767 -19.629   7.264  1.00  0.00    -0.116 N 
HETATM   17  O   UNL     1      43.636 -20.859   7.237  1.00  0.00    -0.532 OA
HETATM   18  O   UNL     1      44.185 -18.981   8.234  1.00  0.00    -0.532 OA
ENDBRANCH   5  16
TORSDOF 2
ENDMDL
MODEL 10
REMARK VINA RESULT:      -5.6      3.614      4.842
REMARK  2 active torsions:
REMARK  status: ('A' for Active; 'I' for Inactive)
REMARK    1  A    between atoms: N_6  and  C_7 
REMARK    2  A    between atoms: C_11  and  N_12 
ROOT
HETATM    1  C   UNL     1      42.373 -16.681   3.951  1.00  0.00     0.048 A 
HETATM    2  C   UNL     1      43.220 -17.800   4.146  1.00  0.00     0.040 A 
HETATM    3 BR   UNL     1      43.958 -18.753   2.667  1.00  0.00    -0.049 Br
HETATM    4  C   UNL     1      43.597 -18.224   5.424  1.00  0.00     0.057 A 
HETATM    5  C   UNL     1      43.129 -17.526   6.539  1.00  0.00     0.104 A 
HETATM    6  C   UNL     1      42.292 -16.416   6.380  1.00  0.00     0.038 A 
HETATM    7  C   UNL     1      41.919 -16.003   5.095  1.00  0.00     0.033 A 
ENDROOT
BRANCH   1   8
HETATM    8  N   UNL     1      42.004 -16.275   2.659  1.00  0.00    -0.377 N 
HETATM    9  C   UNL     1      41.002 -17.156   2.022  1.00  0.00     0.150 C 
HETATM   10  C   UNL     1      41.016 -16.925   0.496  1.00  0.00     0.254 C 
HETATM   11  N   UNL     1      40.797 -15.443   0.170  1.00  0.00    -0.072 N 
HETATM   12  C   UNL     1      40.818 -15.193  -1.308  1.00  0.00     0.269 C 
HETATM   13  H   UNL     1      39.864 -15.191   0.517  1.00  0.00     0.279 HD
HETATM   14  C   UNL     1      41.810 -14.558   0.907  1.00  0.00     0.254 C 
HETATM   15  C   UNL     1      41.777 -14.839   2.426  1.00  0.00     0.150 C 
ENDBRANCH   1   8
BRANCH   5  16
HETATM   16  N   UNL     1      43.523 -17.956   7.887  1.00  0.00    -0.116 N 
HETATM   17  O   UNL     1      43.837 -19.143   8.041  1.00  0.00    -0.532 OA
HETATM   18  O   UNL     1      43.514 -17.102   8.785  1.00  0.00    -0.532 OA
ENDBRANCH   5  16
TORSDOF 2
ENDMDL
