MODEL 1
REMARK VINA RESULT:      -8.3      0.000      0.000
REMARK  5 active torsions:
REMARK  status: ('A' for Active; 'I' for Inactive)
REMARK    1  A    between atoms: C_8  and  C_9 
REMARK    2  A    between atoms: C_13  and  C_14 
REMARK    3  A    between atoms: C_14  and  O_15 
REMARK    4  A    between atoms: O_15  and  C_16 
REMARK    5  A    between atoms: C_27  and  N_28 
ROOT
HETATM    1  C   UNL     1      43.940 -15.071   6.208  1.00  0.00     0.073 C 
HETATM    2  C   UNL     1      43.845 -16.389   6.882  1.00  0.00     0.062 A 
HETATM    3  N   UNL     1      43.571 -16.461   8.195  1.00  0.00    -0.177 NA
HETATM    4  N   UNL     1      43.564 -17.784   8.463  1.00  0.00    -0.256 N 
HETATM    5  H   UNL     1      43.385 -18.092   9.412  1.00  0.00     0.191 HD
HETATM    6  C   UNL     1      43.806 -18.542   7.363  1.00  0.00     0.175 A 
HETATM    7  C   UNL     1      43.992 -17.677   6.317  1.00  0.00     0.035 A 
HETATM    8  C   UNL     1      44.290 -18.192   4.947  1.00  0.00     0.111 A 
HETATM    9  C   UNL     1      44.314 -19.731   4.983  1.00  0.00     0.067 A 
HETATM   10  C   UNL     1      44.552 -20.417   3.649  1.00  0.00     0.020 C 
HETATM   11  N   UNL     1      44.750 -20.986   2.541  1.00  0.00    -0.096 N 
HETATM   12  C   UNL     1      44.107 -20.470   6.105  1.00  0.00     0.139 A 
HETATM   13  O   UNL     1      43.848 -19.869   7.350  1.00  0.00    -0.279 OA
ENDROOT
BRANCH   8  14
HETATM   14  C   UNL     1      43.331 -17.624   3.915  1.00  0.00    -0.003 A 
HETATM   15  S   UNL     1      43.904 -17.237   2.348  1.00  0.00    -0.098 SA
HETATM   16  C   UNL     1      42.350 -16.786   1.803  1.00  0.00    -0.013 A 
HETATM   17  C   UNL     1      42.161 -16.372   0.380  1.00  0.00     0.057 C 
HETATM   18  C   UNL     1      41.402 -16.852   2.812  1.00  0.00    -0.020 A 
HETATM   19  C   UNL     1      41.977 -17.364   4.024  1.00  0.00     0.026 A 
BRANCH  18  20
HETATM   20  C   UNL     1      39.953 -16.465   2.666  1.00  0.00     0.215 C 
BRANCH  20  21
HETATM   21  O   UNL     1      39.828 -15.049   2.536  1.00  0.00    -0.347 OA
BRANCH  21  22
HETATM   22  C   UNL     1      40.257 -14.285   3.586  1.00  0.00     0.069 A 
HETATM   23  C   UNL     1      39.818 -14.382   4.910  1.00  0.00     0.040 A 
HETATM   24  C   UNL     1      40.352 -13.536   5.887  1.00  0.00     0.045 A 
HETATM   25  C   UNL     1      41.316 -12.598   5.537  1.00  0.00     0.116 A 
HETATM   26  F   UNL     1      41.823 -11.790   6.477  1.00  0.00    -0.206 F 
HETATM   27  C   UNL     1      41.760 -12.489   4.227  1.00  0.00     0.045 A 
HETATM   28  C   UNL     1      41.229 -13.334   3.252  1.00  0.00     0.040 A 
ENDBRANCH  21  22
ENDBRANCH  20  21
ENDBRANCH  18  20
ENDBRANCH   8  14
BRANCH  12  29
HETATM   29  N   UNL     1      44.113 -21.845   6.168  1.00  0.00    -0.282 NA
HETATM   30  H   UNL     1      43.199 -22.291   6.152  1.00  0.00     0.126 HD
HETATM   31  H   UNL     1      44.711 -22.191   6.913  1.00  0.00     0.126 HD
ENDBRANCH  12  29
TORSDOF 5
ENDMDL
MODEL 2
REMARK VINA RESULT:      -8.2      2.817      4.010
REMARK  5 active torsions:
REMARK  status: ('A' for Active; 'I' for Inactive)
REMARK    1  A    between atoms: C_8  and  C_9 
REMARK    2  A    between atoms: C_13  and  C_14 
REMARK    3  A    between atoms: C_14  and  O_15 
REMARK    4  A    between atoms: O_15  and  C_16 
REMARK    5  A    between atoms: C_27  and  N_28 
ROOT
HETATM    1  C   UNL     1      43.923 -15.025   6.463  1.00  0.00     0.073 C 
HETATM    2  C   UNL     1      43.835 -16.374   7.072  1.00  0.00     0.062 A 
HETATM    3  N   UNL     1      43.558 -16.511   8.380  1.00  0.00    -0.177 NA
HETATM    4  N   UNL     1      43.559 -17.845   8.584  1.00  0.00    -0.256 N 
HETATM    5  H   UNL     1      43.379 -18.199   9.516  1.00  0.00     0.191 HD
HETATM    6  C   UNL     1      43.810 -18.547   7.450  1.00  0.00     0.175 A 
HETATM    7  C   UNL     1      43.992 -17.633   6.447  1.00  0.00     0.035 A 
HETATM    8  C   UNL     1      44.298 -18.079   5.055  1.00  0.00     0.111 A 
HETATM    9  C   UNL     1      44.332 -19.618   5.017  1.00  0.00     0.067 A 
HETATM   10  C   UNL     1      44.579 -20.237   3.652  1.00  0.00     0.020 C 
HETATM   11  N   UNL     1      44.784 -20.751   2.519  1.00  0.00    -0.096 N 
HETATM   12  C   UNL     1      44.128 -20.411   6.102  1.00  0.00     0.139 A 
HETATM   13  O   UNL     1      43.860 -19.872   7.373  1.00  0.00    -0.279 OA
ENDROOT
BRANCH   8  14
HETATM   14  C   UNL     1      43.338 -17.468   4.048  1.00  0.00    -0.003 A 
HETATM   15  S   UNL     1      41.654 -17.733   4.215  1.00  0.00    -0.098 SA
HETATM   16  C   UNL     1      41.283 -16.735   2.880  1.00  0.00    -0.013 A 
HETATM   17  C   UNL     1      39.855 -16.492   2.518  1.00  0.00     0.057 C 
HETATM   18  C   UNL     1      42.423 -16.252   2.255  1.00  0.00    -0.020 A 
HETATM   19  C   UNL     1      43.606 -16.663   2.957  1.00  0.00     0.026 A 
BRANCH  18  20
HETATM   20  C   UNL     1      42.433 -15.393   1.018  1.00  0.00     0.215 C 
BRANCH  20  21
HETATM   21  O   UNL     1      41.861 -16.098  -0.083  1.00  0.00    -0.347 OA
BRANCH  21  22
HETATM   22  C   UNL     1      41.027 -15.397  -0.909  1.00  0.00     0.069 A 
HETATM   23  C   UNL     1      40.189 -14.342  -0.532  1.00  0.00     0.040 A 
HETATM   24  C   UNL     1      39.390 -13.708  -1.489  1.00  0.00     0.045 A 
HETATM   25  C   UNL     1      39.428 -14.132  -2.812  1.00  0.00     0.116 A 
HETATM   26  F   UNL     1      38.660 -13.521  -3.723  1.00  0.00    -0.206 F 
HETATM   27  C   UNL     1      40.253 -15.179  -3.200  1.00  0.00     0.045 A 
HETATM   28  C   UNL     1      41.052 -15.810  -2.246  1.00  0.00     0.040 A 
ENDBRANCH  21  22
ENDBRANCH  20  21
ENDBRANCH  18  20
ENDBRANCH   8  14
BRANCH  12  29
HETATM   29  N   UNL     1      44.143 -21.787   6.099  1.00  0.00    -0.282 NA
HETATM   30  H   UNL     1      43.282 -22.237   5.797  1.00  0.00     0.126 HD
HETATM   31  H   UNL     1      44.507 -22.168   6.968  1.00  0.00     0.126 HD
ENDBRANCH  12  29
TORSDOF 5
ENDMDL
MODEL 3
REMARK VINA RESULT:      -7.9      3.605      7.328
REMARK  5 active torsions:
REMARK  status: ('A' for Active; 'I' for Inactive)
REMARK    1  A    between atoms: C_8  and  C_9 
REMARK    2  A    between atoms: C_13  and  C_14 
REMARK    3  A    between atoms: C_14  and  O_15 
REMARK    4  A    between atoms: O_15  and  C_16 
REMARK    5  A    between atoms: C_27  and  N_28 
ROOT
HETATM    1  C   UNL     1      43.964 -17.433   2.036  1.00  0.00     0.073 C 
HETATM    2  C   UNL     1      42.560 -17.114   1.678  1.00  0.00     0.062 A 
HETATM    3  N   UNL     1      41.814 -18.003   1.001  1.00  0.00    -0.177 NA
HETATM    4  N   UNL     1      40.620 -17.391   0.851  1.00  0.00    -0.256 N 
HETATM    5  H   UNL     1      39.881 -17.874   0.352  1.00  0.00     0.191 HD
HETATM    6  C   UNL     1      40.587 -16.161   1.423  1.00  0.00     0.175 A 
HETATM    7  C   UNL     1      41.823 -15.943   1.972  1.00  0.00     0.035 A 
HETATM    8  C   UNL     1      42.127 -14.664   2.679  1.00  0.00     0.111 A 
HETATM    9  C   UNL     1      40.873 -13.772   2.665  1.00  0.00     0.067 A 
HETATM   10  C   UNL     1      41.000 -12.446   3.396  1.00  0.00     0.020 C 
HETATM   11  N   UNL     1      41.106 -11.346   4.004  1.00  0.00    -0.096 N 
HETATM   12  C   UNL     1      39.697 -14.119   2.078  1.00  0.00     0.139 A 
HETATM   13  O   UNL     1      39.533 -15.354   1.424  1.00  0.00    -0.279 OA
ENDROOT
BRANCH   8  14
HETATM   14  C   UNL     1      42.679 -14.913   4.072  1.00  0.00    -0.003 A 
HETATM   15  S   UNL     1      43.854 -13.849   4.721  1.00  0.00    -0.098 SA
HETATM   16  C   UNL     1      43.893 -14.673   6.216  1.00  0.00    -0.013 A 
HETATM   17  C   UNL     1      44.754 -14.154   7.320  1.00  0.00     0.057 C 
HETATM   18  C   UNL     1      43.079 -15.796   6.215  1.00  0.00    -0.020 A 
HETATM   19  C   UNL     1      42.362 -15.909   4.977  1.00  0.00     0.026 A 
BRANCH  18  20
HETATM   20  C   UNL     1      42.939 -16.764   7.362  1.00  0.00     0.215 C 
BRANCH  20  21
HETATM   21  O   UNL     1      44.143 -17.512   7.531  1.00  0.00    -0.347 OA
BRANCH  21  22
HETATM   22  C   UNL     1      44.263 -18.671   6.817  1.00  0.00     0.069 A 
HETATM   23  C   UNL     1      44.862 -18.807   5.560  1.00  0.00     0.040 A 
HETATM   24  C   UNL     1      44.921 -20.063   4.946  1.00  0.00     0.045 A 
HETATM   25  C   UNL     1      44.381 -21.171   5.587  1.00  0.00     0.116 A 
HETATM   26  F   UNL     1      44.441 -22.370   4.993  1.00  0.00    -0.206 F 
HETATM   27  C   UNL     1      43.782 -21.052   6.833  1.00  0.00     0.045 A 
HETATM   28  C   UNL     1      43.725 -19.800   7.447  1.00  0.00     0.040 A 
ENDBRANCH  21  22
ENDBRANCH  20  21
ENDBRANCH  18  20
ENDBRANCH   8  14
BRANCH  12  29
HETATM   29  N   UNL     1      38.557 -13.349   2.056  1.00  0.00    -0.282 NA
HETATM   30  H   UNL     1      37.772 -13.707   2.595  1.00  0.00     0.126 HD
HETATM   31  H   UNL     1      38.299 -13.074   1.113  1.00  0.00     0.126 HD
ENDBRANCH  12  29
TORSDOF 5
ENDMDL
MODEL 4
REMARK VINA RESULT:      -7.9      3.566      6.934
REMARK  5 active torsions:
REMARK  status: ('A' for Active; 'I' for Inactive)
REMARK    1  A    between atoms: C_8  and  C_9 
REMARK    2  A    between atoms: C_13  and  C_14 
REMARK    3  A    between atoms: C_14  and  O_15 
REMARK    4  A    between atoms: O_15  and  C_16 
REMARK    5  A    between atoms: C_27  and  N_28 
ROOT
HETATM    1  C   UNL     1      39.373 -13.246   5.493  1.00  0.00     0.073 C 
HETATM    2  C   UNL     1      39.734 -13.148   4.057  1.00  0.00     0.062 A 
HETATM    3  N   UNL     1      39.489 -12.018   3.373  1.00  0.00    -0.177 NA
HETATM    4  N   UNL     1      39.935 -12.280   2.126  1.00  0.00    -0.256 N 
HETATM    5  H   UNL     1      39.846 -11.565   1.413  1.00  0.00     0.191 HD
HETATM    6  C   UNL     1      40.463 -13.525   2.010  1.00  0.00     0.175 A 
HETATM    7  C   UNL     1      40.354 -14.120   3.239  1.00  0.00     0.035 A 
HETATM    8  C   UNL     1      40.841 -15.515   3.455  1.00  0.00     0.111 A 
HETATM    9  C   UNL     1      41.436 -16.048   2.140  1.00  0.00     0.067 A 
HETATM   10  C   UNL     1      42.028 -17.446   2.205  1.00  0.00     0.020 C 
HETATM   11  N   UNL     1      42.520 -18.606   2.260  1.00  0.00    -0.096 N 
HETATM   12  C   UNL     1      41.482 -15.340   0.981  1.00  0.00     0.139 A 
HETATM   13  O   UNL     1      40.976 -14.030   0.894  1.00  0.00    -0.279 OA
ENDROOT
BRANCH   8  14
HETATM   14  C   UNL     1      41.797 -15.598   4.633  1.00  0.00    -0.003 A 
HETATM   15  S   UNL     1      43.046 -14.438   4.792  1.00  0.00    -0.098 SA
HETATM   16  C   UNL     1      43.577 -15.095   6.276  1.00  0.00    -0.013 A 
HETATM   17  C   UNL     1      44.696 -14.436   7.014  1.00  0.00     0.057 C 
HETATM   18  C   UNL     1      42.867 -16.233   6.628  1.00  0.00    -0.020 A 
HETATM   19  C   UNL     1      41.822 -16.499   5.681  1.00  0.00     0.026 A 
BRANCH  18  20
HETATM   20  C   UNL     1      43.132 -17.075   7.850  1.00  0.00     0.215 C 
BRANCH  20  21
HETATM   21  O   UNL     1      44.382 -17.751   7.726  1.00  0.00    -0.347 OA
BRANCH  21  22
HETATM   22  C   UNL     1      44.416 -18.861   6.928  1.00  0.00     0.069 A 
HETATM   23  C   UNL     1      44.998 -18.947   5.659  1.00  0.00     0.040 A 
HETATM   24  C   UNL     1      44.964 -20.155   4.955  1.00  0.00     0.045 A 
HETATM   25  C   UNL     1      44.348 -21.266   5.518  1.00  0.00     0.116 A 
HETATM   26  F   UNL     1      44.319 -22.419   4.838  1.00  0.00    -0.206 F 
HETATM   27  C   UNL     1      43.765 -21.196   6.776  1.00  0.00     0.045 A 
HETATM   28  C   UNL     1      43.801 -19.991   7.479  1.00  0.00     0.040 A 
ENDBRANCH  21  22
ENDBRANCH  20  21
ENDBRANCH  18  20
ENDBRANCH   8  14
BRANCH  12  29
HETATM   29  N   UNL     1      42.015 -15.784  -0.207  1.00  0.00    -0.282 NA
HETATM   30  H   UNL     1      42.929 -16.227  -0.142  1.00  0.00     0.126 HD
HETATM   31  H   UNL     1      41.966 -15.079  -0.937  1.00  0.00     0.126 HD
ENDBRANCH  12  29
TORSDOF 5
ENDMDL
MODEL 5
REMARK VINA RESULT:      -7.7      5.467      8.777
REMARK  5 active torsions:
REMARK  status: ('A' for Active; 'I' for Inactive)
REMARK    1  A    between atoms: C_8  and  C_9 
REMARK    2  A    between atoms: C_13  and  C_14 
REMARK    3  A    between atoms: C_14  and  O_15 
REMARK    4  A    between atoms: O_15  and  C_16 
REMARK    5  A    between atoms: C_27  and  N_28 
ROOT
HETATM    1  C   UNL     1      43.138 -11.009  -1.203  1.00  0.00     0.073 C 
HETATM    2  C   UNL     1      42.358 -11.871  -2.125  1.00  0.00     0.062 A 
HETATM    3  N   UNL     1      42.785 -12.081  -3.382  1.00  0.00    -0.177 NA
HETATM    4  N   UNL     1      41.851 -12.892  -3.921  1.00  0.00    -0.256 N 
HETATM    5  H   UNL     1      41.954 -13.186  -4.885  1.00  0.00     0.191 HD
HETATM    6  C   UNL     1      40.866 -13.212  -3.043  1.00  0.00     0.175 A 
HETATM    7  C   UNL     1      41.158 -12.573  -1.867  1.00  0.00     0.035 A 
HETATM    8  C   UNL     1      40.258 -12.710  -0.683  1.00  0.00     0.111 A 
HETATM    9  C   UNL     1      39.087 -13.639  -1.047  1.00  0.00     0.067 A 
HETATM   10  C   UNL     1      38.102 -13.926   0.074  1.00  0.00     0.020 C 
HETATM   11  N   UNL     1      37.286 -14.165   1.005  1.00  0.00    -0.096 N 
HETATM   12  C   UNL     1      38.921 -14.214  -2.267  1.00  0.00     0.139 A 
HETATM   13  O   UNL     1      39.833 -13.998  -3.317  1.00  0.00    -0.279 OA
ENDROOT
BRANCH   8  14
HETATM   14  C   UNL     1      41.024 -13.152   0.552  1.00  0.00    -0.003 A 
HETATM   15  S   UNL     1      41.038 -12.153   1.943  1.00  0.00    -0.098 SA
HETATM   16  C   UNL     1      41.946 -13.283   2.845  1.00  0.00    -0.013 A 
HETATM   17  C   UNL     1      42.263 -12.998   4.276  1.00  0.00     0.057 C 
HETATM   18  C   UNL     1      42.307 -14.388   2.088  1.00  0.00    -0.020 A 
HETATM   19  C   UNL     1      41.745 -14.312   0.770  1.00  0.00     0.026 A 
BRANCH  18  20
HETATM   20  C   UNL     1      43.157 -15.532   2.577  1.00  0.00     0.215 C 
BRANCH  20  21
HETATM   21  O   UNL     1      42.339 -16.654   2.905  1.00  0.00    -0.347 OA
BRANCH  21  22
HETATM   22  C   UNL     1      42.934 -17.885   2.892  1.00  0.00     0.069 A 
HETATM   23  C   UNL     1      42.845 -18.833   1.867  1.00  0.00     0.040 A 
HETATM   24  C   UNL     1      43.514 -20.055   1.986  1.00  0.00     0.045 A 
HETATM   25  C   UNL     1      44.263 -20.326   3.124  1.00  0.00     0.116 A 
HETATM   26  F   UNL     1      44.901 -21.498   3.231  1.00  0.00    -0.206 F 
HETATM   27  C   UNL     1      44.359 -19.396   4.150  1.00  0.00     0.045 A 
HETATM   28  C   UNL     1      43.693 -18.175   4.031  1.00  0.00     0.040 A 
ENDBRANCH  21  22
ENDBRANCH  20  21
ENDBRANCH  18  20
ENDBRANCH   8  14
BRANCH  12  29
HETATM   29  N   UNL     1      37.891 -15.055  -2.621  1.00  0.00    -0.282 NA
HETATM   30  H   UNL     1      37.698 -15.813  -1.971  1.00  0.00     0.126 HD
HETATM   31  H   UNL     1      37.965 -15.367  -3.585  1.00  0.00     0.126 HD
ENDBRANCH  12  29
TORSDOF 5
ENDMDL
MODEL 6
REMARK VINA RESULT:      -7.6      3.981      7.223
REMARK  5 active torsions:
REMARK  status: ('A' for Active; 'I' for Inactive)
REMARK    1  A    between atoms: C_8  and  C_9 
REMARK    2  A    between atoms: C_13  and  C_14 
REMARK    3  A    between atoms: C_14  and  O_15 
REMARK    4  A    between atoms: O_15  and  C_16 
REMARK    5  A    between atoms: C_27  and  N_28 
ROOT
HETATM    1  C   UNL     1      39.394 -12.631   7.146  1.00  0.00     0.073 C 
HETATM    2  C   UNL     1      39.235 -12.150   5.751  1.00  0.00     0.062 A 
HETATM    3  N   UNL     1      38.906 -10.870   5.509  1.00  0.00    -0.177 NA
HETATM    4  N   UNL     1      38.847 -10.789   4.163  1.00  0.00    -0.256 N 
HETATM    5  H   UNL     1      38.602  -9.904   3.735  1.00  0.00     0.191 HD
HETATM    6  C   UNL     1      39.144 -11.966   3.555  1.00  0.00     0.175 A 
HETATM    7  C   UNL     1      39.404 -12.873   4.548  1.00  0.00     0.035 A 
HETATM    8  C   UNL     1      39.761 -14.285   4.215  1.00  0.00     0.111 A 
HETATM    9  C   UNL     1      39.784 -14.449   2.685  1.00  0.00     0.067 A 
HETATM   10  C   UNL     1      40.185 -15.824   2.178  1.00  0.00     0.020 C 
HETATM   11  N   UNL     1      40.519 -16.965   1.757  1.00  0.00    -0.096 N 
HETATM   12  C   UNL     1      39.505 -13.450   1.807  1.00  0.00     0.139 A 
HETATM   13  O   UNL     1      39.166 -12.156   2.241  1.00  0.00    -0.279 OA
ENDROOT
BRANCH   8  14
HETATM   14  C   UNL     1      41.052 -14.709   4.892  1.00  0.00    -0.003 A 
HETATM   15  S   UNL     1      42.316 -13.572   5.094  1.00  0.00    -0.098 SA
HETATM   16  C   UNL     1      43.293 -14.687   5.941  1.00  0.00    -0.013 A 
HETATM   17  C   UNL     1      44.614 -14.245   6.483  1.00  0.00     0.057 C 
HETATM   18  C   UNL     1      42.710 -15.942   6.018  1.00  0.00    -0.020 A 
HETATM   19  C   UNL     1      41.400 -15.935   5.429  1.00  0.00     0.026 A 
BRANCH  18  20
HETATM   20  C   UNL     1      43.343 -17.154   6.650  1.00  0.00     0.215 C 
BRANCH  20  21
HETATM   21  O   UNL     1      44.519 -17.531   5.935  1.00  0.00    -0.347 OA
BRANCH  21  22
HETATM   22  C   UNL     1      44.358 -18.361   4.861  1.00  0.00     0.069 A 
HETATM   23  C   UNL     1      43.829 -18.005   3.616  1.00  0.00     0.040 A 
HETATM   24  C   UNL     1      43.729 -18.961   2.600  1.00  0.00     0.045 A 
HETATM   25  C   UNL     1      44.154 -20.264   2.833  1.00  0.00     0.116 A 
HETATM   26  F   UNL     1      44.055 -21.174   1.856  1.00  0.00    -0.206 F 
HETATM   27  C   UNL     1      44.679 -20.632   4.063  1.00  0.00     0.045 A 
HETATM   28  C   UNL     1      44.781 -19.678   5.077  1.00  0.00     0.040 A 
ENDBRANCH  21  22
ENDBRANCH  20  21
ENDBRANCH  18  20
ENDBRANCH   8  14
BRANCH  12  29
HETATM   29  N   UNL     1      39.527 -13.563   0.435  1.00  0.00    -0.282 NA
HETATM   30  H   UNL     1      40.163 -14.263   0.060  1.00  0.00     0.126 HD
HETATM   31  H   UNL     1      39.615 -12.660  -0.022  1.00  0.00     0.126 HD
ENDBRANCH  12  29
TORSDOF 5
ENDMDL
MODEL 7
REMARK VINA RESULT:      -7.5      3.940      6.224
REMARK  5 active torsions:
REMARK  status: ('A' for Active; 'I' for Inactive)
REMARK    1  A    between atoms: C_8  and  C_9 
REMARK    2  A    between atoms: C_13  and  C_14 
REMARK    3  A    between atoms: C_14  and  O_15 
REMARK    4  A    between atoms: O_15  and  C_16 
REMARK    5  A    between atoms: C_27  and  N_28 
ROOT
HETATM    1  C   UNL     1      39.412 -13.452   5.689  1.00  0.00     0.073 C 
HETATM    2  C   UNL     1      39.852 -13.424   4.273  1.00  0.00     0.062 A 
HETATM    3  N   UNL     1      39.620 -12.341   3.513  1.00  0.00    -0.177 NA
HETATM    4  N   UNL     1      40.141 -12.659   2.309  1.00  0.00    -0.256 N 
HETATM    5  H   UNL     1      40.077 -11.987   1.553  1.00  0.00     0.191 HD
HETATM    6  C   UNL     1      40.705 -13.893   2.293  1.00  0.00     0.175 A 
HETATM    7  C   UNL     1      40.541 -14.422   3.546  1.00  0.00     0.035 A 
HETATM    8  C   UNL     1      41.047 -15.790   3.868  1.00  0.00     0.111 A 
HETATM    9  C   UNL     1      41.729 -16.379   2.620  1.00  0.00     0.067 A 
HETATM   10  C   UNL     1      42.349 -17.755   2.797  1.00  0.00     0.020 C 
HETATM   11  N   UNL     1      42.865 -18.896   2.945  1.00  0.00    -0.096 N 
HETATM   12  C   UNL     1      41.823 -15.734   1.427  1.00  0.00     0.139 A 
HETATM   13  O   UNL     1      41.292 -14.445   1.239  1.00  0.00    -0.279 OA
ENDROOT
BRANCH   8  14
HETATM   14  C   UNL     1      41.937 -15.782   5.099  1.00  0.00    -0.003 A 
HETATM   15  S   UNL     1      41.769 -17.017   6.274  1.00  0.00    -0.098 SA
HETATM   16  C   UNL     1      43.063 -16.414   7.210  1.00  0.00    -0.013 A 
HETATM   17  C   UNL     1      43.486 -17.149   8.440  1.00  0.00     0.057 C 
HETATM   18  C   UNL     1      43.585 -15.240   6.688  1.00  0.00    -0.020 A 
HETATM   19  C   UNL     1      42.941 -14.899   5.451  1.00  0.00     0.026 A 
BRANCH  18  20
HETATM   20  C   UNL     1      44.693 -14.433   7.312  1.00  0.00     0.215 C 
BRANCH  20  21
HETATM   21  O   UNL     1      44.371 -13.043   7.289  1.00  0.00    -0.347 OA
BRANCH  21  22
HETATM   22  C   UNL     1      44.463 -12.360   8.469  1.00  0.00     0.069 A 
HETATM   23  C   UNL     1      45.503 -12.459   9.400  1.00  0.00     0.040 A 
HETATM   24  C   UNL     1      45.470 -11.692  10.569  1.00  0.00     0.045 A 
HETATM   25  C   UNL     1      44.401 -10.836  10.804  1.00  0.00     0.116 A 
HETATM   26  F   UNL     1      44.375 -10.105  11.925  1.00  0.00    -0.206 F 
HETATM   27  C   UNL     1      43.361 -10.729   9.891  1.00  0.00     0.045 A 
HETATM   28  C   UNL     1      43.394 -11.493   8.723  1.00  0.00     0.040 A 
ENDBRANCH  21  22
ENDBRANCH  20  21
ENDBRANCH  18  20
ENDBRANCH   8  14
BRANCH  12  29
HETATM   29  N   UNL     1      42.434 -16.230   0.297  1.00  0.00    -0.282 NA
HETATM   30  H   UNL     1      41.919 -16.951  -0.202  1.00  0.00     0.126 HD
HETATM   31  H   UNL     1      43.405 -16.479   0.464  1.00  0.00     0.126 HD
ENDBRANCH  12  29
TORSDOF 5
ENDMDL
MODEL 8
REMARK VINA RESULT:      -7.5      4.647      8.179
REMARK  5 active torsions:
REMARK  status: ('A' for Active; 'I' for Inactive)
REMARK    1  A    between atoms: C_8  and  C_9 
REMARK    2  A    between atoms: C_13  and  C_14 
REMARK    3  A    between atoms: C_14  and  O_15 
REMARK    4  A    between atoms: O_15  and  C_16 
REMARK    5  A    between atoms: C_27  and  N_28 
ROOT
HETATM    1  C   UNL     1      40.397 -13.311   1.680  1.00  0.00     0.073 C 
HETATM    2  C   UNL     1      39.543 -12.390   2.468  1.00  0.00     0.062 A 
HETATM    3  N   UNL     1      38.349 -11.997   1.992  1.00  0.00    -0.177 NA
HETATM    4  N   UNL     1      37.860 -11.180   2.949  1.00  0.00    -0.256 N 
HETATM    5  H   UNL     1      36.956 -10.745   2.807  1.00  0.00     0.191 HD
HETATM    6  C   UNL     1      38.696 -11.060   4.012  1.00  0.00     0.175 A 
HETATM    7  C   UNL     1      39.796 -11.830   3.742  1.00  0.00     0.035 A 
HETATM    8  C   UNL     1      40.924 -11.914   4.718  1.00  0.00     0.111 A 
HETATM    9  C   UNL     1      40.587 -11.056   5.950  1.00  0.00     0.067 A 
HETATM   10  C   UNL     1      41.617 -11.077   7.067  1.00  0.00     0.020 C 
HETATM   11  N   UNL     1      42.471 -11.096   7.995  1.00  0.00    -0.096 N 
HETATM   12  C   UNL     1      39.442 -10.337   6.088  1.00  0.00     0.139 A 
HETATM   13  O   UNL     1      38.452 -10.324   5.089  1.00  0.00    -0.279 OA
ENDROOT
BRANCH   8  14
HETATM   14  C   UNL     1      41.265 -13.356   5.055  1.00  0.00    -0.003 A 
HETATM   15  S   UNL     1      40.095 -14.346   5.819  1.00  0.00    -0.098 SA
HETATM   16  C   UNL     1      41.111 -15.717   5.778  1.00  0.00    -0.013 A 
HETATM   17  C   UNL     1      40.602 -17.026   6.287  1.00  0.00     0.057 C 
HETATM   18  C   UNL     1      42.363 -15.426   5.257  1.00  0.00    -0.020 A 
HETATM   19  C   UNL     1      42.430 -14.061   4.818  1.00  0.00     0.026 A 
BRANCH  18  20
HETATM   20  C   UNL     1      43.501 -16.406   5.141  1.00  0.00     0.215 C 
BRANCH  20  21
HETATM   21  O   UNL     1      43.596 -16.903   3.807  1.00  0.00    -0.347 OA
BRANCH  21  22
HETATM   22  C   UNL     1      43.890 -18.229   3.653  1.00  0.00     0.069 A 
HETATM   23  C   UNL     1      44.483 -19.058   4.611  1.00  0.00     0.040 A 
HETATM   24  C   UNL     1      44.721 -20.405   4.318  1.00  0.00     0.045 A 
HETATM   25  C   UNL     1      44.369 -20.915   3.075  1.00  0.00     0.116 A 
HETATM   26  F   UNL     1      44.599 -22.205   2.801  1.00  0.00    -0.206 F 
HETATM   27  C   UNL     1      43.781 -20.104   2.114  1.00  0.00     0.045 A 
HETATM   28  C   UNL     1      43.542 -18.760   2.406  1.00  0.00     0.040 A 
ENDBRANCH  21  22
ENDBRANCH  20  21
ENDBRANCH  18  20
ENDBRANCH   8  14
BRANCH  12  29
HETATM   29  N   UNL     1      39.108  -9.569   7.180  1.00  0.00    -0.282 NA
HETATM   30  H   UNL     1      38.189  -9.744   7.578  1.00  0.00     0.126 HD
HETATM   31  H   UNL     1      39.292  -8.581   7.024  1.00  0.00     0.126 HD
ENDBRANCH  12  29
TORSDOF 5
ENDMDL
MODEL 9
REMARK VINA RESULT:      -7.4      4.124      7.699
REMARK  5 active torsions:
REMARK  status: ('A' for Active; 'I' for Inactive)
REMARK    1  A    between atoms: C_8  and  C_9 
REMARK    2  A    between atoms: C_13  and  C_14 
REMARK    3  A    between atoms: C_14  and  O_15 
REMARK    4  A    between atoms: O_15  and  C_16 
REMARK    5  A    between atoms: C_27  and  N_28 
ROOT
HETATM    1  C   UNL     1      42.150 -15.010   1.117  1.00  0.00     0.073 C 
HETATM    2  C   UNL     1      40.833 -14.340   1.244  1.00  0.00     0.062 A 
HETATM    3  N   UNL     1      39.842 -14.625   0.382  1.00  0.00    -0.177 NA
HETATM    4  N   UNL     1      38.814 -13.848   0.786  1.00  0.00    -0.256 N 
HETATM    5  H   UNL     1      37.942 -13.883   0.272  1.00  0.00     0.191 HD
HETATM    6  C   UNL     1      39.121 -13.101   1.877  1.00  0.00     0.175 A 
HETATM    7  C   UNL     1      40.418 -13.391   2.207  1.00  0.00     0.035 A 
HETATM    8  C   UNL     1      41.075 -12.725   3.371  1.00  0.00     0.111 A 
HETATM    9  C   UNL     1      40.067 -11.773   4.039  1.00  0.00     0.067 A 
HETATM   10  C   UNL     1      40.566 -11.052   5.280  1.00  0.00     0.020 C 
HETATM   11  N   UNL     1      40.980 -10.455   6.311  1.00  0.00    -0.096 N 
HETATM   12  C   UNL     1      38.794 -11.581   3.602  1.00  0.00     0.139 A 
HETATM   13  O   UNL     1      38.288 -12.259   2.478  1.00  0.00    -0.279 OA
ENDROOT
BRANCH   8  14
HETATM   14  C   UNL     1      41.679 -13.739   4.328  1.00  0.00    -0.003 A 
HETATM   15  S   UNL     1      43.297 -13.548   4.854  1.00  0.00    -0.098 SA
HETATM   16  C   UNL     1      43.208 -14.907   5.884  1.00  0.00    -0.013 A 
HETATM   17  C   UNL     1      44.382 -15.262   6.737  1.00  0.00     0.057 C 
HETATM   18  C   UNL     1      41.987 -15.558   5.787  1.00  0.00    -0.020 A 
HETATM   19  C   UNL     1      41.101 -14.856   4.902  1.00  0.00     0.026 A 
BRANCH  18  20
HETATM   20  C   UNL     1      41.619 -16.820   6.523  1.00  0.00     0.215 C 
BRANCH  20  21
HETATM   21  O   UNL     1      41.241 -17.841   5.600  1.00  0.00    -0.347 OA
BRANCH  21  22
HETATM   22  C   UNL     1      42.235 -18.405   4.851  1.00  0.00     0.069 A 
HETATM   23  C   UNL     1      42.352 -18.348   3.458  1.00  0.00     0.040 A 
HETATM   24  C   UNL     1      43.431 -18.969   2.821  1.00  0.00     0.045 A 
HETATM   25  C   UNL     1      44.383 -19.644   3.574  1.00  0.00     0.116 A 
HETATM   26  F   UNL     1      45.413 -20.237   2.958  1.00  0.00    -0.206 F 
HETATM   27  C   UNL     1      44.280 -19.711   4.957  1.00  0.00     0.045 A 
HETATM   28  C   UNL     1      43.204 -19.090   5.593  1.00  0.00     0.040 A 
ENDBRANCH  21  22
ENDBRANCH  20  21
ENDBRANCH  18  20
ENDBRANCH   8  14
BRANCH  12  29
HETATM   29  N   UNL     1      37.868 -10.745   4.181  1.00  0.00    -0.282 NA
HETATM   30  H   UNL     1      36.973 -10.679   3.702  1.00  0.00     0.126 HD
HETATM   31  H   UNL     1      38.263  -9.838   4.413  1.00  0.00     0.126 HD
ENDBRANCH  12  29
TORSDOF 5
ENDMDL
MODEL 10
REMARK VINA RESULT:      -7.4      4.213      7.522
REMARK  5 active torsions:
REMARK  status: ('A' for Active; 'I' for Inactive)
REMARK    1  A    between atoms: C_8  and  C_9 
REMARK    2  A    between atoms: C_13  and  C_14 
REMARK    3  A    between atoms: C_14  and  O_15 
REMARK    4  A    between atoms: O_15  and  C_16 
REMARK    5  A    between atoms: C_27  and  N_28 
ROOT
HETATM    1  C   UNL     1      41.055 -13.508   2.000  1.00  0.00     0.073 C 
HETATM    2  C   UNL     1      40.050 -12.689   2.721  1.00  0.00     0.062 A 
HETATM    3  N   UNL     1      38.845 -12.459   2.174  1.00  0.00    -0.177 NA
HETATM    4  N   UNL     1      38.205 -11.695   3.084  1.00  0.00    -0.256 N 
HETATM    5  H   UNL     1      37.262 -11.381   2.885  1.00  0.00     0.191 HD
HETATM    6  C   UNL     1      38.959 -11.453   4.186  1.00  0.00     0.175 A 
HETATM    7  C   UNL     1      40.161 -12.081   3.992  1.00  0.00     0.035 A 
HETATM    8  C   UNL     1      41.235 -12.004   5.027  1.00  0.00     0.111 A 
HETATM    9  C   UNL     1      40.726 -11.175   6.220  1.00  0.00     0.067 A 
HETATM   10  C   UNL     1      41.687 -11.047   7.389  1.00  0.00     0.020 C 
HETATM   11  N   UNL     1      42.484 -10.941   8.360  1.00  0.00    -0.096 N 
HETATM   12  C   UNL     1      39.493 -10.605   6.281  1.00  0.00     0.139 A 
HETATM   13  O   UNL     1      38.565 -10.735   5.231  1.00  0.00    -0.279 OA
ENDROOT
BRANCH   8  14
HETATM   14  C   UNL     1      41.736 -13.385   5.416  1.00  0.00    -0.003 A 
HETATM   15  S   UNL     1      43.413 -13.645   5.641  1.00  0.00    -0.098 SA
HETATM   16  C   UNL     1      43.180 -15.270   6.111  1.00  0.00    -0.013 A 
HETATM   17  C   UNL     1      44.356 -16.092   6.528  1.00  0.00     0.057 C 
HETATM   18  C   UNL     1      41.849 -15.652   6.033  1.00  0.00    -0.020 A 
HETATM   19  C   UNL     1      41.019 -14.543   5.654  1.00  0.00     0.026 A 
BRANCH  18  20
HETATM   20  C   UNL     1      41.326 -17.034   6.326  1.00  0.00     0.215 C 
BRANCH  20  21
HETATM   21  O   UNL     1      40.807 -17.631   5.139  1.00  0.00    -0.347 OA
BRANCH  21  22
HETATM   22  C   UNL     1      41.663 -17.770   4.082  1.00  0.00     0.069 A 
HETATM   23  C   UNL     1      42.865 -18.487   4.084  1.00  0.00     0.040 A 
HETATM   24  C   UNL     1      43.642 -18.550   2.923  1.00  0.00     0.045 A 
HETATM   25  C   UNL     1      43.220 -17.897   1.772  1.00  0.00     0.116 A 
HETATM   26  F   UNL     1      43.969 -17.962   0.664  1.00  0.00    -0.206 F 
HETATM   27  C   UNL     1      42.031 -17.181   1.756  1.00  0.00     0.045 A 
HETATM   28  C   UNL     1      41.254 -17.119   2.913  1.00  0.00     0.040 A 
ENDBRANCH  21  22
ENDBRANCH  20  21
ENDBRANCH  18  20
ENDBRANCH   8  14
BRANCH  12  29
HETATM   29  N   UNL     1      39.006  -9.867   7.335  1.00  0.00    -0.282 NA
HETATM   30  H   UNL     1      38.283  -9.190   7.102  1.00  0.00     0.126 HD
HETATM   31  H   UNL     1      39.750  -9.474   7.904  1.00  0.00     0.126 HD
ENDBRANCH  12  29
TORSDOF 5
ENDMDL
