MODEL 1
REMARK VINA RESULT:      -8.1      0.000      0.000
REMARK  2 active torsions:
REMARK  status: ('A' for Active; 'I' for Inactive)
REMARK    1  A    between atoms: C_2  and  C_3 
REMARK    2  A    between atoms: C_6  and  C_7 
ROOT
HETATM    1  C   UNL     1      42.552 -15.647   3.200  1.00  0.00     0.119 C 
HETATM    2  S   UNL     1      42.166 -14.946   1.581  1.00  0.00    -0.141 SA
HETATM    3  C   UNL     1      40.522 -15.610   1.204  1.00  0.00     0.136 C 
HETATM    4  C   UNL     1      40.273 -17.098   1.376  1.00  0.00     0.031 C 
HETATM    5  C   UNL     1      39.448 -14.806   1.879  1.00  0.00     0.236 C 
HETATM    6  O   UNL     1      38.507 -14.307   1.275  1.00  0.00    -0.272 OA
HETATM    7  N   UNL     1      39.358 -14.642   3.291  1.00  0.00    -0.311 N 
HETATM    8  C   UNL     1      40.222 -15.035   4.293  1.00  0.00     0.134 A 
HETATM    9  C   UNL     1      41.536 -15.477   4.285  1.00  0.00     0.032 A 
HETATM   10  N   UNL     1      39.848 -14.979   5.613  1.00  0.00    -0.262 N 
HETATM   11  H   UNL     1      38.956 -14.690   5.999  1.00  0.00     0.191 HD
HETATM   12  N   UNL     1      40.789 -15.368   6.467  1.00  0.00    -0.178 NA
HETATM   13  C   UNL     1      41.838 -15.640   5.689  1.00  0.00     0.062 A 
HETATM   14  C   UNL     1      43.116 -16.059   6.332  1.00  0.00     0.073 C 
HETATM   15  H   UNL     1      38.499 -14.167   3.554  1.00  0.00     0.170 HD
ENDROOT
BRANCH   1  16
HETATM   16  C   UNL     1      43.095 -17.072   3.145  1.00  0.00    -0.040 A 
HETATM   17  C   UNL     1      43.836 -17.444   2.005  1.00  0.00     0.009 A 
HETATM   18  C   UNL     1      44.388 -18.721   1.873  1.00  0.00     0.007 A 
HETATM   19  C   UNL     1      44.214 -19.674   2.878  1.00  0.00    -0.059 A 
HETATM   20  C   UNL     1      43.487 -19.322   4.019  1.00  0.00     0.007 A 
HETATM   21  C   UNL     1      42.934 -18.042   4.150  1.00  0.00     0.009 A 
BRANCH  19  22
HETATM   22  C   UNL     1      44.830 -21.044   2.746  1.00  0.00     0.034 C 
HETATM   23  C   UNL     1      44.120 -21.887   1.698  1.00  0.00     0.010 C 
ENDBRANCH  19  22
ENDBRANCH   1  16
TORSDOF 2
ENDMDL
MODEL 2
REMARK VINA RESULT:      -8.1      1.321      1.518
REMARK  2 active torsions:
REMARK  status: ('A' for Active; 'I' for Inactive)
REMARK    1  A    between atoms: C_2  and  C_3 
REMARK    2  A    between atoms: C_6  and  C_7 
ROOT
HETATM    1  C   UNL     1      42.921 -16.378   4.033  1.00  0.00     0.119 C 
HETATM    2  S   UNL     1      42.964 -15.047   2.813  1.00  0.00    -0.141 SA
HETATM    3  C   UNL     1      41.337 -15.138   2.017  1.00  0.00     0.136 C 
HETATM    4  C   UNL     1      40.830 -16.485   1.534  1.00  0.00     0.031 C 
HETATM    5  C   UNL     1      40.294 -14.438   2.841  1.00  0.00     0.236 C 
HETATM    6  O   UNL     1      39.574 -13.552   2.395  1.00  0.00    -0.272 OA
HETATM    7  N   UNL     1      39.965 -14.808   4.175  1.00  0.00    -0.311 N 
HETATM    8  C   UNL     1      40.551 -15.734   5.016  1.00  0.00     0.134 A 
HETATM    9  C   UNL     1      41.757 -16.417   4.972  1.00  0.00     0.032 A 
HETATM   10  N   UNL     1      39.948 -16.105   6.192  1.00  0.00    -0.262 N 
HETATM   11  H   UNL     1      39.056 -15.796   6.562  1.00  0.00     0.191 HD
HETATM   12  N   UNL     1      40.637 -16.986   6.909  1.00  0.00    -0.178 NA
HETATM   13  C   UNL     1      41.759 -17.164   6.210  1.00  0.00     0.062 A 
HETATM   14  C   UNL     1      42.810 -18.067   6.760  1.00  0.00     0.073 C 
HETATM   15  H   UNL     1      39.158 -14.294   4.514  1.00  0.00     0.170 HD
ENDROOT
BRANCH   1  16
HETATM   16  C   UNL     1      43.234 -17.756   3.457  1.00  0.00    -0.040 A 
HETATM   17  C   UNL     1      44.326 -18.460   4.006  1.00  0.00     0.009 A 
HETATM   18  C   UNL     1      44.678 -19.735   3.557  1.00  0.00     0.007 A 
HETATM   19  C   UNL     1      43.951 -20.352   2.537  1.00  0.00    -0.059 A 
HETATM   20  C   UNL     1      42.861 -19.673   1.984  1.00  0.00     0.007 A 
HETATM   21  C   UNL     1      42.510 -18.394   2.435  1.00  0.00     0.009 A 
BRANCH  19  22
HETATM   22  C   UNL     1      44.316 -21.738   2.069  1.00  0.00     0.034 C 
HETATM   23  C   UNL     1      44.635 -22.664   3.232  1.00  0.00     0.010 C 
ENDBRANCH  19  22
ENDBRANCH   1  16
TORSDOF 2
ENDMDL
MODEL 3
REMARK VINA RESULT:      -7.9      3.382      5.981
REMARK  2 active torsions:
REMARK  status: ('A' for Active; 'I' for Inactive)
REMARK    1  A    between atoms: C_2  and  C_3 
REMARK    2  A    between atoms: C_6  and  C_7 
ROOT
HETATM    1  C   UNL     1      43.199 -16.078   3.947  1.00  0.00     0.119 C 
HETATM    2  S   UNL     1      43.353 -15.365   5.599  1.00  0.00    -0.141 SA
HETATM    3  C   UNL     1      42.431 -16.516   6.654  1.00  0.00     0.136 C 
HETATM    4  C   UNL     1      41.039 -16.949   6.228  1.00  0.00     0.031 C 
HETATM    5  C   UNL     1      43.273 -17.706   7.018  1.00  0.00     0.236 C 
HETATM    6  O   UNL     1      43.469 -18.057   8.175  1.00  0.00    -0.272 OA
HETATM    7  N   UNL     1      43.829 -18.600   6.060  1.00  0.00    -0.311 N 
HETATM    8  C   UNL     1      43.841 -18.537   4.681  1.00  0.00     0.134 A 
HETATM    9  C   UNL     1      43.563 -17.519   3.781  1.00  0.00     0.032 A 
HETATM   10  N   UNL     1      44.236 -19.613   3.926  1.00  0.00    -0.262 N 
HETATM   11  H   UNL     1      44.525 -20.531   4.248  1.00  0.00     0.191 HD
HETATM   12  N   UNL     1      44.218 -19.401   2.614  1.00  0.00    -0.178 NA
HETATM   13  C   UNL     1      43.850 -18.124   2.500  1.00  0.00     0.062 A 
HETATM   14  C   UNL     1      43.778 -17.519   1.139  1.00  0.00     0.073 C 
HETATM   15  H   UNL     1      44.262 -19.401   6.510  1.00  0.00     0.170 HD
ENDROOT
BRANCH   1  16
HETATM   16  C   UNL     1      41.888 -15.737   3.244  1.00  0.00    -0.040 A 
HETATM   17  C   UNL     1      41.622 -14.376   2.985  1.00  0.00     0.009 A 
HETATM   18  C   UNL     1      40.457 -13.968   2.331  1.00  0.00     0.007 A 
HETATM   19  C   UNL     1      39.513 -14.909   1.915  1.00  0.00    -0.059 A 
HETATM   20  C   UNL     1      39.762 -16.262   2.158  1.00  0.00     0.007 A 
HETATM   21  C   UNL     1      40.930 -16.670   2.814  1.00  0.00     0.009 A 
BRANCH  19  22
HETATM   22  C   UNL     1      38.268 -14.470   1.187  1.00  0.00     0.034 C 
HETATM   23  C   UNL     1      38.589 -13.829  -0.154  1.00  0.00     0.010 C 
ENDBRANCH  19  22
ENDBRANCH   1  16
TORSDOF 2
ENDMDL
MODEL 4
REMARK VINA RESULT:      -7.9      2.597      4.058
REMARK  2 active torsions:
REMARK  status: ('A' for Active; 'I' for Inactive)
REMARK    1  A    between atoms: C_2  and  C_3 
REMARK    2  A    between atoms: C_6  and  C_7 
ROOT
HETATM    1  C   UNL     1      41.226 -15.480   2.574  1.00  0.00     0.119 C 
HETATM    2  S   UNL     1      40.789 -14.967   4.249  1.00  0.00    -0.141 SA
HETATM    3  C   UNL     1      42.178 -13.918   4.756  1.00  0.00     0.136 C 
HETATM    4  C   UNL     1      43.594 -14.425   4.549  1.00  0.00     0.031 C 
HETATM    5  C   UNL     1      42.025 -12.524   4.219  1.00  0.00     0.236 C 
HETATM    6  O   UNL     1      42.052 -11.527   4.930  1.00  0.00    -0.272 OA
HETATM    7  N   UNL     1      41.946 -12.219   2.831  1.00  0.00    -0.311 N 
HETATM    8  C   UNL     1      41.871 -13.056   1.735  1.00  0.00     0.134 A 
HETATM    9  C   UNL     1      41.600 -14.409   1.599  1.00  0.00     0.032 A 
HETATM   10  N   UNL     1      42.026 -12.570   0.461  1.00  0.00    -0.262 N 
HETATM   11  H   UNL     1      42.224 -11.618   0.174  1.00  0.00     0.191 HD
HETATM   12  N   UNL     1      41.906 -13.486  -0.495  1.00  0.00    -0.178 NA
HETATM   13  C   UNL     1      41.609 -14.605   0.167  1.00  0.00     0.062 A 
HETATM   14  C   UNL     1      41.346 -15.849  -0.612  1.00  0.00     0.073 C 
HETATM   15  H   UNL     1      41.965 -11.216   2.670  1.00  0.00     0.170 HD
ENDROOT
BRANCH   1  16
HETATM   16  C   UNL     1      42.191 -16.661   2.520  1.00  0.00    -0.040 A 
HETATM   17  C   UNL     1      41.905 -17.776   3.335  1.00  0.00     0.009 A 
HETATM   18  C   UNL     1      42.720 -18.911   3.340  1.00  0.00     0.007 A 
HETATM   19  C   UNL     1      43.855 -18.969   2.529  1.00  0.00    -0.059 A 
HETATM   20  C   UNL     1      44.153 -17.877   1.710  1.00  0.00     0.007 A 
HETATM   21  C   UNL     1      43.335 -16.739   1.707  1.00  0.00     0.009 A 
BRANCH  19  22
HETATM   22  C   UNL     1      44.721 -20.204   2.517  1.00  0.00     0.034 C 
HETATM   23  C   UNL     1      43.963 -21.424   2.018  1.00  0.00     0.010 C 
ENDBRANCH  19  22
ENDBRANCH   1  16
TORSDOF 2
ENDMDL
MODEL 5
REMARK VINA RESULT:      -7.0      3.277      5.361
REMARK  2 active torsions:
REMARK  status: ('A' for Active; 'I' for Inactive)
REMARK    1  A    between atoms: C_2  and  C_3 
REMARK    2  A    between atoms: C_6  and  C_7 
ROOT
HETATM    1  C   UNL     1      41.625 -16.045   4.936  1.00  0.00     0.119 C 
HETATM    2  S   UNL     1      41.432 -17.833   5.103  1.00  0.00    -0.141 SA
HETATM    3  C   UNL     1      43.054 -18.489   4.625  1.00  0.00     0.136 C 
HETATM    4  C   UNL     1      43.698 -17.992   3.343  1.00  0.00     0.031 C 
HETATM    5  C   UNL     1      44.022 -18.420   5.772  1.00  0.00     0.236 C 
HETATM    6  O   UNL     1      44.640 -19.394   6.184  1.00  0.00    -0.272 OA
HETATM    7  N   UNL     1      44.397 -17.207   6.414  1.00  0.00    -0.311 N 
HETATM    8  C   UNL     1      43.918 -15.922   6.247  1.00  0.00     0.134 A 
HETATM    9  C   UNL     1      42.792 -15.409   5.622  1.00  0.00     0.032 A 
HETATM   10  N   UNL     1      44.566 -14.847   6.803  1.00  0.00    -0.262 N 
HETATM   11  H   UNL     1      45.423 -14.845   7.345  1.00  0.00     0.191 HD
HETATM   12  N   UNL     1      43.980 -13.676   6.578  1.00  0.00    -0.178 NA
HETATM   13  C   UNL     1      42.878 -13.993   5.895  1.00  0.00     0.062 A 
HETATM   14  C   UNL     1      41.933 -12.904   5.516  1.00  0.00     0.073 C 
HETATM   15  H   UNL     1      45.148 -17.358   7.082  1.00  0.00     0.170 HD
ENDROOT
BRANCH   1  16
HETATM   16  C   UNL     1      41.456 -15.535   3.508  1.00  0.00    -0.040 A 
HETATM   17  C   UNL     1      40.159 -15.562   2.954  1.00  0.00     0.009 A 
HETATM   18  C   UNL     1      39.904 -15.099   1.661  1.00  0.00     0.007 A 
HETATM   19  C   UNL     1      40.939 -14.595   0.873  1.00  0.00    -0.059 A 
HETATM   20  C   UNL     1      42.231 -14.554   1.406  1.00  0.00     0.007 A 
HETATM   21  C   UNL     1      42.486 -15.019   2.702  1.00  0.00     0.009 A 
BRANCH  19  22
HETATM   22  C   UNL     1      40.659 -14.073  -0.514  1.00  0.00     0.034 C 
HETATM   23  C   UNL     1      40.948 -15.116  -1.582  1.00  0.00     0.010 C 
ENDBRANCH  19  22
ENDBRANCH   1  16
TORSDOF 2
ENDMDL
MODEL 6
REMARK VINA RESULT:      -6.9      2.984      4.700
REMARK  2 active torsions:
REMARK  status: ('A' for Active; 'I' for Inactive)
REMARK    1  A    between atoms: C_2  and  C_3 
REMARK    2  A    between atoms: C_6  and  C_7 
ROOT
HETATM    1  C   UNL     1      40.518 -14.922   1.130  1.00  0.00     0.119 C 
HETATM    2  S   UNL     1      39.866 -14.227   2.663  1.00  0.00    -0.141 SA
HETATM    3  C   UNL     1      41.181 -13.111   3.225  1.00  0.00     0.136 C 
HETATM    4  C   UNL     1      42.610 -13.622   3.265  1.00  0.00     0.031 C 
HETATM    5  C   UNL     1      41.105 -11.789   2.517  1.00  0.00     0.236 C 
HETATM    6  O   UNL     1      41.042 -10.717   3.108  1.00  0.00    -0.272 OA
HETATM    7  N   UNL     1      41.210 -11.644   1.105  1.00  0.00    -0.311 N 
HETATM    8  C   UNL     1      41.276 -12.601   0.112  1.00  0.00     0.134 A 
HETATM    9  C   UNL     1      41.020 -13.964   0.096  1.00  0.00     0.032 A 
HETATM   10  N   UNL     1      41.600 -12.261  -1.178  1.00  0.00    -0.262 N 
HETATM   11  H   UNL     1      41.837 -11.346  -1.544  1.00  0.00     0.191 HD
HETATM   12  N   UNL     1      41.603 -13.281  -2.031  1.00  0.00    -0.178 NA
HETATM   13  C   UNL     1      41.217 -14.321  -1.290  1.00  0.00     0.062 A 
HETATM   14  C   UNL     1      41.054 -15.648  -1.950  1.00  0.00     0.073 C 
HETATM   15  H   UNL     1      41.254 -10.666   0.835  1.00  0.00     0.170 HD
ENDROOT
BRANCH   1  16
HETATM   16  C   UNL     1      41.478 -16.090   1.337  1.00  0.00    -0.040 A 
HETATM   17  C   UNL     1      40.918 -17.346   1.652  1.00  0.00     0.009 A 
HETATM   18  C   UNL     1      41.715 -18.478   1.842  1.00  0.00     0.007 A 
HETATM   19  C   UNL     1      43.103 -18.392   1.728  1.00  0.00    -0.059 A 
HETATM   20  C   UNL     1      43.677 -17.158   1.412  1.00  0.00     0.007 A 
HETATM   21  C   UNL     1      42.877 -16.024   1.221  1.00  0.00     0.009 A 
BRANCH  19  22
HETATM   22  C   UNL     1      43.961 -19.619   1.909  1.00  0.00     0.034 C 
HETATM   23  C   UNL     1      44.349 -19.830   3.365  1.00  0.00     0.010 C 
ENDBRANCH  19  22
ENDBRANCH   1  16
TORSDOF 2
ENDMDL
MODEL 7
REMARK VINA RESULT:      -6.9      3.336      6.063
REMARK  2 active torsions:
REMARK  status: ('A' for Active; 'I' for Inactive)
REMARK    1  A    between atoms: C_2  and  C_3 
REMARK    2  A    between atoms: C_6  and  C_7 
ROOT
HETATM    1  C   UNL     1      41.931 -17.005   5.216  1.00  0.00     0.119 C 
HETATM    2  S   UNL     1      41.171 -17.493   3.652  1.00  0.00    -0.141 SA
HETATM    3  C   UNL     1      42.464 -17.169   2.423  1.00  0.00     0.136 C 
HETATM    4  C   UNL     1      43.176 -15.828   2.443  1.00  0.00     0.031 C 
HETATM    5  C   UNL     1      43.453 -18.299   2.370  1.00  0.00     0.236 C 
HETATM    6  O   UNL     1      43.735 -18.892   1.337  1.00  0.00    -0.272 OA
HETATM    7  N   UNL     1      44.234 -18.714   3.485  1.00  0.00    -0.311 N 
HETATM    8  C   UNL     1      44.195 -18.307   4.805  1.00  0.00     0.134 A 
HETATM    9  C   UNL     1      43.272 -17.582   5.541  1.00  0.00     0.032 A 
HETATM   10  N   UNL     1      45.184 -18.668   5.686  1.00  0.00    -0.262 N 
HETATM   11  H   UNL     1      46.019 -19.215   5.501  1.00  0.00     0.191 HD
HETATM   12  N   UNL     1      45.004 -18.224   6.926  1.00  0.00    -0.178 NA
HETATM   13  C   UNL     1      43.830 -17.593   6.874  1.00  0.00     0.062 A 
HETATM   14  C   UNL     1      43.278 -17.006   8.128  1.00  0.00     0.073 C 
HETATM   15  H   UNL     1      44.923 -19.410   3.216  1.00  0.00     0.170 HD
ENDROOT
BRANCH   1  16
HETATM   16  C   UNL     1      41.874 -15.505   5.491  1.00  0.00    -0.040 A 
HETATM   17  C   UNL     1      40.601 -14.922   5.667  1.00  0.00     0.009 A 
HETATM   18  C   UNL     1      40.450 -13.560   5.940  1.00  0.00     0.007 A 
HETATM   19  C   UNL     1      41.568 -12.731   6.045  1.00  0.00    -0.059 A 
HETATM   20  C   UNL     1      42.838 -13.291   5.879  1.00  0.00     0.007 A 
HETATM   21  C   UNL     1      42.989 -14.657   5.604  1.00  0.00     0.009 A 
BRANCH  19  22
HETATM   22  C   UNL     1      41.406 -11.266   6.364  1.00  0.00     0.034 C 
HETATM   23  C   UNL     1      39.967 -10.917   6.711  1.00  0.00     0.010 C 
ENDBRANCH  19  22
ENDBRANCH   1  16
TORSDOF 2
ENDMDL
MODEL 8
REMARK VINA RESULT:      -6.9      2.954      4.306
REMARK  2 active torsions:
REMARK  status: ('A' for Active; 'I' for Inactive)
REMARK    1  A    between atoms: C_2  and  C_3 
REMARK    2  A    between atoms: C_6  and  C_7 
ROOT
HETATM    1  C   UNL     1      40.637 -15.502   3.254  1.00  0.00     0.119 C 
HETATM    2  S   UNL     1      40.049 -14.062   4.171  1.00  0.00    -0.141 SA
HETATM    3  C   UNL     1      41.341 -12.819   3.896  1.00  0.00     0.136 C 
HETATM    4  C   UNL     1      42.793 -13.210   4.105  1.00  0.00     0.031 C 
HETATM    5  C   UNL     1      41.156 -12.133   2.573  1.00  0.00     0.236 C 
HETATM    6  O   UNL     1      41.078 -10.916   2.455  1.00  0.00    -0.272 OA
HETATM    7  N   UNL     1      41.166 -12.816   1.324  1.00  0.00    -0.311 N 
HETATM    8  C   UNL     1      41.216 -14.168   1.045  1.00  0.00     0.134 A 
HETATM    9  C   UNL     1      41.026 -15.299   1.824  1.00  0.00     0.032 A 
HETATM   10  N   UNL     1      41.441 -14.620  -0.231  1.00  0.00    -0.262 N 
HETATM   11  H   UNL     1      41.611 -14.073  -1.068  1.00  0.00     0.191 HD
HETATM   12  N   UNL     1      41.441 -15.944  -0.353  1.00  0.00    -0.178 NA
HETATM   13  C   UNL     1      41.153 -16.380   0.874  1.00  0.00     0.062 A 
HETATM   14  C   UNL     1      41.013 -17.848   1.097  1.00  0.00     0.073 C 
HETATM   15  H   UNL     1      41.145 -12.165   0.545  1.00  0.00     0.170 HD
ENDROOT
BRANCH   1  16
HETATM   16  C   UNL     1      41.663 -16.342   4.011  1.00  0.00    -0.040 A 
HETATM   17  C   UNL     1      41.249 -16.950   5.214  1.00  0.00     0.009 A 
HETATM   18  C   UNL     1      42.112 -17.751   5.966  1.00  0.00     0.007 A 
HETATM   19  C   UNL     1      43.424 -17.969   5.542  1.00  0.00    -0.059 A 
HETATM   20  C   UNL     1      43.851 -17.379   4.349  1.00  0.00     0.007 A 
HETATM   21  C   UNL     1      42.986 -16.576   3.596  1.00  0.00     0.009 A 
BRANCH  19  22
HETATM   22  C   UNL     1      44.348 -18.853   6.341  1.00  0.00     0.034 C 
HETATM   23  C   UNL     1      44.171 -18.653   7.838  1.00  0.00     0.010 C 
ENDBRANCH  19  22
ENDBRANCH   1  16
TORSDOF 2
ENDMDL
MODEL 9
REMARK VINA RESULT:      -6.9      2.826      4.124
REMARK  2 active torsions:
REMARK  status: ('A' for Active; 'I' for Inactive)
REMARK    1  A    between atoms: C_2  and  C_3 
REMARK    2  A    between atoms: C_6  and  C_7 
ROOT
HETATM    1  C   UNL     1      41.268 -14.191   0.455  1.00  0.00     0.119 C 
HETATM    2  S   UNL     1      42.056 -13.479  -1.006  1.00  0.00    -0.141 SA
HETATM    3  C   UNL     1      41.303 -14.384  -2.386  1.00  0.00     0.136 C 
HETATM    4  C   UNL     1      41.236 -15.899  -2.321  1.00  0.00     0.031 C 
HETATM    5  C   UNL     1      39.965 -13.804  -2.745  1.00  0.00     0.236 C 
HETATM    6  O   UNL     1      39.678 -13.435  -3.877  1.00  0.00    -0.272 OA
HETATM    7  N   UNL     1      38.870 -13.731  -1.838  1.00  0.00    -0.311 N 
HETATM    8  C   UNL     1      38.804 -14.029  -0.491  1.00  0.00     0.134 A 
HETATM    9  C   UNL     1      39.774 -14.248   0.475  1.00  0.00     0.032 A 
HETATM   10  N   UNL     1      37.597 -14.104   0.159  1.00  0.00    -0.262 N 
HETATM   11  H   UNL     1      36.668 -13.986  -0.230  1.00  0.00     0.191 HD
HETATM   12  N   UNL     1      37.688 -14.377   1.456  1.00  0.00    -0.178 NA
HETATM   13  C   UNL     1      39.001 -14.432   1.683  1.00  0.00     0.062 A 
HETATM   14  C   UNL     1      39.478 -14.669   3.075  1.00  0.00     0.073 C 
HETATM   15  H   UNL     1      38.024 -13.417  -2.304  1.00  0.00     0.170 HD
ENDROOT
BRANCH   1  16
HETATM   16  C   UNL     1      41.895 -15.503   0.920  1.00  0.00    -0.040 A 
HETATM   17  C   UNL     1      43.134 -15.433   1.588  1.00  0.00     0.009 A 
HETATM   18  C   UNL     1      43.776 -16.579   2.066  1.00  0.00     0.007 A 
HETATM   19  C   UNL     1      43.200 -17.838   1.888  1.00  0.00    -0.059 A 
HETATM   20  C   UNL     1      41.969 -17.927   1.233  1.00  0.00     0.007 A 
HETATM   21  C   UNL     1      41.327 -16.778   0.754  1.00  0.00     0.009 A 
BRANCH  19  22
HETATM   22  C   UNL     1      43.881 -19.071   2.425  1.00  0.00     0.034 C 
HETATM   23  C   UNL     1      43.289 -20.345   1.843  1.00  0.00     0.010 C 
ENDBRANCH  19  22
ENDBRANCH   1  16
TORSDOF 2
ENDMDL
MODEL 10
REMARK VINA RESULT:      -6.9      3.087      5.543
REMARK  2 active torsions:
REMARK  status: ('A' for Active; 'I' for Inactive)
REMARK    1  A    between atoms: C_2  and  C_3 
REMARK    2  A    between atoms: C_6  and  C_7 
ROOT
HETATM    1  C   UNL     1      41.326 -17.030   3.047  1.00  0.00     0.119 C 
HETATM    2  S   UNL     1      41.594 -18.253   1.746  1.00  0.00    -0.141 SA
HETATM    3  C   UNL     1      43.398 -18.427   1.681  1.00  0.00     0.136 C 
HETATM    4  C   UNL     1      44.255 -17.175   1.622  1.00  0.00     0.031 C 
HETATM    5  C   UNL     1      43.889 -19.361   2.750  1.00  0.00     0.236 C 
HETATM    6  O   UNL     1      44.586 -20.340   2.514  1.00  0.00    -0.272 OA
HETATM    7  N   UNL     1      43.686 -19.140   4.142  1.00  0.00    -0.311 N 
HETATM    8  C   UNL     1      42.950 -18.172   4.795  1.00  0.00     0.134 A 
HETATM    9  C   UNL     1      41.987 -17.270   4.367  1.00  0.00     0.032 A 
HETATM   10  N   UNL     1      43.060 -17.994   6.152  1.00  0.00    -0.262 N 
HETATM   11  H   UNL     1      43.661 -18.488   6.801  1.00  0.00     0.191 HD
HETATM   12  N   UNL     1      42.275 -17.041   6.646  1.00  0.00    -0.178 NA
HETATM   13  C   UNL     1      41.585 -16.611   5.589  1.00  0.00     0.062 A 
HETATM   14  C   UNL     1      40.548 -15.559   5.791  1.00  0.00     0.073 C 
HETATM   15  H   UNL     1      44.194 -19.819   4.702  1.00  0.00     0.170 HD
ENDROOT
BRANCH   1  16
HETATM   16  C   UNL     1      41.490 -15.586   2.582  1.00  0.00    -0.040 A 
HETATM   17  C   UNL     1      40.511 -15.066   1.710  1.00  0.00     0.009 A 
HETATM   18  C   UNL     1      40.566 -13.750   1.245  1.00  0.00     0.007 A 
HETATM   19  C   UNL     1      41.607 -12.905   1.636  1.00  0.00    -0.059 A 
HETATM   20  C   UNL     1      42.584 -13.400   2.504  1.00  0.00     0.007 A 
HETATM   21  C   UNL     1      42.528 -14.720   2.969  1.00  0.00     0.009 A 
BRANCH  19  22
HETATM   22  C   UNL     1      41.653 -11.477   1.154  1.00  0.00     0.034 C 
HETATM   23  C   UNL     1      42.276 -11.365  -0.229  1.00  0.00     0.010 C 
ENDBRANCH  19  22
ENDBRANCH   1  16
TORSDOF 2
ENDMDL
