MODEL 1
REMARK VINA RESULT:      -9.5      0.000      0.000
REMARK  7 active torsions:
REMARK  status: ('A' for Active; 'I' for Inactive)
REMARK    1  A    between atoms: C_4  and  N_5 
REMARK       I    between atoms: N_5  and  C_6 
REMARK       I    between atoms: C_6  and  N_7 
REMARK    2  A    between atoms: N_7  and  N_8 
REMARK       I    between atoms: N_8  and  C_9 
REMARK    3  A    between atoms: C_9  and  C_10 
REMARK    4  A    between atoms: C_10  and  N_11 
REMARK    5  A    between atoms: C_10  and  C_19 
REMARK       I    between atoms: N_11  and  C_12 
REMARK    6  A    between atoms: C_12  and  C_13 
REMARK    7  A    between atoms: C_19  and  C_20 
ROOT
HETATM    1  C   UNL     1      42.924 -14.282   5.901  1.00  0.00     0.183 C 
ENDROOT
BRANCH   1   2
HETATM    2  C   UNL     1      42.832 -15.757   6.349  1.00  0.00     0.259 C 
HETATM    3  N   UNL     1      44.038 -16.417   6.494  1.00  0.00    -0.264 N 
HETATM    4  H   UNL     1      44.886 -15.852   6.615  1.00  0.00     0.190 HD
HETATM    5  O   UNL     1      41.762 -16.260   6.699  1.00  0.00    -0.269 OA
BRANCH   3   6
HETATM    6  N   UNL     1      44.029 -17.666   7.130  1.00  0.00    -0.249 N 
HETATM    7  C   UNL     1      43.985 -18.856   6.430  1.00  0.00     0.339 C 
HETATM    8  N   UNL     1      44.098 -18.690   5.070  1.00  0.00    -0.308 N 
HETATM    9  O   UNL     1      43.855 -19.912   7.039  1.00  0.00    -0.245 OA
HETATM   10  H   UNL     1      44.055 -17.725   4.778  1.00  0.00     0.170 HD
HETATM   11  H   UNL     1      43.746 -17.698   8.108  1.00  0.00     0.192 HD
BRANCH   8  12
HETATM   12  C   UNL     1      44.130 -19.677   4.069  1.00  0.00     0.036 A 
HETATM   13  C   UNL     1      44.738 -20.923   4.227  1.00  0.00     0.029 A 
HETATM   14  C   UNL     1      44.727 -21.854   3.184  1.00  0.00     0.002 A 
HETATM   15  C   UNL     1      44.107 -21.548   1.976  1.00  0.00     0.000 A 
HETATM   16  C   UNL     1      43.502 -20.305   1.805  1.00  0.00     0.002 A 
HETATM   17  C   UNL     1      43.517 -19.373   2.846  1.00  0.00     0.029 A 
ENDBRANCH   8  12
ENDBRANCH   3   6
ENDBRANCH   1   2
BRANCH   1  18
HETATM   18  N   UNL     1      43.271 -13.335   6.973  1.00  0.00    -0.343 N 
HETATM   19  C   UNL     1      44.521 -13.188   7.527  1.00  0.00     0.259 C 
HETATM   20  O   UNL     1      45.495 -13.753   7.030  1.00  0.00    -0.267 OA
HETATM   21  H   UNL     1      42.498 -12.957   7.512  1.00  0.00     0.163 HD
BRANCH  19  22
HETATM   22  C   UNL     1      44.630 -12.300   8.674  1.00  0.00     0.072 A 
HETATM   23  S   UNL     1      43.367 -11.242   9.143  1.00  0.00    -0.097 SA
HETATM   24  C   UNL     1      44.290 -10.592  10.426  1.00  0.00     0.050 A 
HETATM   25  C   UNL     1      45.534 -11.176  10.513  1.00  0.00     0.009 A 
HETATM   26  C   UNL     1      45.728 -12.163   9.504  1.00  0.00     0.025 A 
ENDBRANCH  19  22
ENDBRANCH   1  18
BRANCH   1  27
HETATM   27  C   UNL     1      41.658 -13.917   5.107  1.00  0.00     0.076 C 
BRANCH  27  28
HETATM   28  C   UNL     1      41.854 -14.005   3.622  1.00  0.00    -0.028 A 
HETATM   29  C   UNL     1      41.556 -15.120   2.773  1.00  0.00    -0.002 A 
HETATM   30  C   UNL     1      41.906 -14.758   1.471  1.00  0.00     0.042 A 
HETATM   31  C   UNL     1      41.028 -16.409   2.989  1.00  0.00     0.014 A 
HETATM   32  C   UNL     1      41.746 -15.616   0.376  1.00  0.00     0.030 A 
HETATM   33  N   UNL     1      42.410 -13.481   1.526  1.00  0.00    -0.365 N 
HETATM   34  C   UNL     1      41.210 -16.883   0.618  1.00  0.00     0.002 A 
HETATM   35  C   UNL     1      40.856 -17.278   1.905  1.00  0.00     0.001 A 
HETATM   36  H   UNL     1      42.761 -12.969   0.728  1.00  0.00     0.165 HD
HETATM   37  C   UNL     1      42.381 -13.017   2.813  1.00  0.00     0.096 A 
ENDBRANCH  27  28
ENDBRANCH   1  27
TORSDOF 7
ENDMDL
MODEL 2
REMARK VINA RESULT:      -9.2      3.471      7.627
REMARK  7 active torsions:
REMARK  status: ('A' for Active; 'I' for Inactive)
REMARK    1  A    between atoms: C_4  and  N_5 
REMARK       I    between atoms: N_5  and  C_6 
REMARK       I    between atoms: C_6  and  N_7 
REMARK    2  A    between atoms: N_7  and  N_8 
REMARK       I    between atoms: N_8  and  C_9 
REMARK    3  A    between atoms: C_9  and  C_10 
REMARK    4  A    between atoms: C_10  and  N_11 
REMARK    5  A    between atoms: C_10  and  C_19 
REMARK       I    between atoms: N_11  and  C_12 
REMARK    6  A    between atoms: C_12  and  C_13 
REMARK    7  A    between atoms: C_19  and  C_20 
ROOT
HETATM    1  C   UNL     1      42.048 -17.013   2.709  1.00  0.00     0.183 C 
ENDROOT
BRANCH   1   2
HETATM    2  C   UNL     1      41.329 -17.053   1.342  1.00  0.00     0.259 C 
HETATM    3  N   UNL     1      41.613 -16.008   0.484  1.00  0.00    -0.264 N 
HETATM    4  H   UNL     1      42.474 -15.472   0.642  1.00  0.00     0.190 HD
HETATM    5  O   UNL     1      40.667 -18.031   0.990  1.00  0.00    -0.269 OA
BRANCH   3   6
HETATM    6  N   UNL     1      41.187 -16.120  -0.847  1.00  0.00    -0.249 N 
HETATM    7  C   UNL     1      41.262 -15.070  -1.742  1.00  0.00     0.339 C 
HETATM    8  N   UNL     1      41.921 -13.973  -1.239  1.00  0.00    -0.308 N 
HETATM    9  O   UNL     1      40.763 -15.188  -2.856  1.00  0.00    -0.245 OA
HETATM   10  H   UNL     1      42.126 -14.045  -0.254  1.00  0.00     0.170 HD
HETATM   11  H   UNL     1      40.542 -16.873  -1.077  1.00  0.00     0.192 HD
BRANCH   8  12
HETATM   12  C   UNL     1      42.210 -12.756  -1.881  1.00  0.00     0.036 A 
HETATM   13  C   UNL     1      42.111 -12.565  -3.260  1.00  0.00     0.029 A 
HETATM   14  C   UNL     1      42.415 -11.323  -3.827  1.00  0.00     0.002 A 
HETATM   15  C   UNL     1      42.817 -10.263  -3.019  1.00  0.00     0.000 A 
HETATM   16  C   UNL     1      42.925 -10.445  -1.642  1.00  0.00     0.002 A 
HETATM   17  C   UNL     1      42.626 -11.687  -1.077  1.00  0.00     0.029 A 
ENDBRANCH   8  12
ENDBRANCH   3   6
ENDBRANCH   1   2
BRANCH   1  18
HETATM   18  N   UNL     1      41.843 -15.773   3.474  1.00  0.00    -0.343 N 
HETATM   19  C   UNL     1      41.306 -15.700   4.738  1.00  0.00     0.259 C 
HETATM   20  O   UNL     1      41.102 -16.725   5.390  1.00  0.00    -0.267 OA
HETATM   21  H   UNL     1      41.854 -14.907   2.946  1.00  0.00     0.163 HD
BRANCH  19  22
HETATM   22  C   UNL     1      41.053 -14.371   5.269  1.00  0.00     0.072 A 
HETATM   23  S   UNL     1      42.310 -13.249   5.581  1.00  0.00    -0.097 SA
HETATM   24  C   UNL     1      41.217 -12.084   6.189  1.00  0.00     0.050 A 
HETATM   25  C   UNL     1      39.914 -12.526   6.144  1.00  0.00     0.009 A 
HETATM   26  C   UNL     1      39.820 -13.844   5.610  1.00  0.00     0.025 A 
ENDBRANCH  19  22
ENDBRANCH   1  18
BRANCH   1  27
HETATM   27  C   UNL     1      43.522 -17.412   2.515  1.00  0.00     0.076 C 
BRANCH  27  28
HETATM   28  C   UNL     1      43.986 -18.434   3.510  1.00  0.00    -0.028 A 
HETATM   29  C   UNL     1      44.160 -19.839   3.291  1.00  0.00    -0.002 A 
HETATM   30  C   UNL     1      44.598 -20.397   4.494  1.00  0.00     0.042 A 
HETATM   31  C   UNL     1      43.977 -20.694   2.186  1.00  0.00     0.014 A 
HETATM   32  C   UNL     1      44.872 -21.762   4.642  1.00  0.00     0.030 A 
HETATM   33  N   UNL     1      44.674 -19.376   5.411  1.00  0.00    -0.365 N 
HETATM   34  C   UNL     1      44.693 -22.584   3.527  1.00  0.00     0.002 A 
HETATM   35  C   UNL     1      44.251 -22.061   2.314  1.00  0.00     0.001 A 
HETATM   36  H   UNL     1      44.949 -19.493   6.377  1.00  0.00     0.165 HD
HETATM   37  C   UNL     1      44.312 -18.191   4.831  1.00  0.00     0.096 A 
ENDBRANCH  27  28
ENDBRANCH   1  27
TORSDOF 7
ENDMDL
MODEL 3
REMARK VINA RESULT:      -8.9      2.553      7.992
REMARK  7 active torsions:
REMARK  status: ('A' for Active; 'I' for Inactive)
REMARK    1  A    between atoms: C_4  and  N_5 
REMARK       I    between atoms: N_5  and  C_6 
REMARK       I    between atoms: C_6  and  N_7 
REMARK    2  A    between atoms: N_7  and  N_8 
REMARK       I    between atoms: N_8  and  C_9 
REMARK    3  A    between atoms: C_9  and  C_10 
REMARK    4  A    between atoms: C_10  and  N_11 
REMARK    5  A    between atoms: C_10  and  C_19 
REMARK       I    between atoms: N_11  and  C_12 
REMARK    6  A    between atoms: C_12  and  C_13 
REMARK    7  A    between atoms: C_19  and  C_20 
ROOT
HETATM    1  C   UNL     1      43.990 -14.632   6.096  1.00  0.00     0.183 C 
ENDROOT
BRANCH   1   2
HETATM    2  C   UNL     1      44.859 -13.683   6.951  1.00  0.00     0.259 C 
HETATM    3  N   UNL     1      44.339 -13.339   8.184  1.00  0.00    -0.264 N 
HETATM    4  H   UNL     1      43.616 -13.944   8.589  1.00  0.00     0.190 HD
HETATM    5  O   UNL     1      46.006 -13.380   6.614  1.00  0.00    -0.269 OA
BRANCH   3   6
HETATM    6  N   UNL     1      45.185 -12.690   9.094  1.00  0.00    -0.249 N 
HETATM    7  C   UNL     1      44.708 -11.855  10.085  1.00  0.00     0.339 C 
HETATM    8  N   UNL     1      43.336 -11.846  10.175  1.00  0.00    -0.308 N 
HETATM    9  O   UNL     1      45.499 -11.218  10.773  1.00  0.00    -0.245 OA
HETATM   10  H   UNL     1      42.881 -12.337   9.420  1.00  0.00     0.170 HD
HETATM   11  H   UNL     1      46.165 -12.586   8.839  1.00  0.00     0.192 HD
BRANCH   8  12
HETATM   12  C   UNL     1      42.524 -11.147  11.085  1.00  0.00     0.036 A 
HETATM   13  C   UNL     1      41.630 -10.141  10.713  1.00  0.00     0.029 A 
HETATM   14  C   UNL     1      40.855  -9.490  11.678  1.00  0.00     0.002 A 
HETATM   15  C   UNL     1      40.966  -9.840  13.021  1.00  0.00     0.000 A 
HETATM   16  C   UNL     1      41.859 -10.838  13.404  1.00  0.00     0.002 A 
HETATM   17  C   UNL     1      42.638 -11.485  12.440  1.00  0.00     0.029 A 
ENDBRANCH   8  12
ENDBRANCH   3   6
ENDBRANCH   1   2
BRANCH   1  18
HETATM   18  N   UNL     1      42.789 -14.009   5.518  1.00  0.00    -0.343 N 
HETATM   19  C   UNL     1      42.737 -13.358   4.307  1.00  0.00     0.259 C 
HETATM   20  O   UNL     1      43.696 -13.398   3.536  1.00  0.00    -0.267 OA
HETATM   21  H   UNL     1      42.024 -13.820   6.157  1.00  0.00     0.163 HD
BRANCH  19  22
HETATM   22  C   UNL     1      41.492 -12.686   3.976  1.00  0.00     0.072 A 
HETATM   23  S   UNL     1      41.135 -11.095   4.504  1.00  0.00    -0.097 SA
HETATM   24  C   UNL     1      39.588 -11.124   3.777  1.00  0.00     0.050 A 
HETATM   25  C   UNL     1      39.345 -12.313   3.128  1.00  0.00     0.009 A 
HETATM   26  C   UNL     1      40.445 -13.212   3.240  1.00  0.00     0.025 A 
ENDBRANCH  19  22
ENDBRANCH   1  18
BRANCH   1  27
HETATM   27  C   UNL     1      43.725 -15.924   6.888  1.00  0.00     0.076 C 
BRANCH  27  28
HETATM   28  C   UNL     1      44.149 -17.159   6.150  1.00  0.00    -0.028 A 
HETATM   29  C   UNL     1      43.635 -17.643   4.903  1.00  0.00    -0.002 A 
HETATM   30  C   UNL     1      44.314 -18.824   4.603  1.00  0.00     0.042 A 
HETATM   31  C   UNL     1      42.648 -17.192   4.003  1.00  0.00     0.014 A 
HETATM   32  C   UNL     1      44.064 -19.571   3.444  1.00  0.00     0.030 A 
HETATM   33  N   UNL     1      45.195 -19.060   5.631  1.00  0.00    -0.365 N 
HETATM   34  C   UNL     1      43.089 -19.094   2.564  1.00  0.00     0.002 A 
HETATM   35  C   UNL     1      42.388 -17.922   2.837  1.00  0.00     0.001 A 
HETATM   36  H   UNL     1      45.809 -19.861   5.687  1.00  0.00     0.165 HD
HETATM   37  C   UNL     1      45.107 -18.064   6.566  1.00  0.00     0.096 A 
ENDBRANCH  27  28
ENDBRANCH   1  27
TORSDOF 7
ENDMDL
MODEL 4
REMARK VINA RESULT:      -8.9      2.244      7.718
REMARK  7 active torsions:
REMARK  status: ('A' for Active; 'I' for Inactive)
REMARK    1  A    between atoms: C_4  and  N_5 
REMARK       I    between atoms: N_5  and  C_6 
REMARK       I    between atoms: C_6  and  N_7 
REMARK    2  A    between atoms: N_7  and  N_8 
REMARK       I    between atoms: N_8  and  C_9 
REMARK    3  A    between atoms: C_9  and  C_10 
REMARK    4  A    between atoms: C_10  and  N_11 
REMARK    5  A    between atoms: C_10  and  C_19 
REMARK       I    between atoms: N_11  and  C_12 
REMARK    6  A    between atoms: C_12  and  C_13 
REMARK    7  A    between atoms: C_19  and  C_20 
ROOT
HETATM    1  C   UNL     1      42.541 -15.218   5.832  1.00  0.00     0.183 C 
ENDROOT
BRANCH   1   2
HETATM    2  C   UNL     1      43.673 -14.222   6.170  1.00  0.00     0.259 C 
HETATM    3  N   UNL     1      43.895 -13.999   7.516  1.00  0.00    -0.264 N 
HETATM    4  H   UNL     1      43.555 -14.699   8.184  1.00  0.00     0.190 HD
HETATM    5  O   UNL     1      44.422 -13.776   5.298  1.00  0.00    -0.269 OA
BRANCH   3   6
HETATM    6  N   UNL     1      45.056 -13.305   7.882  1.00  0.00    -0.249 N 
HETATM    7  C   UNL     1      45.041 -12.247   8.770  1.00  0.00     0.339 C 
HETATM    8  N   UNL     1      43.813 -12.048   9.356  1.00  0.00    -0.308 N 
HETATM    9  O   UNL     1      46.065 -11.600   8.958  1.00  0.00    -0.245 OA
HETATM   10  H   UNL     1      43.079 -12.608   8.950  1.00  0.00     0.170 HD
HETATM   11  H   UNL     1      45.864 -13.376   7.267  1.00  0.00     0.192 HD
BRANCH   8  12
HETATM   12  C   UNL     1      43.452 -11.095  10.325  1.00  0.00     0.036 A 
HETATM   13  C   UNL     1      43.977 -11.064  11.617  1.00  0.00     0.029 A 
HETATM   14  C   UNL     1      43.569 -10.083  12.526  1.00  0.00     0.002 A 
HETATM   15  C   UNL     1      42.632  -9.124  12.149  1.00  0.00     0.000 A 
HETATM   16  C   UNL     1      42.097  -9.149  10.863  1.00  0.00     0.002 A 
HETATM   17  C   UNL     1      42.502 -10.133   9.957  1.00  0.00     0.029 A 
ENDBRANCH   8  12
ENDBRANCH   3   6
ENDBRANCH   1   2
BRANCH   1  18
HETATM   18  N   UNL     1      42.987 -16.444   5.152  1.00  0.00    -0.343 N 
HETATM   19  C   UNL     1      43.152 -17.670   5.753  1.00  0.00     0.259 C 
HETATM   20  O   UNL     1      42.771 -17.855   6.909  1.00  0.00    -0.267 OA
HETATM   21  H   UNL     1      43.446 -16.324   4.255  1.00  0.00     0.163 HD
BRANCH  19  22
HETATM   22  C   UNL     1      43.737 -18.726   4.942  1.00  0.00     0.072 A 
HETATM   23  S   UNL     1      44.396 -20.153   5.625  1.00  0.00    -0.097 SA
HETATM   24  C   UNL     1      44.871 -20.750   4.095  1.00  0.00     0.050 A 
HETATM   25  C   UNL     1      44.523 -19.893   3.076  1.00  0.00     0.009 A 
HETATM   26  C   UNL     1      43.866 -18.727   3.565  1.00  0.00     0.025 A 
ENDBRANCH  19  22
ENDBRANCH   1  18
BRANCH   1  27
HETATM   27  C   UNL     1      41.403 -14.466   5.121  1.00  0.00     0.076 C 
BRANCH  27  28
HETATM   28  C   UNL     1      41.644 -14.297   3.650  1.00  0.00    -0.028 A 
HETATM   29  C   UNL     1      41.440 -15.272   2.620  1.00  0.00    -0.002 A 
HETATM   30  C   UNL     1      41.802 -14.680   1.409  1.00  0.00     0.042 A 
HETATM   31  C   UNL     1      40.991 -16.608   2.604  1.00  0.00     0.014 A 
HETATM   32  C   UNL     1      41.726 -15.353   0.183  1.00  0.00     0.030 A 
HETATM   33  N   UNL     1      42.222 -13.402   1.690  1.00  0.00    -0.365 N 
HETATM   34  C   UNL     1      41.266 -16.673   0.195  1.00  0.00     0.002 A 
HETATM   35  C   UNL     1      40.904 -17.295   1.387  1.00  0.00     0.001 A 
HETATM   36  H   UNL     1      42.559 -12.745   1.000  1.00  0.00     0.165 HD
HETATM   37  C   UNL     1      42.128 -13.159   3.033  1.00  0.00     0.096 A 
ENDBRANCH  27  28
ENDBRANCH   1  27
TORSDOF 7
ENDMDL
MODEL 5
REMARK VINA RESULT:      -8.8      2.748      7.924
REMARK  7 active torsions:
REMARK  status: ('A' for Active; 'I' for Inactive)
REMARK    1  A    between atoms: C_4  and  N_5 
REMARK       I    between atoms: N_5  and  C_6 
REMARK       I    between atoms: C_6  and  N_7 
REMARK    2  A    between atoms: N_7  and  N_8 
REMARK       I    between atoms: N_8  and  C_9 
REMARK    3  A    between atoms: C_9  and  C_10 
REMARK    4  A    between atoms: C_10  and  N_11 
REMARK    5  A    between atoms: C_10  and  C_19 
REMARK       I    between atoms: N_11  and  C_12 
REMARK    6  A    between atoms: C_12  and  C_13 
REMARK    7  A    between atoms: C_19  and  C_20 
ROOT
HETATM    1  C   UNL     1      42.565 -14.960   5.050  1.00  0.00     0.183 C 
ENDROOT
BRANCH   1   2
HETATM    2  C   UNL     1      43.763 -14.160   5.607  1.00  0.00     0.259 C 
HETATM    3  N   UNL     1      43.899 -14.161   6.982  1.00  0.00    -0.264 N 
HETATM    4  H   UNL     1      43.435 -14.907   7.513  1.00  0.00     0.190 HD
HETATM    5  O   UNL     1      44.622 -13.682   4.863  1.00  0.00    -0.269 OA
BRANCH   3   6
HETATM    6  N   UNL     1      45.093 -13.665   7.523  1.00  0.00    -0.249 N 
HETATM    7  C   UNL     1      45.119 -12.661   8.472  1.00  0.00     0.339 C 
HETATM    8  N   UNL     1      43.869 -12.311   8.926  1.00  0.00    -0.308 N 
HETATM    9  O   UNL     1      46.193 -12.183   8.818  1.00  0.00    -0.245 OA
HETATM   10  H   UNL     1      43.118 -12.736   8.403  1.00  0.00     0.170 HD
HETATM   11  H   UNL     1      45.952 -13.825   7.001  1.00  0.00     0.192 HD
BRANCH   8  12
HETATM   12  C   UNL     1      43.530 -11.363   9.908  1.00  0.00     0.036 A 
HETATM   13  C   UNL     1      44.108 -11.321  11.178  1.00  0.00     0.029 A 
HETATM   14  C   UNL     1      43.719 -10.347  12.101  1.00  0.00     0.002 A 
HETATM   15  C   UNL     1      42.750  -9.405  11.763  1.00  0.00     0.000 A 
HETATM   16  C   UNL     1      42.162  -9.442  10.500  1.00  0.00     0.002 A 
HETATM   17  C   UNL     1      42.548 -10.420   9.579  1.00  0.00     0.029 A 
ENDBRANCH   8  12
ENDBRANCH   3   6
ENDBRANCH   1   2
BRANCH   1  18
HETATM   18  N   UNL     1      41.430 -14.136   4.605  1.00  0.00    -0.343 N 
HETATM   19  C   UNL     1      40.727 -14.318   3.437  1.00  0.00     0.259 C 
HETATM   20  O   UNL     1      40.915 -15.319   2.745  1.00  0.00    -0.267 OA
HETATM   21  H   UNL     1      41.327 -13.229   5.049  1.00  0.00     0.163 HD
BRANCH  19  22
HETATM   22  C   UNL     1      39.731 -13.312   3.106  1.00  0.00     0.072 A 
HETATM   23  S   UNL     1      38.870 -13.320   1.625  1.00  0.00    -0.097 SA
HETATM   24  C   UNL     1      38.036 -11.882   2.019  1.00  0.00     0.050 A 
HETATM   25  C   UNL     1      38.387 -11.405   3.262  1.00  0.00     0.009 A 
HETATM   26  C   UNL     1      39.363 -12.232   3.889  1.00  0.00     0.025 A 
ENDBRANCH  19  22
ENDBRANCH   1  18
BRANCH   1  27
HETATM   27  C   UNL     1      42.198 -16.075   6.043  1.00  0.00     0.076 C 
BRANCH  27  28
HETATM   28  C   UNL     1      43.109 -17.264   5.952  1.00  0.00    -0.028 A 
HETATM   29  C   UNL     1      43.328 -18.102   4.811  1.00  0.00    -0.002 A 
HETATM   30  C   UNL     1      44.247 -19.084   5.186  1.00  0.00     0.042 A 
HETATM   31  C   UNL     1      42.825 -18.126   3.495  1.00  0.00     0.014 A 
HETATM   32  C   UNL     1      44.694 -20.080   4.308  1.00  0.00     0.030 A 
HETATM   33  N   UNL     1      44.564 -18.862   6.504  1.00  0.00    -0.365 N 
HETATM   34  C   UNL     1      44.187 -20.072   3.006  1.00  0.00     0.002 A 
HETATM   35  C   UNL     1      43.264 -19.111   2.602  1.00  0.00     0.001 A 
HETATM   36  H   UNL     1      45.197 -19.435   7.045  1.00  0.00     0.165 HD
HETATM   37  C   UNL     1      43.889 -17.769   6.975  1.00  0.00     0.096 A 
ENDBRANCH  27  28
ENDBRANCH   1  27
TORSDOF 7
ENDMDL
MODEL 6
REMARK VINA RESULT:      -8.6      2.713      7.470
REMARK  7 active torsions:
REMARK  status: ('A' for Active; 'I' for Inactive)
REMARK    1  A    between atoms: C_4  and  N_5 
REMARK       I    between atoms: N_5  and  C_6 
REMARK       I    between atoms: C_6  and  N_7 
REMARK    2  A    between atoms: N_7  and  N_8 
REMARK       I    between atoms: N_8  and  C_9 
REMARK    3  A    between atoms: C_9  and  C_10 
REMARK    4  A    between atoms: C_10  and  N_11 
REMARK    5  A    between atoms: C_10  and  C_19 
REMARK       I    between atoms: N_11  and  C_12 
REMARK    6  A    between atoms: C_12  and  C_13 
REMARK    7  A    between atoms: C_19  and  C_20 
ROOT
HETATM    1  C   UNL     1      42.716 -14.369   5.821  1.00  0.00     0.183 C 
ENDROOT
BRANCH   1   2
HETATM    2  C   UNL     1      43.936 -14.305   6.766  1.00  0.00     0.259 C 
HETATM    3  N   UNL     1      43.994 -13.204   7.598  1.00  0.00    -0.264 N 
HETATM    4  H   UNL     1      43.125 -12.688   7.779  1.00  0.00     0.190 HD
HETATM    5  O   UNL     1      44.720 -15.250   6.871  1.00  0.00    -0.269 OA
BRANCH   3   6
HETATM    6  N   UNL     1      44.934 -13.217   8.638  1.00  0.00    -0.249 N 
HETATM    7  C   UNL     1      44.770 -12.485   9.798  1.00  0.00     0.339 C 
HETATM    8  N   UNL     1      43.542 -11.873   9.884  1.00  0.00    -0.308 N 
HETATM    9  O   UNL     1      45.681 -12.438  10.617  1.00  0.00    -0.245 OA
HETATM   10  H   UNL     1      43.003 -11.933   9.034  1.00  0.00     0.170 HD
HETATM   11  H   UNL     1      45.881 -13.519   8.416  1.00  0.00     0.192 HD
BRANCH   8  12
HETATM   12  C   UNL     1      43.028 -11.090  10.933  1.00  0.00     0.036 A 
HETATM   13  C   UNL     1      43.823 -10.340  11.802  1.00  0.00     0.029 A 
HETATM   14  C   UNL     1      43.238  -9.583  12.822  1.00  0.00     0.002 A 
HETATM   15  C   UNL     1      41.855  -9.569  12.981  1.00  0.00     0.000 A 
HETATM   16  C   UNL     1      41.053 -10.319  12.123  1.00  0.00     0.002 A 
HETATM   17  C   UNL     1      41.638 -11.079  11.107  1.00  0.00     0.029 A 
ENDBRANCH   8  12
ENDBRANCH   3   6
ENDBRANCH   1   2
BRANCH   1  18
HETATM   18  N   UNL     1      41.765 -13.255   5.969  1.00  0.00    -0.343 N 
HETATM   19  C   UNL     1      41.540 -12.274   5.032  1.00  0.00     0.259 C 
HETATM   20  O   UNL     1      42.027 -12.364   3.905  1.00  0.00    -0.267 OA
HETATM   21  H   UNL     1      41.452 -13.049   6.912  1.00  0.00     0.163 HD
BRANCH  19  22
HETATM   22  C   UNL     1      40.667 -11.180   5.424  1.00  0.00     0.072 A 
HETATM   23  S   UNL     1      40.503 -10.670   7.051  1.00  0.00    -0.097 SA
HETATM   24  C   UNL     1      39.341  -9.486   6.639  1.00  0.00     0.050 A 
HETATM   25  C   UNL     1      39.088  -9.461   5.286  1.00  0.00     0.009 A 
HETATM   26  C   UNL     1      39.855 -10.437   4.585  1.00  0.00     0.025 A 
ENDBRANCH  19  22
ENDBRANCH   1  18
BRANCH   1  27
HETATM   27  C   UNL     1      42.083 -15.769   5.908  1.00  0.00     0.076 C 
BRANCH  27  28
HETATM   28  C   UNL     1      41.979 -16.448   4.575  1.00  0.00    -0.028 A 
HETATM   29  C   UNL     1      42.734 -17.576   4.115  1.00  0.00    -0.002 A 
HETATM   30  C   UNL     1      42.311 -17.859   2.815  1.00  0.00     0.042 A 
HETATM   31  C   UNL     1      43.746 -18.379   4.678  1.00  0.00     0.014 A 
HETATM   32  C   UNL     1      42.841 -18.910   2.057  1.00  0.00     0.030 A 
HETATM   33  N   UNL     1      41.348 -16.933   2.491  1.00  0.00    -0.365 N 
HETATM   34  C   UNL     1      43.834 -19.697   2.644  1.00  0.00     0.002 A 
HETATM   35  C   UNL     1      44.284 -19.437   3.936  1.00  0.00     0.001 A 
HETATM   36  H   UNL     1      40.875 -16.887   1.598  1.00  0.00     0.165 HD
HETATM   37  C   UNL     1      41.138 -16.082   3.541  1.00  0.00     0.096 A 
ENDBRANCH  27  28
ENDBRANCH   1  27
TORSDOF 7
ENDMDL
MODEL 7
REMARK VINA RESULT:      -8.6      2.947      8.370
REMARK  7 active torsions:
REMARK  status: ('A' for Active; 'I' for Inactive)
REMARK    1  A    between atoms: C_4  and  N_5 
REMARK       I    between atoms: N_5  and  C_6 
REMARK       I    between atoms: C_6  and  N_7 
REMARK    2  A    between atoms: N_7  and  N_8 
REMARK       I    between atoms: N_8  and  C_9 
REMARK    3  A    between atoms: C_9  and  C_10 
REMARK    4  A    between atoms: C_10  and  N_11 
REMARK    5  A    between atoms: C_10  and  C_19 
REMARK       I    between atoms: N_11  and  C_12 
REMARK    6  A    between atoms: C_12  and  C_13 
REMARK    7  A    between atoms: C_19  and  C_20 
ROOT
HETATM    1  C   UNL     1      41.632 -14.926   4.955  1.00  0.00     0.183 C 
ENDROOT
BRANCH   1   2
HETATM    2  C   UNL     1      41.068 -13.635   5.587  1.00  0.00     0.259 C 
HETATM    3  N   UNL     1      41.976 -12.608   5.767  1.00  0.00    -0.264 N 
HETATM    4  H   UNL     1      42.839 -12.623   5.211  1.00  0.00     0.190 HD
HETATM    5  O   UNL     1      39.860 -13.483   5.776  1.00  0.00    -0.269 OA
BRANCH   3   6
HETATM    6  N   UNL     1      41.476 -11.342   6.102  1.00  0.00    -0.249 N 
HETATM    7  C   UNL     1      41.734 -10.740   7.318  1.00  0.00     0.339 C 
HETATM    8  N   UNL     1      42.635 -11.435   8.089  1.00  0.00    -0.308 N 
HETATM    9  O   UNL     1      41.170  -9.689   7.604  1.00  0.00    -0.245 OA
HETATM   10  H   UNL     1      42.865 -12.344   7.716  1.00  0.00     0.170 HD
HETATM   11  H   UNL     1      40.674 -10.996   5.579  1.00  0.00     0.192 HD
BRANCH   8  12
HETATM   12  C   UNL     1      43.148 -11.096   9.353  1.00  0.00     0.036 A 
HETATM   13  C   UNL     1      44.509 -11.106   9.666  1.00  0.00     0.029 A 
HETATM   14  C   UNL     1      44.943 -10.755  10.948  1.00  0.00     0.002 A 
HETATM   15  C   UNL     1      44.022 -10.390  11.926  1.00  0.00     0.000 A 
HETATM   16  C   UNL     1      42.662 -10.383  11.626  1.00  0.00     0.002 A 
HETATM   17  C   UNL     1      42.227 -10.739  10.347  1.00  0.00     0.029 A 
ENDBRANCH   8  12
ENDBRANCH   3   6
ENDBRANCH   1   2
BRANCH   1  18
HETATM   18  N   UNL     1      41.494 -15.004   3.492  1.00  0.00    -0.343 N 
HETATM   19  C   UNL     1      42.227 -14.274   2.586  1.00  0.00     0.259 C 
HETATM   20  O   UNL     1      43.188 -13.601   2.958  1.00  0.00    -0.267 OA
HETATM   21  H   UNL     1      40.638 -15.421   3.139  1.00  0.00     0.163 HD
BRANCH  19  22
HETATM   22  C   UNL     1      41.844 -14.388   1.188  1.00  0.00     0.072 A 
HETATM   23  S   UNL     1      41.421 -15.884   0.467  1.00  0.00    -0.097 SA
HETATM   24  C   UNL     1      41.195 -15.163  -1.066  1.00  0.00     0.050 A 
HETATM   25  C   UNL     1      41.418 -13.805  -1.036  1.00  0.00     0.009 A 
HETATM   26  C   UNL     1      41.790 -13.358   0.265  1.00  0.00     0.025 A 
ENDBRANCH  19  22
ENDBRANCH   1  18
BRANCH   1  27
HETATM   27  C   UNL     1      41.081 -16.143   5.718  1.00  0.00     0.076 C 
BRANCH  27  28
HETATM   28  C   UNL     1      42.145 -17.136   6.082  1.00  0.00    -0.028 A 
HETATM   29  C   UNL     1      42.848 -18.017   5.197  1.00  0.00    -0.002 A 
HETATM   30  C   UNL     1      43.736 -18.764   5.972  1.00  0.00     0.042 A 
HETATM   31  C   UNL     1      42.808 -18.256   3.808  1.00  0.00     0.014 A 
HETATM   32  C   UNL     1      44.592 -19.730   5.427  1.00  0.00     0.030 A 
HETATM   33  N   UNL     1      43.571 -18.367   7.277  1.00  0.00    -0.365 N 
HETATM   34  C   UNL     1      44.539 -19.938   4.046  1.00  0.00     0.002 A 
HETATM   35  C   UNL     1      43.660 -19.214   3.246  1.00  0.00     0.001 A 
HETATM   36  H   UNL     1      44.075 -18.755   8.062  1.00  0.00     0.165 HD
HETATM   37  C   UNL     1      42.619 -17.387   7.356  1.00  0.00     0.096 A 
ENDBRANCH  27  28
ENDBRANCH   1  27
TORSDOF 7
ENDMDL
MODEL 8
REMARK VINA RESULT:      -8.4      4.220      8.069
REMARK  7 active torsions:
REMARK  status: ('A' for Active; 'I' for Inactive)
REMARK    1  A    between atoms: C_4  and  N_5 
REMARK       I    between atoms: N_5  and  C_6 
REMARK       I    between atoms: C_6  and  N_7 
REMARK    2  A    between atoms: N_7  and  N_8 
REMARK       I    between atoms: N_8  and  C_9 
REMARK    3  A    between atoms: C_9  and  C_10 
REMARK    4  A    between atoms: C_10  and  N_11 
REMARK    5  A    between atoms: C_10  and  C_19 
REMARK       I    between atoms: N_11  and  C_12 
REMARK    6  A    between atoms: C_12  and  C_13 
REMARK    7  A    between atoms: C_19  and  C_20 
ROOT
HETATM    1  C   UNL     1      41.384 -15.791   2.421  1.00  0.00     0.183 C 
ENDROOT
BRANCH   1   2
HETATM    2  C   UNL     1      41.029 -16.422   1.056  1.00  0.00     0.259 C 
HETATM    3  N   UNL     1      40.875 -15.536   0.007  1.00  0.00    -0.264 N 
HETATM    4  H   UNL     1      41.297 -14.605   0.094  1.00  0.00     0.190 HD
HETATM    5  O   UNL     1      41.035 -17.643   0.889  1.00  0.00    -0.269 OA
BRANCH   3   6
HETATM    6  N   UNL     1      40.798 -16.063  -1.290  1.00  0.00    -0.249 N 
HETATM    7  C   UNL     1      40.759 -15.264  -2.416  1.00  0.00     0.339 C 
HETATM    8  N   UNL     1      40.949 -13.930  -2.142  1.00  0.00    -0.308 N 
HETATM    9  O   UNL     1      40.568 -15.775  -3.514  1.00  0.00    -0.245 OA
HETATM   10  H   UNL     1      40.947 -13.719  -1.155  1.00  0.00     0.170 HD
HETATM   11  H   UNL     1      40.463 -17.019  -1.394  1.00  0.00     0.192 HD
BRANCH   8  12
HETATM   12  C   UNL     1      41.006 -12.852  -3.043  1.00  0.00     0.036 A 
HETATM   13  C   UNL     1      39.878 -12.226  -3.575  1.00  0.00     0.029 A 
HETATM   14  C   UNL     1      40.016 -11.157  -4.467  1.00  0.00     0.002 A 
HETATM   15  C   UNL     1      41.281 -10.707  -4.832  1.00  0.00     0.000 A 
HETATM   16  C   UNL     1      42.414 -11.329  -4.312  1.00  0.00     0.002 A 
HETATM   17  C   UNL     1      42.276 -12.400  -3.425  1.00  0.00     0.029 A 
ENDBRANCH   8  12
ENDBRANCH   3   6
ENDBRANCH   1   2
BRANCH   1  18
HETATM   18  N   UNL     1      40.774 -14.475   2.665  1.00  0.00    -0.343 N 
HETATM   19  C   UNL     1      40.105 -14.111   3.810  1.00  0.00     0.259 C 
HETATM   20  O   UNL     1      40.114 -14.844   4.798  1.00  0.00    -0.267 OA
HETATM   21  H   UNL     1      40.610 -13.893   1.850  1.00  0.00     0.163 HD
BRANCH  19  22
HETATM   22  C   UNL     1      39.450 -12.812   3.803  1.00  0.00     0.072 A 
HETATM   23  S   UNL     1      38.710 -12.162   2.402  1.00  0.00    -0.097 SA
HETATM   24  C   UNL     1      38.288 -10.715   3.209  1.00  0.00     0.050 A 
HETATM   25  C   UNL     1      38.685 -10.726   4.527  1.00  0.00     0.009 A 
HETATM   26  C   UNL     1      39.353 -11.937   4.870  1.00  0.00     0.025 A 
ENDBRANCH  19  22
ENDBRANCH   1  18
BRANCH   1  27
HETATM   27  C   UNL     1      42.909 -15.839   2.617  1.00  0.00     0.076 C 
BRANCH  27  28
HETATM   28  C   UNL     1      43.332 -16.803   3.685  1.00  0.00    -0.028 A 
HETATM   29  C   UNL     1      43.790 -18.149   3.508  1.00  0.00    -0.002 A 
HETATM   30  C   UNL     1      44.062 -18.668   4.774  1.00  0.00     0.042 A 
HETATM   31  C   UNL     1      43.990 -18.981   2.387  1.00  0.00     0.014 A 
HETATM   32  C   UNL     1      44.534 -19.971   4.975  1.00  0.00     0.030 A 
HETATM   33  N   UNL     1      43.769 -17.684   5.688  1.00  0.00    -0.365 N 
HETATM   34  C   UNL     1      44.734 -20.769   3.847  1.00  0.00     0.002 A 
HETATM   35  C   UNL     1      44.466 -20.285   2.569  1.00  0.00     0.001 A 
HETATM   36  H   UNL     1      43.856 -17.788   6.690  1.00  0.00     0.165 HD
HETATM   37  C   UNL     1      43.332 -16.557   5.046  1.00  0.00     0.096 A 
ENDBRANCH  27  28
ENDBRANCH   1  27
TORSDOF 7
ENDMDL
MODEL 9
REMARK VINA RESULT:      -8.3      2.627      3.187
REMARK  7 active torsions:
REMARK  status: ('A' for Active; 'I' for Inactive)
REMARK    1  A    between atoms: C_4  and  N_5 
REMARK       I    between atoms: N_5  and  C_6 
REMARK       I    between atoms: C_6  and  N_7 
REMARK    2  A    between atoms: N_7  and  N_8 
REMARK       I    between atoms: N_8  and  C_9 
REMARK    3  A    between atoms: C_9  and  C_10 
REMARK    4  A    between atoms: C_10  and  N_11 
REMARK    5  A    between atoms: C_10  and  C_19 
REMARK       I    between atoms: N_11  and  C_12 
REMARK    6  A    between atoms: C_12  and  C_13 
REMARK    7  A    between atoms: C_19  and  C_20 
ROOT
HETATM    1  C   UNL     1      42.276 -14.984   5.862  1.00  0.00     0.183 C 
ENDROOT
BRANCH   1   2
HETATM    2  C   UNL     1      43.219 -15.585   6.928  1.00  0.00     0.259 C 
HETATM    3  N   UNL     1      42.638 -16.479   7.807  1.00  0.00    -0.264 N 
HETATM    4  H   UNL     1      41.757 -16.927   7.529  1.00  0.00     0.190 HD
HETATM    5  O   UNL     1      44.435 -15.391   6.897  1.00  0.00    -0.269 OA
BRANCH   3   6
HETATM    6  N   UNL     1      43.486 -17.235   8.629  1.00  0.00    -0.249 N 
HETATM    7  C   UNL     1      44.008 -18.452   8.238  1.00  0.00     0.339 C 
HETATM    8  N   UNL     1      43.731 -18.767   6.929  1.00  0.00    -0.308 N 
HETATM    9  O   UNL     1      44.642 -19.125   9.044  1.00  0.00    -0.245 OA
HETATM   10  H   UNL     1      43.077 -18.135   6.494  1.00  0.00     0.170 HD
HETATM   11  H   UNL     1      43.475 -17.039   9.628  1.00  0.00     0.192 HD
BRANCH   8  12
HETATM   12  C   UNL     1      44.134 -19.899   6.198  1.00  0.00     0.036 A 
HETATM   13  C   UNL     1      43.850 -21.210   6.580  1.00  0.00     0.029 A 
HETATM   14  C   UNL     1      44.284 -22.286   5.800  1.00  0.00     0.002 A 
HETATM   15  C   UNL     1      45.006 -22.059   4.631  1.00  0.00     0.000 A 
HETATM   16  C   UNL     1      45.301 -20.754   4.244  1.00  0.00     0.002 A 
HETATM   17  C   UNL     1      44.870 -19.679   5.026  1.00  0.00     0.029 A 
ENDBRANCH   8  12
ENDBRANCH   3   6
ENDBRANCH   1   2
BRANCH   1  18
HETATM   18  N   UNL     1      41.592 -13.748   6.273  1.00  0.00    -0.343 N 
HETATM   19  C   UNL     1      41.471 -12.614   5.504  1.00  0.00     0.259 C 
HETATM   20  O   UNL     1      41.807 -12.625   4.319  1.00  0.00    -0.267 OA
HETATM   21  H   UNL     1      41.429 -13.630   7.268  1.00  0.00     0.163 HD
BRANCH  19  22
HETATM   22  C   UNL     1      40.884 -11.447   6.142  1.00  0.00     0.072 A 
HETATM   23  S   UNL     1      41.370  -9.849   5.763  1.00  0.00    -0.097 SA
HETATM   24  C   UNL     1      40.305  -9.175   6.918  1.00  0.00     0.050 A 
HETATM   25  C   UNL     1      39.577 -10.141   7.573  1.00  0.00     0.009 A 
HETATM   26  C   UNL     1      39.909 -11.452   7.123  1.00  0.00     0.025 A 
ENDBRANCH  19  22
ENDBRANCH   1  18
BRANCH   1  27
HETATM   27  C   UNL     1      41.345 -16.088   5.333  1.00  0.00     0.076 C 
BRANCH  27  28
HETATM   28  C   UNL     1      41.258 -16.113   3.835  1.00  0.00    -0.028 A 
HETATM   29  C   UNL     1      42.195 -16.699   2.923  1.00  0.00    -0.002 A 
HETATM   30  C   UNL     1      41.714 -16.476   1.632  1.00  0.00     0.042 A 
HETATM   31  C   UNL     1      43.415 -17.390   3.072  1.00  0.00     0.014 A 
HETATM   32  C   UNL     1      42.385 -16.919   0.485  1.00  0.00     0.030 A 
HETATM   33  N   UNL     1      40.540 -15.771   1.751  1.00  0.00    -0.365 N 
HETATM   34  C   UNL     1      43.585 -17.612   0.662  1.00  0.00     0.002 A 
HETATM   35  C   UNL     1      44.096 -17.845   1.936  1.00  0.00     0.001 A 
HETATM   36  H   UNL     1      39.979 -15.456   0.972  1.00  0.00     0.165 HD
HETATM   37  C   UNL     1      40.254 -15.550   3.071  1.00  0.00     0.096 A 
ENDBRANCH  27  28
ENDBRANCH   1  27
TORSDOF 7
ENDMDL
MODEL 10
REMARK VINA RESULT:      -8.3      4.155      8.613
REMARK  7 active torsions:
REMARK  status: ('A' for Active; 'I' for Inactive)
REMARK    1  A    between atoms: C_4  and  N_5 
REMARK       I    between atoms: N_5  and  C_6 
REMARK       I    between atoms: C_6  and  N_7 
REMARK    2  A    between atoms: N_7  and  N_8 
REMARK       I    between atoms: N_8  and  C_9 
REMARK    3  A    between atoms: C_9  and  C_10 
REMARK    4  A    between atoms: C_10  and  N_11 
REMARK    5  A    between atoms: C_10  and  C_19 
REMARK       I    between atoms: N_11  and  C_12 
REMARK    6  A    between atoms: C_12  and  C_13 
REMARK    7  A    between atoms: C_19  and  C_20 
ROOT
HETATM    1  C   UNL     1      42.245 -16.002   2.271  1.00  0.00     0.183 C 
ENDROOT
BRANCH   1   2
HETATM    2  C   UNL     1      41.341 -15.941   1.021  1.00  0.00     0.259 C 
HETATM    3  N   UNL     1      41.994 -15.990  -0.196  1.00  0.00    -0.264 N 
HETATM    4  H   UNL     1      42.946 -16.372  -0.218  1.00  0.00     0.190 HD
HETATM    5  O   UNL     1      40.113 -15.998   1.109  1.00  0.00    -0.269 OA
BRANCH   3   6
HETATM    6  N   UNL     1      41.220 -16.186  -1.348  1.00  0.00    -0.249 N 
HETATM    7  C   UNL     1      40.920 -15.162  -2.225  1.00  0.00     0.339 C 
HETATM    8  N   UNL     1      41.571 -13.987  -1.932  1.00  0.00    -0.308 N 
HETATM    9  O   UNL     1      40.138 -15.365  -3.148  1.00  0.00    -0.245 OA
HETATM   10  H   UNL     1      42.056 -14.007  -1.048  1.00  0.00     0.170 HD
HETATM   11  H   UNL     1      40.622 -17.010  -1.382  1.00  0.00     0.192 HD
BRANCH   8  12
HETATM   12  C   UNL     1      41.528 -12.767  -2.629  1.00  0.00     0.036 A 
HETATM   13  C   UNL     1      42.496 -12.367  -3.552  1.00  0.00     0.029 A 
HETATM   14  C   UNL     1      42.384 -11.136  -4.207  1.00  0.00     0.002 A 
HETATM   15  C   UNL     1      41.304 -10.297  -3.945  1.00  0.00     0.000 A 
HETATM   16  C   UNL     1      40.336 -10.684  -3.021  1.00  0.00     0.002 A 
HETATM   17  C   UNL     1      40.451 -11.912  -2.363  1.00  0.00     0.029 A 
ENDBRANCH   8  12
ENDBRANCH   3   6
ENDBRANCH   1   2
BRANCH   1  18
HETATM   18  N   UNL     1      42.697 -17.354   2.637  1.00  0.00    -0.343 N 
HETATM   19  C   UNL     1      43.767 -18.012   2.076  1.00  0.00     0.259 C 
HETATM   20  O   UNL     1      44.534 -17.422   1.316  1.00  0.00    -0.267 OA
HETATM   21  H   UNL     1      42.032 -17.934   3.139  1.00  0.00     0.163 HD
BRANCH  19  22
HETATM   22  C   UNL     1      43.966 -19.397   2.471  1.00  0.00     0.072 A 
HETATM   23  S   UNL     1      44.564 -19.838   4.015  1.00  0.00    -0.097 SA
HETATM   24  C   UNL     1      44.542 -21.502   3.628  1.00  0.00     0.050 A 
HETATM   25  C   UNL     1      44.072 -21.729   2.354  1.00  0.00     0.009 A 
HETATM   26  C   UNL     1      43.738 -20.515   1.688  1.00  0.00     0.025 A 
ENDBRANCH  19  22
ENDBRANCH   1  18
BRANCH   1  27
HETATM   27  C   UNL     1      41.580 -15.216   3.414  1.00  0.00     0.076 C 
BRANCH  27  28
HETATM   28  C   UNL     1      42.502 -14.974   4.572  1.00  0.00    -0.028 A 
HETATM   29  C   UNL     1      42.675 -15.799   5.731  1.00  0.00    -0.002 A 
HETATM   30  C   UNL     1      43.625 -15.181   6.544  1.00  0.00     0.042 A 
HETATM   31  C   UNL     1      42.105 -17.011   6.171  1.00  0.00     0.014 A 
HETATM   32  C   UNL     1      44.041 -15.719   7.769  1.00  0.00     0.030 A 
HETATM   33  N   UNL     1      44.006 -14.020   5.915  1.00  0.00    -0.365 N 
HETATM   34  C   UNL     1      43.468 -16.927   8.174  1.00  0.00     0.002 A 
HETATM   35  C   UNL     1      42.512 -17.566   7.389  1.00  0.00     0.001 A 
HETATM   36  H   UNL     1      44.675 -13.360   6.287  1.00  0.00     0.165 HD
HETATM   37  C   UNL     1      43.341 -13.886   4.727  1.00  0.00     0.096 A 
ENDBRANCH  27  28
ENDBRANCH   1  27
TORSDOF 7
ENDMDL
