MODEL 1
REMARK VINA RESULT:      -8.6      0.000      0.000
REMARK  3 active torsions:
REMARK  status: ('A' for Active; 'I' for Inactive)
REMARK    1  A    between atoms: C_5  and  N_6 
REMARK       I    between atoms: N_6  and  C_7 
REMARK    2  A    between atoms: C_7  and  C_8 
REMARK    3  A    between atoms: C_9  and  C_10 
ROOT
HETATM    1  C   UNL     1      41.978 -15.385   5.379  1.00  0.00     0.062 A 
HETATM    2  C   UNL     1      40.887 -14.496   4.783  1.00  0.00     0.199 A 
HETATM    3  N   UNL     1      41.026 -13.112   5.229  1.00  0.00    -0.092 N 
HETATM    4  C   UNL     1      41.985 -12.667   6.092  1.00  0.00     0.735 A 
HETATM    5  N   UNL     1      42.916 -13.530   6.540  1.00  0.00    -0.191 N 
HETATM    6  N   UNL     1      40.119 -12.147   5.008  1.00  0.00     0.012 NA
HETATM    7  N   UNL     1      40.591 -11.091   5.662  1.00  0.00     0.033 NA
HETATM    8  N   UNL     1      41.751 -11.403   6.346  1.00  0.00     0.030 NA
HETATM    9  C   UNL     1      42.931 -14.880   6.203  1.00  0.00     0.037 A 
HETATM   10  C   UNL     1      44.038 -15.695   6.830  1.00  0.00     0.070 C 
HETATM   11  H   UNL     1      43.636 -13.195   7.176  1.00  0.00     0.184 HD
ENDROOT
BRANCH   1  12
HETATM   12  C   UNL     1      42.048 -16.807   4.929  1.00  0.00     0.256 C 
HETATM   13  N   UNL     1      43.063 -17.063   4.034  1.00  0.00    -0.323 N 
HETATM   14  H   UNL     1      43.654 -16.299   3.736  1.00  0.00     0.169 HD
HETATM   15  O   UNL     1      41.253 -17.616   5.393  1.00  0.00    -0.267 OA
BRANCH  13  16
HETATM   16  C   UNL     1      43.403 -18.316   3.474  1.00  0.00     0.035 A 
HETATM   17  C   UNL     1      42.895 -18.797   2.267  1.00  0.00     0.030 A 
HETATM   18  C   UNL     1      43.284 -20.050   1.780  1.00  0.00     0.009 A 
HETATM   19  C   UNL     1      44.189 -20.843   2.491  1.00  0.00    -0.062 A 
HETATM   20  C   UNL     1      44.564 -22.203   1.985  1.00  0.00     0.048 C 
HETATM   21  C   UNL     1      44.686 -20.370   3.708  1.00  0.00     0.009 A 
HETATM   22  C   UNL     1      44.305 -19.113   4.188  1.00  0.00     0.030 A 
ENDBRANCH  13  16
ENDBRANCH   1  12
BRANCH   2  23
HETATM   23  C   UNL     1      40.783 -14.548   3.271  1.00  0.00    -0.011 A 
HETATM   24  C   UNL     1      41.823 -14.048   2.487  1.00  0.00     0.125 A 
HETATM   25  N   UNL     1      41.819 -14.028   1.137  1.00  0.00    -0.272 NA
HETATM   26  C   UNL     1      40.737 -14.552   0.525  1.00  0.00     0.116 A 
HETATM   27  C   UNL     1      39.662 -15.099   1.202  1.00  0.00     0.020 A 
HETATM   28  C   UNL     1      39.689 -15.101   2.595  1.00  0.00     0.012 A 
ENDBRANCH   2  23
TORSDOF 3
ENDMDL
MODEL 2
REMARK VINA RESULT:      -8.6      1.291      1.309
REMARK  3 active torsions:
REMARK  status: ('A' for Active; 'I' for Inactive)
REMARK    1  A    between atoms: C_5  and  N_6 
REMARK       I    between atoms: N_6  and  C_7 
REMARK    2  A    between atoms: C_7  and  C_8 
REMARK    3  A    between atoms: C_9  and  C_10 
ROOT
HETATM    1  C   UNL     1      42.268 -14.594   4.847  1.00  0.00     0.062 A 
HETATM    2  C   UNL     1      40.794 -14.289   4.584  1.00  0.00     0.199 A 
HETATM    3  N   UNL     1      40.327 -13.175   5.406  1.00  0.00    -0.092 N 
HETATM    4  C   UNL     1      41.092 -12.507   6.317  1.00  0.00     0.735 A 
HETATM    5  N   UNL     1      42.390 -12.840   6.453  1.00  0.00    -0.191 N 
HETATM    6  N   UNL     1      39.043 -12.797   5.515  1.00  0.00     0.012 NA
HETATM    7  N   UNL     1      39.059 -11.829   6.425  1.00  0.00     0.033 NA
HETATM    8  N   UNL     1      40.329 -11.641   6.937  1.00  0.00     0.030 NA
HETATM    9  C   UNL     1      42.992 -13.871   5.739  1.00  0.00     0.037 A 
HETATM   10  C   UNL     1      44.450 -14.114   6.052  1.00  0.00     0.070 C 
HETATM   11  H   UNL     1      42.962 -12.335   7.126  1.00  0.00     0.184 HD
ENDROOT
BRANCH   1  12
HETATM   12  C   UNL     1      42.932 -15.630   4.002  1.00  0.00     0.256 C 
HETATM   13  N   UNL     1      42.638 -16.925   4.369  1.00  0.00    -0.323 N 
HETATM   14  H   UNL     1      42.038 -17.082   5.166  1.00  0.00     0.169 HD
HETATM   15  O   UNL     1      43.632 -15.271   3.063  1.00  0.00    -0.267 OA
BRANCH  13  16
HETATM   16  C   UNL     1      43.079 -18.107   3.730  1.00  0.00     0.035 A 
HETATM   17  C   UNL     1      42.631 -18.536   2.481  1.00  0.00     0.030 A 
HETATM   18  C   UNL     1      43.120 -19.719   1.917  1.00  0.00     0.009 A 
HETATM   19  C   UNL     1      44.068 -20.494   2.592  1.00  0.00    -0.062 A 
HETATM   20  C   UNL     1      44.551 -21.784   2.000  1.00  0.00     0.048 C 
HETATM   21  C   UNL     1      44.506 -20.075   3.851  1.00  0.00     0.009 A 
HETATM   22  C   UNL     1      44.025 -18.887   4.409  1.00  0.00     0.030 A 
ENDBRANCH  13  16
ENDBRANCH   1  12
BRANCH   2  23
HETATM   23  C   UNL     1      40.448 -14.043   3.128  1.00  0.00    -0.011 A 
HETATM   24  C   UNL     1      40.980 -12.937   2.466  1.00  0.00     0.125 A 
HETATM   25  N   UNL     1      40.718 -12.618   1.181  1.00  0.00    -0.272 NA
HETATM   26  C   UNL     1      39.902 -13.451   0.502  1.00  0.00     0.116 A 
HETATM   27  C   UNL     1      39.341 -14.590   1.051  1.00  0.00     0.020 A 
HETATM   28  C   UNL     1      39.623 -14.893   2.382  1.00  0.00     0.012 A 
ENDBRANCH   2  23
TORSDOF 3
ENDMDL
MODEL 3
REMARK VINA RESULT:      -8.1      1.516      3.675
REMARK  3 active torsions:
REMARK  status: ('A' for Active; 'I' for Inactive)
REMARK    1  A    between atoms: C_5  and  N_6 
REMARK       I    between atoms: N_6  and  C_7 
REMARK    2  A    between atoms: C_7  and  C_8 
REMARK    3  A    between atoms: C_9  and  C_10 
ROOT
HETATM    1  C   UNL     1      41.683 -15.131   3.519  1.00  0.00     0.062 A 
HETATM    2  C   UNL     1      42.124 -14.382   4.775  1.00  0.00     0.199 A 
HETATM    3  N   UNL     1      41.093 -13.452   5.230  1.00  0.00    -0.092 N 
HETATM    4  C   UNL     1      39.899 -13.249   4.602  1.00  0.00     0.735 A 
HETATM    5  N   UNL     1      39.597 -13.982   3.512  1.00  0.00    -0.191 N 
HETATM    6  N   UNL     1      41.266 -12.541   6.200  1.00  0.00     0.012 NA
HETATM    7  N   UNL     1      40.127 -11.855   6.217  1.00  0.00     0.033 NA
HETATM    8  N   UNL     1      39.269 -12.283   5.223  1.00  0.00     0.030 NA
HETATM    9  C   UNL     1      40.465 -14.916   2.957  1.00  0.00     0.037 A 
HETATM   10  C   UNL     1      39.961 -15.617   1.717  1.00  0.00     0.070 C 
HETATM   11  H   UNL     1      38.703 -13.837   3.051  1.00  0.00     0.184 HD
ENDROOT
BRANCH   1  12
HETATM   12  C   UNL     1      42.576 -16.206   2.992  1.00  0.00     0.256 C 
HETATM   13  N   UNL     1      42.321 -17.454   3.516  1.00  0.00    -0.323 N 
HETATM   14  H   UNL     1      41.593 -17.552   4.209  1.00  0.00     0.169 HD
HETATM   15  O   UNL     1      43.413 -15.919   2.145  1.00  0.00    -0.267 OA
BRANCH  13  16
HETATM   16  C   UNL     1      42.968 -18.664   3.175  1.00  0.00     0.035 A 
HETATM   17  C   UNL     1      42.742 -19.365   1.991  1.00  0.00     0.030 A 
HETATM   18  C   UNL     1      43.427 -20.557   1.728  1.00  0.00     0.009 A 
HETATM   19  C   UNL     1      44.351 -21.068   2.645  1.00  0.00    -0.062 A 
HETATM   20  C   UNL     1      45.045 -22.369   2.376  1.00  0.00     0.048 C 
HETATM   21  C   UNL     1      44.566 -20.375   3.839  1.00  0.00     0.009 A 
HETATM   22  C   UNL     1      43.890 -19.178   4.096  1.00  0.00     0.030 A 
ENDBRANCH  13  16
ENDBRANCH   1  12
BRANCH   2  23
HETATM   23  C   UNL     1      42.566 -15.271   5.921  1.00  0.00    -0.011 A 
HETATM   24  C   UNL     1      43.782 -15.028   6.559  1.00  0.00     0.125 A 
HETATM   25  N   UNL     1      44.273 -15.772   7.573  1.00  0.00    -0.272 NA
HETATM   26  C   UNL     1      43.512 -16.802   7.996  1.00  0.00     0.116 A 
HETATM   27  C   UNL     1      42.279 -17.118   7.453  1.00  0.00     0.020 A 
HETATM   28  C   UNL     1      41.798 -16.338   6.404  1.00  0.00     0.012 A 
ENDBRANCH   2  23
TORSDOF 3
ENDMDL
MODEL 4
REMARK VINA RESULT:      -8.1      1.612      2.190
REMARK  3 active torsions:
REMARK  status: ('A' for Active; 'I' for Inactive)
REMARK    1  A    between atoms: C_5  and  N_6 
REMARK       I    between atoms: N_6  and  C_7 
REMARK    2  A    between atoms: C_7  and  C_8 
REMARK    3  A    between atoms: C_9  and  C_10 
ROOT
HETATM    1  C   UNL     1      42.102 -14.566   3.703  1.00  0.00     0.062 A 
HETATM    2  C   UNL     1      40.867 -14.225   2.870  1.00  0.00     0.199 A 
HETATM    3  N   UNL     1      40.206 -13.021   3.368  1.00  0.00    -0.092 N 
HETATM    4  C   UNL     1      40.614 -12.303   4.455  1.00  0.00     0.735 A 
HETATM    5  N   UNL     1      41.733 -12.677   5.105  1.00  0.00    -0.191 N 
HETATM    6  N   UNL     1      39.010 -12.580   2.946  1.00  0.00     0.012 NA
HETATM    7  N   UNL     1      38.749 -11.533   3.722  1.00  0.00     0.033 NA
HETATM    8  N   UNL     1      39.739 -11.353   4.670  1.00  0.00     0.030 NA
HETATM    9  C   UNL     1      42.483 -13.794   4.753  1.00  0.00     0.037 A 
HETATM   10  C   UNL     1      43.689 -14.068   5.622  1.00  0.00     0.070 C 
HETATM   11  H   UNL     1      42.041 -12.136   5.910  1.00  0.00     0.184 HD
ENDROOT
BRANCH   1  12
HETATM   12  C   UNL     1      42.958 -15.704   3.254  1.00  0.00     0.256 C 
HETATM   13  N   UNL     1      42.504 -16.940   3.657  1.00  0.00    -0.323 N 
HETATM   14  H   UNL     1      41.670 -16.992   4.224  1.00  0.00     0.169 HD
HETATM   15  O   UNL     1      43.942 -15.469   2.563  1.00  0.00    -0.267 OA
BRANCH  13  16
HETATM   16  C   UNL     1      43.076 -18.195   3.346  1.00  0.00     0.035 A 
HETATM   17  C   UNL     1      43.973 -18.873   4.171  1.00  0.00     0.030 A 
HETATM   18  C   UNL     1      44.493 -20.115   3.789  1.00  0.00     0.009 A 
HETATM   19  C   UNL     1      44.124 -20.701   2.575  1.00  0.00    -0.062 A 
HETATM   20  C   UNL     1      44.722 -22.010   2.153  1.00  0.00     0.048 C 
HETATM   21  C   UNL     1      43.238 -20.016   1.739  1.00  0.00     0.009 A 
HETATM   22  C   UNL     1      42.710 -18.780   2.127  1.00  0.00     0.030 A 
ENDBRANCH  13  16
ENDBRANCH   1  12
BRANCH   2  23
HETATM   23  C   UNL     1      41.122 -14.101   1.381  1.00  0.00    -0.011 A 
HETATM   24  C   UNL     1      41.835 -13.009   0.887  1.00  0.00     0.125 A 
HETATM   25  N   UNL     1      42.097 -12.796  -0.420  1.00  0.00    -0.272 NA
HETATM   26  C   UNL     1      41.648 -13.725  -1.289  1.00  0.00     0.116 A 
HETATM   27  C   UNL     1      40.955 -14.860  -0.907  1.00  0.00     0.020 A 
HETATM   28  C   UNL     1      40.692 -15.052   0.448  1.00  0.00     0.012 A 
ENDBRANCH   2  23
TORSDOF 3
ENDMDL
MODEL 5
REMARK VINA RESULT:      -7.8      2.132      5.910
REMARK  3 active torsions:
REMARK  status: ('A' for Active; 'I' for Inactive)
REMARK    1  A    between atoms: C_5  and  N_6 
REMARK       I    between atoms: N_6  and  C_7 
REMARK    2  A    between atoms: C_7  and  C_8 
REMARK    3  A    between atoms: C_9  and  C_10 
ROOT
HETATM    1  C   UNL     1      42.078 -17.661   3.572  1.00  0.00     0.062 A 
HETATM    2  C   UNL     1      41.880 -17.143   4.996  1.00  0.00     0.199 A 
HETATM    3  N   UNL     1      42.753 -17.835   5.941  1.00  0.00    -0.092 N 
HETATM    4  C   UNL     1      43.616 -18.839   5.609  1.00  0.00     0.735 A 
HETATM    5  N   UNL     1      43.732 -19.204   4.317  1.00  0.00    -0.191 N 
HETATM    6  N   UNL     1      42.679 -17.713   7.276  1.00  0.00     0.012 NA
HETATM    7  N   UNL     1      43.574 -18.579   7.739  1.00  0.00     0.033 NA
HETATM    8  N   UNL     1      44.162 -19.291   6.711  1.00  0.00     0.030 NA
HETATM    9  C   UNL     1      42.979 -18.638   3.294  1.00  0.00     0.037 A 
HETATM   10  C   UNL     1      43.229 -19.201   1.914  1.00  0.00     0.070 C 
HETATM   11  H   UNL     1      44.382 -19.946   4.070  1.00  0.00     0.184 HD
ENDROOT
BRANCH   1  12
HETATM   12  C   UNL     1      41.344 -16.976   2.468  1.00  0.00     0.256 C 
HETATM   13  N   UNL     1      42.132 -16.147   1.700  1.00  0.00    -0.323 N 
HETATM   14  H   UNL     1      43.108 -16.044   1.939  1.00  0.00     0.169 HD
HETATM   15  O   UNL     1      40.153 -17.215   2.309  1.00  0.00    -0.267 OA
BRANCH  13  16
HETATM   16  C   UNL     1      41.729 -15.409   0.564  1.00  0.00     0.035 A 
HETATM   17  C   UNL     1      41.328 -15.984  -0.641  1.00  0.00     0.030 A 
HETATM   18  C   UNL     1      40.941 -15.180  -1.720  1.00  0.00     0.009 A 
HETATM   19  C   UNL     1      40.947 -13.786  -1.610  1.00  0.00    -0.062 A 
HETATM   20  C   UNL     1      40.576 -12.932  -2.785  1.00  0.00     0.048 C 
HETATM   21  C   UNL     1      41.365 -13.208  -0.409  1.00  0.00     0.009 A 
HETATM   22  C   UNL     1      41.741 -14.012   0.672  1.00  0.00     0.030 A 
ENDBRANCH  13  16
ENDBRANCH   1  12
BRANCH   2  23
HETATM   23  C   UNL     1      42.032 -15.642   5.150  1.00  0.00    -0.011 A 
HETATM   24  C   UNL     1      40.946 -14.874   5.572  1.00  0.00     0.125 A 
HETATM   25  N   UNL     1      40.972 -13.533   5.720  1.00  0.00    -0.272 NA
HETATM   26  C   UNL     1      42.142 -12.915   5.458  1.00  0.00     0.116 A 
HETATM   27  C   UNL     1      43.288 -13.579   5.060  1.00  0.00     0.020 A 
HETATM   28  C   UNL     1      43.233 -14.963   4.909  1.00  0.00     0.012 A 
ENDBRANCH   2  23
TORSDOF 3
ENDMDL
MODEL 6
REMARK VINA RESULT:      -7.8      2.497      5.903
REMARK  3 active torsions:
REMARK  status: ('A' for Active; 'I' for Inactive)
REMARK    1  A    between atoms: C_5  and  N_6 
REMARK       I    between atoms: N_6  and  C_7 
REMARK    2  A    between atoms: C_7  and  C_8 
REMARK    3  A    between atoms: C_9  and  C_10 
ROOT
HETATM    1  C   UNL     1      41.902 -15.156   4.440  1.00  0.00     0.062 A 
HETATM    2  C   UNL     1      43.174 -16.003   4.477  1.00  0.00     0.199 A 
HETATM    3  N   UNL     1      43.327 -16.677   5.764  1.00  0.00    -0.092 N 
HETATM    4  C   UNL     1      42.467 -16.548   6.816  1.00  0.00     0.735 A 
HETATM    5  N   UNL     1      41.360 -15.794   6.669  1.00  0.00    -0.191 N 
HETATM    6  N   UNL     1      44.426 -17.346   6.146  1.00  0.00     0.012 NA
HETATM    7  N   UNL     1      44.178 -17.703   7.402  1.00  0.00     0.033 NA
HETATM    8  N   UNL     1      42.962 -17.208   7.833  1.00  0.00     0.030 NA
HETATM    9  C   UNL     1      41.062 -15.095   5.505  1.00  0.00     0.037 A 
HETATM   10  C   UNL     1      39.790 -14.280   5.543  1.00  0.00     0.070 C 
HETATM   11  H   UNL     1      40.714 -15.706   7.451  1.00  0.00     0.184 HD
ENDROOT
BRANCH   1  12
HETATM   12  C   UNL     1      41.537 -14.494   3.152  1.00  0.00     0.256 C 
HETATM   13  N   UNL     1      40.555 -15.151   2.443  1.00  0.00    -0.323 N 
HETATM   14  H   UNL     1      40.179 -16.012   2.814  1.00  0.00     0.169 HD
HETATM   15  O   UNL     1      42.088 -13.444   2.848  1.00  0.00    -0.267 OA
BRANCH  13  16
HETATM   16  C   UNL     1      39.975 -14.740   1.221  1.00  0.00     0.035 A 
HETATM   17  C   UNL     1      40.636 -14.767  -0.007  1.00  0.00     0.030 A 
HETATM   18  C   UNL     1      39.989 -14.344  -1.173  1.00  0.00     0.009 A 
HETATM   19  C   UNL     1      38.668 -13.888  -1.132  1.00  0.00    -0.062 A 
HETATM   20  C   UNL     1      37.998 -13.393  -2.378  1.00  0.00     0.048 C 
HETATM   21  C   UNL     1      38.010 -13.844   0.100  1.00  0.00     0.009 A 
HETATM   22  C   UNL     1      38.654 -14.278   1.263  1.00  0.00     0.030 A 
ENDBRANCH  13  16
ENDBRANCH   1  12
BRANCH   2  23
HETATM   23  C   UNL     1      43.300 -17.005   3.346  1.00  0.00    -0.011 A 
HETATM   24  C   UNL     1      42.759 -18.283   3.489  1.00  0.00     0.125 A 
HETATM   25  N   UNL     1      42.836 -19.253   2.552  1.00  0.00    -0.272 NA
HETATM   26  C   UNL     1      43.463 -18.937   1.400  1.00  0.00     0.116 A 
HETATM   27  C   UNL     1      44.012 -17.693   1.142  1.00  0.00     0.020 A 
HETATM   28  C   UNL     1      43.925 -16.713   2.128  1.00  0.00     0.012 A 
ENDBRANCH   2  23
TORSDOF 3
ENDMDL
MODEL 7
REMARK VINA RESULT:      -7.6      2.203      6.468
REMARK  3 active torsions:
REMARK  status: ('A' for Active; 'I' for Inactive)
REMARK    1  A    between atoms: C_5  and  N_6 
REMARK       I    between atoms: N_6  and  C_7 
REMARK    2  A    between atoms: C_7  and  C_8 
REMARK    3  A    between atoms: C_9  and  C_10 
ROOT
HETATM    1  C   UNL     1      42.963 -17.648   3.746  1.00  0.00     0.062 A 
HETATM    2  C   UNL     1      42.717 -17.426   5.238  1.00  0.00     0.199 A 
HETATM    3  N   UNL     1      43.301 -18.498   6.039  1.00  0.00    -0.092 N 
HETATM    4  C   UNL     1      43.957 -19.581   5.529  1.00  0.00     0.735 A 
HETATM    5  N   UNL     1      44.142 -19.668   4.198  1.00  0.00    -0.191 N 
HETATM    6  N   UNL     1      43.098 -18.661   7.357  1.00  0.00     0.012 NA
HETATM    7  N   UNL     1      43.721 -19.796   7.652  1.00  0.00     0.033 NA
HETATM    8  N   UNL     1      44.257 -20.383   6.521  1.00  0.00     0.030 NA
HETATM    9  C   UNL     1      43.656 -18.726   3.297  1.00  0.00     0.037 A 
HETATM   10  C   UNL     1      43.938 -19.013   1.840  1.00  0.00     0.070 C 
HETATM   11  H   UNL     1      44.639 -20.471   3.819  1.00  0.00     0.184 HD
ENDROOT
BRANCH   1  12
HETATM   12  C   UNL     1      42.532 -16.580   2.797  1.00  0.00     0.256 C 
HETATM   13  N   UNL     1      41.207 -16.662   2.426  1.00  0.00    -0.323 N 
HETATM   14  H   UNL     1      40.646 -17.420   2.787  1.00  0.00     0.169 HD
HETATM   15  O   UNL     1      43.341 -15.726   2.457  1.00  0.00    -0.267 OA
BRANCH  13  16
HETATM   16  C   UNL     1      40.508 -15.769   1.582  1.00  0.00     0.035 A 
HETATM   17  C   UNL     1      40.957 -15.367   0.324  1.00  0.00     0.030 A 
HETATM   18  C   UNL     1      40.202 -14.479  -0.451  1.00  0.00     0.009 A 
HETATM   19  C   UNL     1      38.983 -13.979   0.018  1.00  0.00    -0.062 A 
HETATM   20  C   UNL     1      38.204 -12.993  -0.799  1.00  0.00     0.048 C 
HETATM   21  C   UNL     1      38.540 -14.368   1.285  1.00  0.00     0.009 A 
HETATM   22  C   UNL     1      39.290 -15.264   2.054  1.00  0.00     0.030 A 
ENDBRANCH  13  16
ENDBRANCH   1  12
BRANCH   2  23
HETATM   23  C   UNL     1      43.173 -16.078   5.761  1.00  0.00    -0.011 A 
HETATM   24  C   UNL     1      42.325 -14.974   5.668  1.00  0.00     0.125 A 
HETATM   25  N   UNL     1      42.643 -13.730   6.083  1.00  0.00    -0.272 NA
HETATM   26  C   UNL     1      43.860 -13.568   6.642  1.00  0.00     0.116 A 
HETATM   27  C   UNL     1      44.770 -14.597   6.809  1.00  0.00     0.020 A 
HETATM   28  C   UNL     1      44.419 -15.871   6.366  1.00  0.00     0.012 A 
ENDBRANCH   2  23
TORSDOF 3
ENDMDL
MODEL 8
REMARK VINA RESULT:      -7.4      2.013      4.306
REMARK  3 active torsions:
REMARK  status: ('A' for Active; 'I' for Inactive)
REMARK    1  A    between atoms: C_5  and  N_6 
REMARK       I    between atoms: N_6  and  C_7 
REMARK    2  A    between atoms: C_7  and  C_8 
REMARK    3  A    between atoms: C_9  and  C_10 
ROOT
HETATM    1  C   UNL     1      41.913 -15.395   1.063  1.00  0.00     0.062 A 
HETATM    2  C   UNL     1      42.251 -14.138   1.864  1.00  0.00     0.199 A 
HETATM    3  N   UNL     1      41.977 -12.927   1.095  1.00  0.00    -0.092 N 
HETATM    4  C   UNL     1      41.508 -12.910  -0.187  1.00  0.00     0.735 A 
HETATM    5  N   UNL     1      41.217 -14.076  -0.794  1.00  0.00    -0.191 N 
HETATM    6  N   UNL     1      42.335 -11.689   1.472  1.00  0.00     0.012 NA
HETATM    7  N   UNL     1      41.986 -10.916   0.449  1.00  0.00     0.033 NA
HETATM    8  N   UNL     1      41.474 -11.665  -0.594  1.00  0.00     0.030 NA
HETATM    9  C   UNL     1      41.412 -15.317  -0.197  1.00  0.00     0.037 A 
HETATM   10  C   UNL     1      41.055 -16.513  -1.049  1.00  0.00     0.070 C 
HETATM   11  H   UNL     1      40.859 -14.062  -1.746  1.00  0.00     0.184 HD
ENDROOT
BRANCH   1  12
HETATM   12  C   UNL     1      42.025 -16.716   1.749  1.00  0.00     0.256 C 
HETATM   13  N   UNL     1      43.323 -17.129   1.960  1.00  0.00    -0.323 N 
HETATM   14  H   UNL     1      44.079 -16.547   1.630  1.00  0.00     0.169 HD
HETATM   15  O   UNL     1      41.002 -17.296   2.090  1.00  0.00    -0.267 OA
BRANCH  13  16
HETATM   16  C   UNL     1      43.739 -18.306   2.623  1.00  0.00     0.035 A 
HETATM   17  C   UNL     1      43.896 -19.543   1.998  1.00  0.00     0.030 A 
HETATM   18  C   UNL     1      44.315 -20.661   2.727  1.00  0.00     0.009 A 
HETATM   19  C   UNL     1      44.586 -20.562   4.096  1.00  0.00    -0.062 A 
HETATM   20  C   UNL     1      44.989 -21.775   4.878  1.00  0.00     0.048 C 
HETATM   21  C   UNL     1      44.413 -19.328   4.727  1.00  0.00     0.009 A 
HETATM   22  C   UNL     1      44.005 -18.208   3.995  1.00  0.00     0.030 A 
ENDBRANCH  13  16
ENDBRANCH   1  12
BRANCH   2  23
HETATM   23  C   UNL     1      41.584 -14.054   3.223  1.00  0.00    -0.011 A 
HETATM   24  C   UNL     1      40.198 -13.921   3.308  1.00  0.00     0.125 A 
HETATM   25  N   UNL     1      39.511 -13.817   4.466  1.00  0.00    -0.272 NA
HETATM   26  C   UNL     1      40.230 -13.870   5.606  1.00  0.00     0.116 A 
HETATM   27  C   UNL     1      41.605 -14.027   5.639  1.00  0.00     0.020 A 
HETATM   28  C   UNL     1      42.290 -14.125   4.430  1.00  0.00     0.012 A 
ENDBRANCH   2  23
TORSDOF 3
ENDMDL
MODEL 9
REMARK VINA RESULT:      -7.2      2.803      4.321
REMARK  3 active torsions:
REMARK  status: ('A' for Active; 'I' for Inactive)
REMARK    1  A    between atoms: C_5  and  N_6 
REMARK       I    between atoms: N_6  and  C_7 
REMARK    2  A    between atoms: C_7  and  C_8 
REMARK    3  A    between atoms: C_9  and  C_10 
ROOT
HETATM    1  C   UNL     1      40.207 -13.930   2.117  1.00  0.00     0.062 A 
HETATM    2  C   UNL     1      39.514 -13.920   0.755  1.00  0.00     0.199 A 
HETATM    3  N   UNL     1      38.450 -12.920   0.707  1.00  0.00    -0.092 N 
HETATM    4  C   UNL     1      38.092 -12.116   1.750  1.00  0.00     0.735 A 
HETATM    5  N   UNL     1      38.785 -12.188   2.902  1.00  0.00    -0.191 N 
HETATM    6  N   UNL     1      37.563 -12.801  -0.294  1.00  0.00     0.012 NA
HETATM    7  N   UNL     1      36.729 -11.850   0.113  1.00  0.00     0.033 NA
HETATM    8  N   UNL     1      37.044 -11.418   1.387  1.00  0.00     0.030 NA
HETATM    9  C   UNL     1      39.833 -13.080   3.108  1.00  0.00     0.037 A 
HETATM   10  C   UNL     1      40.468 -13.032   4.478  1.00  0.00     0.070 C 
HETATM   11  H   UNL     1      38.523 -11.582   3.676  1.00  0.00     0.184 HD
ENDROOT
BRANCH   1  12
HETATM   12  C   UNL     1      41.396 -14.815   2.293  1.00  0.00     0.256 C 
HETATM   13  N   UNL     1      41.083 -16.119   2.607  1.00  0.00    -0.323 N 
HETATM   14  H   UNL     1      40.112 -16.375   2.715  1.00  0.00     0.169 HD
HETATM   15  O   UNL     1      42.515 -14.347   2.120  1.00  0.00    -0.267 OA
BRANCH  13  16
HETATM   16  C   UNL     1      41.990 -17.189   2.785  1.00  0.00     0.035 A 
HETATM   17  C   UNL     1      42.613 -17.493   3.995  1.00  0.00     0.030 A 
HETATM   18  C   UNL     1      43.499 -18.572   4.088  1.00  0.00     0.009 A 
HETATM   19  C   UNL     1      43.777 -19.367   2.972  1.00  0.00    -0.062 A 
HETATM   20  C   UNL     1      44.763 -20.492   3.069  1.00  0.00     0.048 C 
HETATM   21  C   UNL     1      43.167 -19.053   1.754  1.00  0.00     0.009 A 
HETATM   22  C   UNL     1      42.273 -17.982   1.665  1.00  0.00     0.030 A 
ENDBRANCH  13  16
ENDBRANCH   1  12
BRANCH   2  23
HETATM   23  C   UNL     1      40.446 -13.745  -0.428  1.00  0.00    -0.011 A 
HETATM   24  C   UNL     1      40.532 -14.744  -1.397  1.00  0.00     0.125 A 
HETATM   25  N   UNL     1      41.344 -14.695  -2.475  1.00  0.00    -0.272 NA
HETATM   26  C   UNL     1      42.100 -13.586  -2.616  1.00  0.00     0.116 A 
HETATM   27  C   UNL     1      42.075 -12.523  -1.730  1.00  0.00     0.020 A 
HETATM   28  C   UNL     1      41.232 -12.603  -0.623  1.00  0.00     0.012 A 
ENDBRANCH   2  23
TORSDOF 3
ENDMDL
MODEL 10
REMARK VINA RESULT:      -7.1      2.315      5.165
REMARK  3 active torsions:
REMARK  status: ('A' for Active; 'I' for Inactive)
REMARK    1  A    between atoms: C_5  and  N_6 
REMARK       I    between atoms: N_6  and  C_7 
REMARK    2  A    between atoms: C_7  and  C_8 
REMARK    3  A    between atoms: C_9  and  C_10 
ROOT
HETATM    1  C   UNL     1      42.192 -13.630   4.951  1.00  0.00     0.062 A 
HETATM    2  C   UNL     1      43.450 -14.338   5.454  1.00  0.00     0.199 A 
HETATM    3  N   UNL     1      43.934 -13.744   6.698  1.00  0.00    -0.092 N 
HETATM    4  C   UNL     1      43.360 -12.674   7.322  1.00  0.00     0.735 A 
HETATM    5  N   UNL     1      42.236 -12.139   6.808  1.00  0.00    -0.191 N 
HETATM    6  N   UNL     1      45.107 -14.042   7.277  1.00  0.00     0.012 NA
HETATM    7  N   UNL     1      45.188 -13.213   8.312  1.00  0.00     0.033 NA
HETATM    8  N   UNL     1      44.108 -12.351   8.349  1.00  0.00     0.030 NA
HETATM    9  C   UNL     1      41.643 -12.593   5.635  1.00  0.00     0.037 A 
HETATM   10  C   UNL     1      40.403 -11.845   5.202  1.00  0.00     0.070 C 
HETATM   11  H   UNL     1      41.805 -11.348   7.280  1.00  0.00     0.184 HD
ENDROOT
BRANCH   1  12
HETATM   12  C   UNL     1      41.503 -14.190   3.751  1.00  0.00     0.256 C 
HETATM   13  N   UNL     1      42.208 -14.036   2.578  1.00  0.00    -0.323 N 
HETATM   14  H   UNL     1      43.096 -13.555   2.602  1.00  0.00     0.169 HD
HETATM   15  O   UNL     1      40.424 -14.752   3.895  1.00  0.00    -0.267 OA
BRANCH  13  16
HETATM   16  C   UNL     1      41.833 -14.504   1.297  1.00  0.00     0.035 A 
HETATM   17  C   UNL     1      41.831 -15.848   0.925  1.00  0.00     0.030 A 
HETATM   18  C   UNL     1      41.443 -16.229  -0.365  1.00  0.00     0.009 A 
HETATM   19  C   UNL     1      41.049 -15.271  -1.305  1.00  0.00    -0.062 A 
HETATM   20  C   UNL     1      40.680 -15.684  -2.697  1.00  0.00     0.048 C 
HETATM   21  C   UNL     1      41.067 -13.923  -0.939  1.00  0.00     0.009 A 
HETATM   22  C   UNL     1      41.444 -13.545   0.354  1.00  0.00     0.030 A 
ENDBRANCH  13  16
ENDBRANCH   1  12
BRANCH   2  23
HETATM   23  C   UNL     1      43.311 -15.839   5.613  1.00  0.00    -0.011 A 
HETATM   24  C   UNL     1      42.705 -16.362   6.755  1.00  0.00     0.125 A 
HETATM   25  N   UNL     1      42.551 -17.681   7.001  1.00  0.00    -0.272 NA
HETATM   26  C   UNL     1      43.003 -18.532   6.056  1.00  0.00     0.116 A 
HETATM   27  C   UNL     1      43.595 -18.123   4.875  1.00  0.00     0.020 A 
HETATM   28  C   UNL     1      43.747 -16.756   4.649  1.00  0.00     0.012 A 
ENDBRANCH   2  23
TORSDOF 3
ENDMDL
