MODEL 1
REMARK VINA RESULT:      -8.7      0.000      0.000
REMARK  4 active torsions:
REMARK  status: ('A' for Active; 'I' for Inactive)
REMARK    1  A    between atoms: C_2  and  C_3 
REMARK    2  A    between atoms: C_4  and  C_5 
REMARK       I    between atoms: C_5  and  N_6 
REMARK    3  A    between atoms: N_6  and  C_7 
REMARK    4  A    between atoms: C_14  and  C_15 
REMARK       I    between atoms: C_15  and  N_16 
ROOT
HETATM    1  C   UNL     1      41.413 -16.870   1.037  1.00  0.00     0.035 A 
HETATM    2  C   UNL     1      41.512 -16.319  -0.248  1.00  0.00     0.046 A 
HETATM    3  C   UNL     1      40.896 -15.078  -0.525  1.00  0.00     0.030 A 
HETATM    4  C   UNL     1      40.197 -14.436   0.487  1.00  0.00     0.063 A 
HETATM    5  N   UNL     1      39.718 -13.286  -0.076  1.00  0.00    -0.277 N 
HETATM    6  H   UNL     1      39.157 -12.570   0.372  1.00  0.00     0.189 HD
HETATM    7  N   UNL     1      40.046 -13.119  -1.368  1.00  0.00    -0.168 NA
HETATM    8  C   UNL     1      40.778 -14.219  -1.659  1.00  0.00     0.156 A 
HETATM    9  C   UNL     1      40.075 -14.953   1.778  1.00  0.00     0.034 A 
HETATM   10  C   UNL     1      40.700 -16.181   2.030  1.00  0.00     0.032 A 
ENDROOT
BRANCH   1  11
HETATM   11  N   UNL     1      42.000 -18.097   1.412  1.00  0.00    -0.327 N 
HETATM   12  C   UNL     1      43.341 -18.377   1.551  1.00  0.00     0.227 C 
HETATM   13  O   UNL     1      44.281 -17.610   1.398  1.00  0.00    -0.273 OA
HETATM   14  H   UNL     1      41.361 -18.856   1.597  1.00  0.00     0.169 HD
BRANCH  12  15
HETATM   15  C   UNL     1      43.648 -19.764   2.005  1.00  0.00     0.087 A 
HETATM   16  C   UNL     1      43.723 -20.117   3.482  1.00  0.00     0.032 A 
HETATM   17  C   UNL     1      44.951 -20.215   2.603  1.00  0.00     0.025 A 
BRANCH  16  18
HETATM   18  C   UNL     1      43.711 -19.090   4.594  1.00  0.00    -0.053 A 
HETATM   19  C   UNL     1      42.531 -18.439   4.990  1.00  0.00     0.009 A 
HETATM   20  C   UNL     1      42.524 -17.506   6.034  1.00  0.00     0.024 A 
HETATM   21  C   UNL     1      43.703 -17.224   6.715  1.00  0.00     0.034 A 
HETATM   22  C   UNL     1      44.885 -17.866   6.362  1.00  0.00     0.024 A 
HETATM   23 CL   UNL     1      43.700 -16.083   8.003  1.00  0.00    -0.084 Cl
HETATM   24  C   UNL     1      44.883 -18.792   5.314  1.00  0.00     0.009 A 
ENDBRANCH  16  18
ENDBRANCH  12  15
ENDBRANCH   1  11
BRANCH   8  25
HETATM   25  C   UNL     1      41.343 -14.423  -3.001  1.00  0.00     0.270 C 
HETATM   26  N   UNL     1      42.584 -13.872  -3.174  1.00  0.00    -0.365 N 
HETATM   27  H   UNL     1      43.010 -13.380  -2.398  1.00  0.00     0.159 HD
HETATM   28  H   UNL     1      43.049 -13.959  -4.064  1.00  0.00     0.159 HD
HETATM   29  O   UNL     1      40.787 -15.027  -3.910  1.00  0.00    -0.266 OA
ENDBRANCH   8  25
TORSDOF 4
ENDMDL
MODEL 2
REMARK VINA RESULT:      -8.4      2.810      3.945
REMARK  4 active torsions:
REMARK  status: ('A' for Active; 'I' for Inactive)
REMARK    1  A    between atoms: C_2  and  C_3 
REMARK    2  A    between atoms: C_4  and  C_5 
REMARK       I    between atoms: C_5  and  N_6 
REMARK    3  A    between atoms: N_6  and  C_7 
REMARK    4  A    between atoms: C_14  and  C_15 
REMARK       I    between atoms: C_15  and  N_16 
ROOT
HETATM    1  C   UNL     1      42.591 -16.139   3.062  1.00  0.00     0.035 A 
HETATM    2  C   UNL     1      42.437 -15.007   2.250  1.00  0.00     0.046 A 
HETATM    3  C   UNL     1      41.878 -15.146   0.959  1.00  0.00     0.030 A 
HETATM    4  C   UNL     1      41.499 -16.409   0.525  1.00  0.00     0.063 A 
HETATM    5  N   UNL     1      41.009 -16.225  -0.739  1.00  0.00    -0.277 N 
HETATM    6  H   UNL     1      40.642 -16.934  -1.364  1.00  0.00     0.189 HD
HETATM    7  N   UNL     1      41.030 -14.952  -1.165  1.00  0.00    -0.168 NA
HETATM    8  C   UNL     1      41.562 -14.271  -0.124  1.00  0.00     0.156 A 
HETATM    9  C   UNL     1      41.638 -17.557   1.305  1.00  0.00     0.034 A 
HETATM   10  C   UNL     1      42.189 -17.393   2.582  1.00  0.00     0.032 A 
ENDROOT
BRANCH   1  11
HETATM   11  N   UNL     1      43.131 -16.100   4.366  1.00  0.00    -0.327 N 
HETATM   12  C   UNL     1      42.512 -16.465   5.541  1.00  0.00     0.227 C 
HETATM   13  O   UNL     1      41.383 -16.913   5.679  1.00  0.00    -0.273 OA
HETATM   14  H   UNL     1      44.079 -15.764   4.443  1.00  0.00     0.169 HD
BRANCH  12  15
HETATM   15  C   UNL     1      43.364 -16.351   6.759  1.00  0.00     0.087 A 
HETATM   16  C   UNL     1      44.347 -17.446   7.145  1.00  0.00     0.032 A 
HETATM   17  C   UNL     1      43.166 -17.122   8.034  1.00  0.00     0.025 A 
BRANCH  16  18
HETATM   18  C   UNL     1      44.399 -18.803   6.478  1.00  0.00    -0.053 A 
HETATM   19  C   UNL     1      45.057 -19.004   5.254  1.00  0.00     0.009 A 
HETATM   20  C   UNL     1      45.119 -20.267   4.654  1.00  0.00     0.024 A 
HETATM   21  C   UNL     1      44.536 -21.361   5.285  1.00  0.00     0.034 A 
HETATM   22  C   UNL     1      43.894 -21.201   6.508  1.00  0.00     0.024 A 
HETATM   23 CL   UNL     1      44.614 -22.916   4.556  1.00  0.00    -0.084 Cl
HETATM   24  C   UNL     1      43.833 -19.934   7.097  1.00  0.00     0.009 A 
ENDBRANCH  16  18
ENDBRANCH  12  15
ENDBRANCH   1  11
BRANCH   8  25
HETATM   25  C   UNL     1      41.756 -12.816  -0.187  1.00  0.00     0.270 C 
HETATM   26  N   UNL     1      41.000 -12.192  -1.142  1.00  0.00    -0.365 N 
HETATM   27  H   UNL     1      40.386 -12.754  -1.719  1.00  0.00     0.159 HD
HETATM   28  H   UNL     1      41.070 -11.193  -1.260  1.00  0.00     0.159 HD
HETATM   29  O   UNL     1      42.515 -12.178   0.534  1.00  0.00    -0.266 OA
ENDBRANCH   8  25
TORSDOF 4
ENDMDL
MODEL 3
REMARK VINA RESULT:      -8.1      2.813      4.078
REMARK  4 active torsions:
REMARK  status: ('A' for Active; 'I' for Inactive)
REMARK    1  A    between atoms: C_2  and  C_3 
REMARK    2  A    between atoms: C_4  and  C_5 
REMARK       I    between atoms: C_5  and  N_6 
REMARK    3  A    between atoms: N_6  and  C_7 
REMARK    4  A    between atoms: C_14  and  C_15 
REMARK       I    between atoms: C_15  and  N_16 
ROOT
HETATM    1  C   UNL     1      41.903 -15.136   4.536  1.00  0.00     0.035 A 
HETATM    2  C   UNL     1      41.826 -15.295   3.146  1.00  0.00     0.046 A 
HETATM    3  C   UNL     1      40.771 -14.683   2.431  1.00  0.00     0.030 A 
HETATM    4  C   UNL     1      39.828 -13.942   3.130  1.00  0.00     0.063 A 
HETATM    5  N   UNL     1      38.948 -13.491   2.186  1.00  0.00    -0.277 N 
HETATM    6  H   UNL     1      38.127 -12.917   2.338  1.00  0.00     0.189 HD
HETATM    7  N   UNL     1      39.237 -13.869   0.930  1.00  0.00    -0.168 NA
HETATM    8  C   UNL     1      40.364 -14.605   1.065  1.00  0.00     0.156 A 
HETATM    9  C   UNL     1      39.872 -13.763   4.514  1.00  0.00     0.034 A 
HETATM   10  C   UNL     1      40.930 -14.375   5.199  1.00  0.00     0.032 A 
ENDROOT
BRANCH   1  11
HETATM   11  N   UNL     1      42.921 -15.701   5.334  1.00  0.00    -0.327 N 
HETATM   12  C   UNL     1      42.856 -16.854   6.083  1.00  0.00     0.227 C 
HETATM   13  O   UNL     1      41.911 -17.623   6.186  1.00  0.00    -0.273 OA
HETATM   14  H   UNL     1      43.796 -15.199   5.357  1.00  0.00     0.169 HD
BRANCH  12  15
HETATM   15  C   UNL     1      44.119 -17.216   6.788  1.00  0.00     0.087 A 
HETATM   16  C   UNL     1      45.082 -18.243   6.213  1.00  0.00     0.032 A 
HETATM   17  C   UNL     1      44.368 -18.504   7.522  1.00  0.00     0.025 A 
BRANCH  16  18
HETATM   18  C   UNL     1      44.762 -19.125   5.027  1.00  0.00    -0.053 A 
HETATM   19  C   UNL     1      44.358 -18.591   3.792  1.00  0.00     0.009 A 
HETATM   20  C   UNL     1      44.084 -19.413   2.693  1.00  0.00     0.024 A 
HETATM   21  C   UNL     1      44.229 -20.791   2.807  1.00  0.00     0.034 A 
HETATM   22  C   UNL     1      44.647 -21.351   4.010  1.00  0.00     0.024 A 
HETATM   23 CL   UNL     1      43.900 -21.806   1.458  1.00  0.00    -0.084 Cl
HETATM   24  C   UNL     1      44.914 -20.523   5.104  1.00  0.00     0.009 A 
ENDBRANCH  16  18
ENDBRANCH  12  15
ENDBRANCH   1  11
BRANCH   8  25
HETATM   25  C   UNL     1      41.020 -15.211  -0.102  1.00  0.00     0.270 C 
HETATM   26  N   UNL     1      41.004 -16.579  -0.104  1.00  0.00    -0.365 N 
HETATM   27  H   UNL     1      40.562 -17.061   0.669  1.00  0.00     0.159 HD
HETATM   28  H   UNL     1      41.434 -17.082  -0.865  1.00  0.00     0.159 HD
HETATM   29  O   UNL     1      41.545 -14.584  -1.015  1.00  0.00    -0.266 OA
ENDBRANCH   8  25
TORSDOF 4
ENDMDL
MODEL 4
REMARK VINA RESULT:      -8.1      3.537      4.741
REMARK  4 active torsions:
REMARK  status: ('A' for Active; 'I' for Inactive)
REMARK    1  A    between atoms: C_2  and  C_3 
REMARK    2  A    between atoms: C_4  and  C_5 
REMARK       I    between atoms: C_5  and  N_6 
REMARK    3  A    between atoms: N_6  and  C_7 
REMARK    4  A    between atoms: C_14  and  C_15 
REMARK       I    between atoms: C_15  and  N_16 
ROOT
HETATM    1  C   UNL     1      41.546 -15.724   3.838  1.00  0.00     0.035 A 
HETATM    2  C   UNL     1      40.959 -14.456   3.742  1.00  0.00     0.046 A 
HETATM    3  C   UNL     1      39.923 -14.236   2.807  1.00  0.00     0.030 A 
HETATM    4  C   UNL     1      39.516 -15.287   1.997  1.00  0.00     0.063 A 
HETATM    5  N   UNL     1      38.523 -14.774   1.208  1.00  0.00    -0.277 N 
HETATM    6  H   UNL     1      37.996 -15.260   0.492  1.00  0.00     0.189 HD
HETATM    7  N   UNL     1      38.244 -13.480   1.435  1.00  0.00    -0.168 NA
HETATM    8  C   UNL     1      39.099 -13.133   2.425  1.00  0.00     0.156 A 
HETATM    9  C   UNL     1      40.078 -16.562   2.063  1.00  0.00     0.034 A 
HETATM   10  C   UNL     1      41.099 -16.757   3.002  1.00  0.00     0.032 A 
ENDROOT
BRANCH   1  11
HETATM   11  N   UNL     1      42.580 -16.043   4.745  1.00  0.00    -0.327 N 
HETATM   12  C   UNL     1      42.516 -16.899   5.822  1.00  0.00     0.227 C 
HETATM   13  O   UNL     1      41.558 -17.564   6.187  1.00  0.00    -0.273 OA
HETATM   14  H   UNL     1      43.466 -15.588   4.585  1.00  0.00     0.169 HD
BRANCH  12  15
HETATM   15  C   UNL     1      43.796 -17.062   6.569  1.00  0.00     0.087 A 
HETATM   16  C   UNL     1      44.888 -18.000   6.077  1.00  0.00     0.032 A 
HETATM   17  C   UNL     1      44.178 -18.264   7.387  1.00  0.00     0.025 A 
BRANCH  16  18
HETATM   18  C   UNL     1      44.703 -18.985   4.944  1.00  0.00    -0.053 A 
HETATM   19  C   UNL     1      44.818 -20.371   5.140  1.00  0.00     0.009 A 
HETATM   20  C   UNL     1      44.625 -21.278   4.091  1.00  0.00     0.024 A 
HETATM   21  C   UNL     1      44.292 -20.809   2.825  1.00  0.00     0.034 A 
HETATM   22  C   UNL     1      44.150 -19.443   2.602  1.00  0.00     0.024 A 
HETATM   23 CL   UNL     1      44.047 -21.917   1.534  1.00  0.00    -0.084 Cl
HETATM   24  C   UNL     1      44.351 -18.545   3.655  1.00  0.00     0.009 A 
ENDBRANCH  16  18
ENDBRANCH  12  15
ENDBRANCH   1  11
BRANCH   8  25
HETATM   25  C   UNL     1      39.111 -11.771   2.977  1.00  0.00     0.270 C 
HETATM   26  N   UNL     1      38.447 -11.645   4.166  1.00  0.00    -0.365 N 
HETATM   27  H   UNL     1      38.008 -12.465   4.567  1.00  0.00     0.159 HD
HETATM   28  H   UNL     1      38.400 -10.745   4.619  1.00  0.00     0.159 HD
HETATM   29  O   UNL     1      39.657 -10.808   2.452  1.00  0.00    -0.266 OA
ENDBRANCH   8  25
TORSDOF 4
ENDMDL
MODEL 5
REMARK VINA RESULT:      -8.0      3.449      5.042
REMARK  4 active torsions:
REMARK  status: ('A' for Active; 'I' for Inactive)
REMARK    1  A    between atoms: C_2  and  C_3 
REMARK    2  A    between atoms: C_4  and  C_5 
REMARK       I    between atoms: C_5  and  N_6 
REMARK    3  A    between atoms: N_6  and  C_7 
REMARK    4  A    between atoms: C_14  and  C_15 
REMARK       I    between atoms: C_15  and  N_16 
ROOT
HETATM    1  C   UNL     1      39.941 -14.490   2.315  1.00  0.00     0.035 A 
HETATM    2  C   UNL     1      40.093 -13.973   3.608  1.00  0.00     0.046 A 
HETATM    3  C   UNL     1      39.421 -12.783   3.968  1.00  0.00     0.030 A 
HETATM    4  C   UNL     1      38.628 -12.149   3.022  1.00  0.00     0.063 A 
HETATM    5  N   UNL     1      38.126 -11.044   3.651  1.00  0.00    -0.277 N 
HETATM    6  H   UNL     1      37.506 -10.343   3.261  1.00  0.00     0.189 HD
HETATM    7  N   UNL     1      38.519 -10.903   4.928  1.00  0.00    -0.168 NA
HETATM    8  C   UNL     1      39.319 -11.974   5.140  1.00  0.00     0.156 A 
HETATM    9  C   UNL     1      38.454 -12.633   1.724  1.00  0.00     0.034 A 
HETATM   10  C   UNL     1      39.125 -13.817   1.394  1.00  0.00     0.032 A 
ENDROOT
BRANCH   1  11
HETATM   11  N   UNL     1      40.564 -15.674   1.865  1.00  0.00    -0.327 N 
HETATM   12  C   UNL     1      41.909 -15.890   1.666  1.00  0.00     0.227 C 
HETATM   13  O   UNL     1      42.825 -15.104   1.859  1.00  0.00    -0.273 OA
HETATM   14  H   UNL     1      39.950 -16.450   1.666  1.00  0.00     0.169 HD
BRANCH  12  15
HETATM   15  C   UNL     1      42.264 -17.269   1.225  1.00  0.00     0.087 A 
HETATM   16  C   UNL     1      42.570 -18.369   2.229  1.00  0.00     0.032 A 
HETATM   17  C   UNL     1      43.639 -17.874   1.280  1.00  0.00     0.025 A 
BRANCH  16  18
HETATM   18  C   UNL     1      42.752 -18.128   3.712  1.00  0.00    -0.053 A 
HETATM   19  C   UNL     1      44.019 -18.153   4.318  1.00  0.00     0.009 A 
HETATM   20  C   UNL     1      44.181 -17.907   5.686  1.00  0.00     0.024 A 
HETATM   21  C   UNL     1      43.072 -17.612   6.471  1.00  0.00     0.034 A 
HETATM   22  C   UNL     1      41.806 -17.558   5.899  1.00  0.00     0.024 A 
HETATM   23 CL   UNL     1      43.266 -17.303   8.152  1.00  0.00    -0.084 Cl
HETATM   24  C   UNL     1      41.653 -17.811   4.532  1.00  0.00     0.009 A 
ENDBRANCH  16  18
ENDBRANCH  12  15
ENDBRANCH   1  11
BRANCH   8  25
HETATM   25  C   UNL     1      39.960 -12.198   6.443  1.00  0.00     0.270 C 
HETATM   26  N   UNL     1      39.243 -12.998   7.289  1.00  0.00    -0.365 N 
HETATM   27  H   UNL     1      38.353 -13.364   6.973  1.00  0.00     0.159 HD
HETATM   28  H   UNL     1      39.604 -13.205   8.207  1.00  0.00     0.159 HD
HETATM   29  O   UNL     1      41.042 -11.730   6.781  1.00  0.00    -0.266 OA
ENDBRANCH   8  25
TORSDOF 4
ENDMDL
MODEL 6
REMARK VINA RESULT:      -8.0      3.236      7.271
REMARK  4 active torsions:
REMARK  status: ('A' for Active; 'I' for Inactive)
REMARK    1  A    between atoms: C_2  and  C_3 
REMARK    2  A    between atoms: C_4  and  C_5 
REMARK       I    between atoms: C_5  and  N_6 
REMARK    3  A    between atoms: N_6  and  C_7 
REMARK    4  A    between atoms: C_14  and  C_15 
REMARK       I    between atoms: C_15  and  N_16 
ROOT
HETATM    1  C   UNL     1      43.379 -17.784   2.635  1.00  0.00     0.035 A 
HETATM    2  C   UNL     1      43.122 -17.585   3.998  1.00  0.00     0.046 A 
HETATM    3  C   UNL     1      43.528 -18.562   4.935  1.00  0.00     0.030 A 
HETATM    4  C   UNL     1      44.168 -19.705   4.477  1.00  0.00     0.063 A 
HETATM    5  N   UNL     1      44.426 -20.449   5.595  1.00  0.00    -0.277 N 
HETATM    6  H   UNL     1      44.883 -21.353   5.639  1.00  0.00     0.189 HD
HETATM    7  N   UNL     1      44.013 -19.890   6.744  1.00  0.00    -0.168 NA
HETATM    8  C   UNL     1      43.458 -18.719   6.352  1.00  0.00     0.156 A 
HETATM    9  C   UNL     1      44.440 -19.939   3.128  1.00  0.00     0.034 A 
HETATM   10  C   UNL     1      44.034 -18.953   2.220  1.00  0.00     0.032 A 
ENDROOT
BRANCH   1  11
HETATM   11  N   UNL     1      43.020 -16.864   1.627  1.00  0.00    -0.327 N 
HETATM   12  C   UNL     1      41.776 -16.676   1.068  1.00  0.00     0.227 C 
HETATM   13  O   UNL     1      40.738 -17.255   1.352  1.00  0.00    -0.273 OA
HETATM   14  H   UNL     1      43.764 -16.279   1.276  1.00  0.00     0.169 HD
BRANCH  12  15
HETATM   15  C   UNL     1      41.704 -15.590   0.049  1.00  0.00     0.087 A 
HETATM   16  C   UNL     1      41.670 -14.124   0.452  1.00  0.00     0.032 A 
HETATM   17  C   UNL     1      40.489 -14.758  -0.252  1.00  0.00     0.025 A 
BRANCH  16  18
HETATM   18  C   UNL     1      41.490 -13.648   1.877  1.00  0.00    -0.053 A 
HETATM   19  C   UNL     1      40.219 -13.505   2.458  1.00  0.00     0.009 A 
HETATM   20  C   UNL     1      40.063 -13.085   3.783  1.00  0.00     0.024 A 
HETATM   21  C   UNL     1      41.185 -12.816   4.560  1.00  0.00     0.034 A 
HETATM   22  C   UNL     1      42.459 -12.967   4.022  1.00  0.00     0.024 A 
HETATM   23 CL   UNL     1      40.999 -12.304   6.191  1.00  0.00    -0.084 Cl
HETATM   24  C   UNL     1      42.605 -13.382   2.695  1.00  0.00     0.009 A 
ENDBRANCH  16  18
ENDBRANCH  12  15
ENDBRANCH   1  11
BRANCH   8  25
HETATM   25  C   UNL     1      42.879 -17.788   7.331  1.00  0.00     0.270 C 
HETATM   26  N   UNL     1      43.526 -17.771   8.537  1.00  0.00    -0.365 N 
HETATM   27  H   UNL     1      44.324 -18.380   8.668  1.00  0.00     0.159 HD
HETATM   28  H   UNL     1      43.196 -17.164   9.271  1.00  0.00     0.159 HD
HETATM   29  O   UNL     1      41.907 -17.070   7.124  1.00  0.00    -0.266 OA
ENDBRANCH   8  25
TORSDOF 4
ENDMDL
MODEL 7
REMARK VINA RESULT:      -7.9      2.494      3.448
REMARK  4 active torsions:
REMARK  status: ('A' for Active; 'I' for Inactive)
REMARK    1  A    between atoms: C_2  and  C_3 
REMARK    2  A    between atoms: C_4  and  C_5 
REMARK       I    between atoms: C_5  and  N_6 
REMARK    3  A    between atoms: N_6  and  C_7 
REMARK    4  A    between atoms: C_14  and  C_15 
REMARK       I    between atoms: C_15  and  N_16 
ROOT
HETATM    1  C   UNL     1      41.122 -14.953   2.400  1.00  0.00     0.035 A 
HETATM    2  C   UNL     1      41.573 -14.599   1.121  1.00  0.00     0.046 A 
HETATM    3  C   UNL     1      40.635 -14.337   0.098  1.00  0.00     0.030 A 
HETATM    4  C   UNL     1      39.282 -14.444   0.385  1.00  0.00     0.063 A 
HETATM    5  N   UNL     1      38.638 -14.143  -0.783  1.00  0.00    -0.277 N 
HETATM    6  H   UNL     1      37.637 -14.124  -0.945  1.00  0.00     0.189 HD
HETATM    7  N   UNL     1      39.453 -13.844  -1.807  1.00  0.00    -0.168 NA
HETATM    8  C   UNL     1      40.693 -13.957  -1.278  1.00  0.00     0.156 A 
HETATM    9  C   UNL     1      38.795 -14.795   1.645  1.00  0.00     0.034 A 
HETATM   10  C   UNL     1      39.744 -15.044   2.645  1.00  0.00     0.032 A 
ENDROOT
BRANCH   1  11
HETATM   11  N   UNL     1      41.980 -15.226   3.487  1.00  0.00    -0.327 N 
HETATM   12  C   UNL     1      41.867 -16.241   4.410  1.00  0.00     0.227 C 
HETATM   13  O   UNL     1      41.013 -17.115   4.454  1.00  0.00    -0.273 OA
HETATM   14  H   UNL     1      42.765 -14.602   3.599  1.00  0.00     0.169 HD
BRANCH  12  15
HETATM   15  C   UNL     1      42.961 -16.294   5.421  1.00  0.00     0.087 A 
HETATM   16  C   UNL     1      44.092 -17.306   5.313  1.00  0.00     0.032 A 
HETATM   17  C   UNL     1      43.122 -17.354   6.474  1.00  0.00     0.025 A 
BRANCH  16  18
HETATM   18  C   UNL     1      44.101 -18.456   4.331  1.00  0.00    -0.053 A 
HETATM   19  C   UNL     1      43.887 -18.261   2.956  1.00  0.00     0.009 A 
HETATM   20  C   UNL     1      43.919 -19.327   2.051  1.00  0.00     0.024 A 
HETATM   21  C   UNL     1      44.185 -20.613   2.508  1.00  0.00     0.034 A 
HETATM   22  C   UNL     1      44.422 -20.839   3.859  1.00  0.00     0.024 A 
HETATM   23 CL   UNL     1      44.231 -21.927   1.399  1.00  0.00    -0.084 Cl
HETATM   24  C   UNL     1      44.384 -19.768   4.757  1.00  0.00     0.009 A 
ENDBRANCH  16  18
ENDBRANCH  12  15
ENDBRANCH   1  11
BRANCH   8  25
HETATM   25  C   UNL     1      41.892 -13.702  -2.088  1.00  0.00     0.270 C 
HETATM   26  N   UNL     1      42.026 -14.535  -3.165  1.00  0.00    -0.365 N 
HETATM   27  H   UNL     1      41.320 -15.244  -3.321  1.00  0.00     0.159 HD
HETATM   28  H   UNL     1      42.821 -14.436  -3.776  1.00  0.00     0.159 HD
HETATM   29  O   UNL     1      42.721 -12.830  -1.856  1.00  0.00    -0.266 OA
ENDBRANCH   8  25
TORSDOF 4
ENDMDL
MODEL 8
REMARK VINA RESULT:      -7.9      3.784      8.140
REMARK  4 active torsions:
REMARK  status: ('A' for Active; 'I' for Inactive)
REMARK    1  A    between atoms: C_2  and  C_3 
REMARK    2  A    between atoms: C_4  and  C_5 
REMARK       I    between atoms: C_5  and  N_6 
REMARK    3  A    between atoms: N_6  and  C_7 
REMARK    4  A    between atoms: C_14  and  C_15 
REMARK       I    between atoms: C_15  and  N_16 
ROOT
HETATM    1  C   UNL     1      41.840 -17.454   3.177  1.00  0.00     0.035 A 
HETATM    2  C   UNL     1      42.347 -18.057   4.336  1.00  0.00     0.046 A 
HETATM    3  C   UNL     1      43.386 -19.010   4.229  1.00  0.00     0.030 A 
HETATM    4  C   UNL     1      43.875 -19.330   2.971  1.00  0.00     0.063 A 
HETATM    5  N   UNL     1      44.849 -20.266   3.188  1.00  0.00    -0.277 N 
HETATM    6  H   UNL     1      45.421 -20.729   2.491  1.00  0.00     0.189 HD
HETATM    7  N   UNL     1      45.041 -20.581   4.479  1.00  0.00    -0.168 NA
HETATM    8  C   UNL     1      44.145 -19.809   5.137  1.00  0.00     0.156 A 
HETATM    9  C   UNL     1      43.395 -18.752   1.795  1.00  0.00     0.034 A 
HETATM   10  C   UNL     1      42.369 -17.806   1.927  1.00  0.00     0.032 A 
ENDROOT
BRANCH   1  11
HETATM   11  N   UNL     1      40.811 -16.488   3.182  1.00  0.00    -0.327 N 
HETATM   12  C   UNL     1      40.913 -15.156   3.516  1.00  0.00     0.227 C 
HETATM   13  O   UNL     1      41.919 -14.549   3.852  1.00  0.00    -0.273 OA
HETATM   14  H   UNL     1      39.895 -16.815   2.911  1.00  0.00     0.169 HD
BRANCH  12  15
HETATM   15  C   UNL     1      39.649 -14.378   3.380  1.00  0.00     0.087 A 
HETATM   16  C   UNL     1      39.279 -13.686   2.077  1.00  0.00     0.032 A 
HETATM   17  C   UNL     1      39.552 -12.879   3.327  1.00  0.00     0.025 A 
BRANCH  16  18
HETATM   18  C   UNL     1      40.224 -13.542   0.904  1.00  0.00    -0.053 A 
HETATM   19  C   UNL     1      40.262 -14.483  -0.139  1.00  0.00     0.009 A 
HETATM   20  C   UNL     1      41.124 -14.331  -1.231  1.00  0.00     0.024 A 
HETATM   21  C   UNL     1      41.953 -13.218  -1.307  1.00  0.00     0.034 A 
HETATM   22  C   UNL     1      41.925 -12.256  -0.303  1.00  0.00     0.024 A 
HETATM   23 CL   UNL     1      43.010 -13.022  -2.650  1.00  0.00    -0.084 Cl
HETATM   24  C   UNL     1      41.065 -12.419   0.788  1.00  0.00     0.009 A 
ENDBRANCH  16  18
ENDBRANCH  12  15
ENDBRANCH   1  11
BRANCH   8  25
HETATM   25  C   UNL     1      44.035 -19.852   6.602  1.00  0.00     0.270 C 
HETATM   26  N   UNL     1      43.611 -21.057   7.095  1.00  0.00    -0.365 N 
HETATM   27  H   UNL     1      43.409 -21.804   6.443  1.00  0.00     0.159 HD
HETATM   28  H   UNL     1      43.503 -21.178   8.090  1.00  0.00     0.159 HD
HETATM   29  O   UNL     1      44.291 -18.917   7.351  1.00  0.00    -0.266 OA
ENDBRANCH   8  25
TORSDOF 4
ENDMDL
MODEL 9
REMARK VINA RESULT:      -7.8      3.108      7.087
REMARK  4 active torsions:
REMARK  status: ('A' for Active; 'I' for Inactive)
REMARK    1  A    between atoms: C_2  and  C_3 
REMARK    2  A    between atoms: C_4  and  C_5 
REMARK       I    between atoms: C_5  and  N_6 
REMARK    3  A    between atoms: N_6  and  C_7 
REMARK    4  A    between atoms: C_14  and  C_15 
REMARK       I    between atoms: C_15  and  N_16 
ROOT
HETATM    1  C   UNL     1      42.875 -17.995   2.328  1.00  0.00     0.035 A 
HETATM    2  C   UNL     1      43.259 -18.099   3.671  1.00  0.00     0.046 A 
HETATM    3  C   UNL     1      43.892 -19.277   4.128  1.00  0.00     0.030 A 
HETATM    4  C   UNL     1      44.111 -20.311   3.229  1.00  0.00     0.063 A 
HETATM    5  N   UNL     1      44.721 -21.298   3.954  1.00  0.00    -0.277 N 
HETATM    6  H   UNL     1      45.026 -22.205   3.620  1.00  0.00     0.189 HD
HETATM    7  N   UNL     1      44.923 -20.996   5.247  1.00  0.00    -0.168 NA
HETATM    8  C   UNL     1      44.418 -19.747   5.370  1.00  0.00     0.156 A 
HETATM    9  C   UNL     1      43.742 -20.245   1.885  1.00  0.00     0.034 A 
HETATM   10  C   UNL     1      43.122 -19.065   1.455  1.00  0.00     0.032 A 
ENDROOT
BRANCH   1  11
HETATM   11  N   UNL     1      42.246 -16.858   1.777  1.00  0.00    -0.327 N 
HETATM   12  C   UNL     1      40.895 -16.601   1.704  1.00  0.00     0.227 C 
HETATM   13  O   UNL     1      39.981 -17.299   2.120  1.00  0.00    -0.273 OA
HETATM   14  H   UNL     1      42.858 -16.155   1.392  1.00  0.00     0.169 HD
BRANCH  12  15
HETATM   15  C   UNL     1      40.540 -15.285   1.101  1.00  0.00     0.087 A 
HETATM   16  C   UNL     1      41.057 -13.979   1.684  1.00  0.00     0.032 A 
HETATM   17  C   UNL     1      39.577 -14.291   1.687  1.00  0.00     0.025 A 
BRANCH  16  18
HETATM   18  C   UNL     1      41.777 -13.878   3.011  1.00  0.00    -0.053 A 
HETATM   19  C   UNL     1      41.084 -13.868   4.233  1.00  0.00     0.009 A 
HETATM   20  C   UNL     1      41.758 -13.796   5.457  1.00  0.00     0.024 A 
HETATM   21  C   UNL     1      43.147 -13.750   5.479  1.00  0.00     0.034 A 
HETATM   22  C   UNL     1      43.866 -13.779   4.288  1.00  0.00     0.024 A 
HETATM   23 CL   UNL     1      43.982 -13.667   6.980  1.00  0.00    -0.084 Cl
HETATM   24  C   UNL     1      43.183 -13.846   3.069  1.00  0.00     0.009 A 
ENDBRANCH  16  18
ENDBRANCH  12  15
ENDBRANCH   1  11
BRANCH   8  25
HETATM   25  C   UNL     1      44.448 -19.037   6.656  1.00  0.00     0.270 C 
HETATM   26  N   UNL     1      43.618 -19.567   7.606  1.00  0.00    -0.365 N 
HETATM   27  H   UNL     1      43.060 -20.377   7.366  1.00  0.00     0.159 HD
HETATM   28  H   UNL     1      43.570 -19.144   8.520  1.00  0.00     0.159 HD
HETATM   29  O   UNL     1      45.142 -18.057   6.899  1.00  0.00    -0.266 OA
ENDBRANCH   8  25
TORSDOF 4
ENDMDL
MODEL 10
REMARK VINA RESULT:      -7.6      1.204      1.583
REMARK  4 active torsions:
REMARK  status: ('A' for Active; 'I' for Inactive)
REMARK    1  A    between atoms: C_2  and  C_3 
REMARK    2  A    between atoms: C_4  and  C_5 
REMARK       I    between atoms: C_5  and  N_6 
REMARK    3  A    between atoms: N_6  and  C_7 
REMARK    4  A    between atoms: C_14  and  C_15 
REMARK       I    between atoms: C_15  and  N_16 
ROOT
HETATM    1  C   UNL     1      41.546 -15.791   0.941  1.00  0.00     0.035 A 
HETATM    2  C   UNL     1      41.253 -15.454  -0.387  1.00  0.00     0.046 A 
HETATM    3  C   UNL     1      40.954 -14.113  -0.717  1.00  0.00     0.030 A 
HETATM    4  C   UNL     1      40.952 -13.159   0.291  1.00  0.00     0.063 A 
HETATM    5  N   UNL     1      40.627 -11.981  -0.325  1.00  0.00    -0.277 N 
HETATM    6  H   UNL     1      40.531 -11.069   0.107  1.00  0.00     0.189 HD
HETATM    7  N   UNL     1      40.422 -12.083  -1.648  1.00  0.00    -0.168 NA
HETATM    8  C   UNL     1      40.623 -13.396  -1.907  1.00  0.00     0.156 A 
HETATM    9  C   UNL     1      41.238 -13.457   1.624  1.00  0.00     0.034 A 
HETATM   10  C   UNL     1      41.537 -14.792   1.925  1.00  0.00     0.032 A 
ENDROOT
BRANCH   1  11
HETATM   11  N   UNL     1      41.864 -17.099   1.367  1.00  0.00    -0.327 N 
HETATM   12  C   UNL     1      43.111 -17.677   1.438  1.00  0.00     0.227 C 
HETATM   13  O   UNL     1      44.187 -17.163   1.167  1.00  0.00    -0.273 OA
HETATM   14  H   UNL     1      41.085 -17.675   1.648  1.00  0.00     0.169 HD
BRANCH  12  15
HETATM   15  C   UNL     1      43.127 -19.069   1.972  1.00  0.00     0.087 A 
HETATM   16  C   UNL     1      43.177 -19.345   3.467  1.00  0.00     0.032 A 
HETATM   17  C   UNL     1      44.322 -19.759   2.568  1.00  0.00     0.025 A 
BRANCH  16  18
HETATM   18  C   UNL     1      43.428 -18.279   4.511  1.00  0.00    -0.053 A 
HETATM   19  C   UNL     1      44.612 -18.242   5.265  1.00  0.00     0.009 A 
HETATM   20  C   UNL     1      44.846 -17.240   6.214  1.00  0.00     0.024 A 
HETATM   21  C   UNL     1      43.899 -16.241   6.411  1.00  0.00     0.034 A 
HETATM   22  C   UNL     1      42.725 -16.235   5.666  1.00  0.00     0.024 A 
HETATM   23 CL   UNL     1      44.183 -15.004   7.571  1.00  0.00    -0.084 Cl
HETATM   24  C   UNL     1      42.498 -17.244   4.724  1.00  0.00     0.009 A 
ENDBRANCH  16  18
ENDBRANCH  12  15
ENDBRANCH   1  11
BRANCH   8  25
HETATM   25  C   UNL     1      40.497 -13.930  -3.270  1.00  0.00     0.270 C 
HETATM   26  N   UNL     1      39.309 -13.630  -3.880  1.00  0.00    -0.365 N 
HETATM   27  H   UNL     1      38.625 -13.084  -3.369  1.00  0.00     0.159 HD
HETATM   28  H   UNL     1      39.132 -13.958  -4.816  1.00  0.00     0.159 HD
HETATM   29  O   UNL     1      41.355 -14.588  -3.846  1.00  0.00    -0.266 OA
ENDBRANCH   8  25
TORSDOF 4
ENDMDL
