MODEL 1
REMARK VINA RESULT:      -9.1      0.000      0.000
REMARK  2 active torsions:
REMARK  status: ('A' for Active; 'I' for Inactive)
REMARK    1  A    between atoms: C_4  and  C_5 
REMARK    2  A    between atoms: N_11  and  C_12 
ROOT
HETATM    1  C   UNL     1      42.588 -18.141   2.380  1.00  0.00     0.069 A 
HETATM    2  N   UNL     1      42.674 -17.641   1.092  1.00  0.00    -0.343 N 
HETATM    3  C   UNL     1      41.987 -16.527   0.705  1.00  0.00     0.119 A 
HETATM    4  C   UNL     1      41.257 -15.826   1.589  1.00  0.00     0.125 A 
HETATM    5  C   UNL     1      40.730 -14.653   0.871  1.00  0.00     0.280 A 
HETATM    6  O   UNL     1      40.039 -13.783   1.369  1.00  0.00    -0.265 OA
HETATM    7  N   UNL     1      41.208 -14.778  -0.443  1.00  0.00    -0.236 N 
HETATM    8  N   UNL     1      41.963 -15.965  -0.556  1.00  0.00    -0.179 NA
HETATM    9  C   UNL     1      41.153 -16.245   2.992  1.00  0.00     0.215 A 
HETATM   10  O   UNL     1      40.520 -15.601   3.820  1.00  0.00    -0.285 OA
HETATM   11  C   UNL     1      41.877 -17.519   3.348  1.00  0.00     0.112 A 
HETATM   12 CL   UNL     1      41.732 -18.085   4.969  1.00  0.00    -0.077 Cl
HETATM   13  H   UNL     1      43.097 -18.225   0.376  1.00  0.00     0.167 HD
HETATM   14  H   UNL     1      42.910 -15.790  -0.893  1.00  0.00     0.155 HD
ENDROOT
BRANCH   1  15
HETATM   15  C   UNL     1      43.320 -19.395   2.622  1.00  0.00    -0.008 A 
HETATM   16  C   UNL     1      44.224 -19.491   3.688  1.00  0.00     0.014 A 
HETATM   17  C   UNL     1      44.910 -20.684   3.920  1.00  0.00     0.001 A 
HETATM   18  C   UNL     1      44.695 -21.786   3.092  1.00  0.00     0.000 A 
HETATM   19  C   UNL     1      43.796 -21.698   2.030  1.00  0.00     0.001 A 
HETATM   20  C   UNL     1      43.107 -20.506   1.795  1.00  0.00     0.014 A 
ENDBRANCH   1  15
BRANCH   7  21
HETATM   21  C   UNL     1      40.994 -13.949  -1.565  1.00  0.00     0.055 A 
HETATM   22  C   UNL     1      42.025 -13.165  -2.096  1.00  0.00     0.031 A 
HETATM   23  C   UNL     1      41.809 -12.355  -3.217  1.00  0.00     0.002 A 
HETATM   24  C   UNL     1      40.556 -12.315  -3.821  1.00  0.00     0.000 A 
HETATM   25  C   UNL     1      39.517 -13.081  -3.304  1.00  0.00     0.002 A 
HETATM   26  C   UNL     1      39.734 -13.892  -2.184  1.00  0.00     0.031 A 
ENDBRANCH   7  21
TORSDOF 2
ENDMDL
MODEL 2
REMARK VINA RESULT:      -9.1      0.074      1.394
REMARK  2 active torsions:
REMARK  status: ('A' for Active; 'I' for Inactive)
REMARK    1  A    between atoms: C_4  and  C_5 
REMARK    2  A    between atoms: N_11  and  C_12 
ROOT
HETATM    1  C   UNL     1      42.559 -18.089   2.350  1.00  0.00     0.069 A 
HETATM    2  N   UNL     1      42.650 -17.592   1.061  1.00  0.00    -0.343 N 
HETATM    3  C   UNL     1      41.965 -16.478   0.670  1.00  0.00     0.119 A 
HETATM    4  C   UNL     1      41.232 -15.775   1.549  1.00  0.00     0.125 A 
HETATM    5  C   UNL     1      40.709 -14.603   0.828  1.00  0.00     0.280 A 
HETATM    6  O   UNL     1      40.017 -13.731   1.322  1.00  0.00    -0.265 OA
HETATM    7  N   UNL     1      41.191 -14.730  -0.484  1.00  0.00    -0.236 N 
HETATM    8  N   UNL     1      41.945 -15.918  -0.593  1.00  0.00    -0.179 NA
HETATM    9  C   UNL     1      41.123 -16.191   2.953  1.00  0.00     0.215 A 
HETATM   10  O   UNL     1      40.488 -15.545   3.778  1.00  0.00    -0.285 OA
HETATM   11  C   UNL     1      41.845 -17.465   3.314  1.00  0.00     0.112 A 
HETATM   12 CL   UNL     1      41.694 -18.028   4.936  1.00  0.00    -0.077 Cl
HETATM   13  H   UNL     1      43.075 -18.177   0.347  1.00  0.00     0.167 HD
HETATM   14  H   UNL     1      42.894 -15.745  -0.926  1.00  0.00     0.155 HD
ENDROOT
BRANCH   1  15
HETATM   15  C   UNL     1      43.289 -19.344   2.596  1.00  0.00    -0.008 A 
HETATM   16  C   UNL     1      43.075 -20.458   1.773  1.00  0.00     0.014 A 
HETATM   17  C   UNL     1      43.774 -21.643   2.003  1.00  0.00     0.001 A 
HETATM   18  C   UNL     1      44.691 -21.722   3.052  1.00  0.00     0.000 A 
HETATM   19  C   UNL     1      44.909 -20.617   3.873  1.00  0.00     0.001 A 
HETATM   20  C   UNL     1      44.212 -19.429   3.646  1.00  0.00     0.014 A 
ENDBRANCH   1  15
BRANCH   7  21
HETATM   21  C   UNL     1      40.982 -13.903  -1.609  1.00  0.00     0.055 A 
HETATM   22  C   UNL     1      39.721 -13.798  -2.208  1.00  0.00     0.031 A 
HETATM   23  C   UNL     1      39.518 -12.967  -3.316  1.00  0.00     0.002 A 
HETATM   24  C   UNL     1      40.575 -12.231  -3.843  1.00  0.00     0.000 A 
HETATM   25  C   UNL     1      41.836 -12.328  -3.265  1.00  0.00     0.002 A 
HETATM   26  C   UNL     1      42.038 -13.158  -2.157  1.00  0.00     0.031 A 
ENDBRANCH   7  21
TORSDOF 2
ENDMDL
MODEL 3
REMARK VINA RESULT:      -8.9      1.635      7.571
REMARK  2 active torsions:
REMARK  status: ('A' for Active; 'I' for Inactive)
REMARK    1  A    between atoms: C_4  and  C_5 
REMARK    2  A    between atoms: N_11  and  C_12 
ROOT
HETATM    1  C   UNL     1      41.291 -14.591  -0.303  1.00  0.00     0.069 A 
HETATM    2  N   UNL     1      42.126 -15.696  -0.303  1.00  0.00    -0.343 N 
HETATM    3  C   UNL     1      42.241 -16.510   0.786  1.00  0.00     0.119 A 
HETATM    4  C   UNL     1      41.486 -16.311   1.879  1.00  0.00     0.125 A 
HETATM    5  C   UNL     1      41.793 -17.406   2.814  1.00  0.00     0.280 A 
HETATM    6  O   UNL     1      41.273 -17.558   3.906  1.00  0.00    -0.265 OA
HETATM    7  N   UNL     1      42.761 -18.187   2.165  1.00  0.00    -0.236 N 
HETATM    8  N   UNL     1      43.067 -17.609   0.914  1.00  0.00    -0.179 NA
HETATM    9  C   UNL     1      40.529 -15.200   1.950  1.00  0.00     0.215 A 
HETATM   10  O   UNL     1      39.807 -15.022   2.924  1.00  0.00    -0.285 OA
HETATM   11  C   UNL     1      40.492 -14.293   0.746  1.00  0.00     0.112 A 
HETATM   12 CL   UNL     1      39.430 -12.937   0.810  1.00  0.00    -0.077 Cl
HETATM   13  H   UNL     1      42.806 -15.785  -1.052  1.00  0.00     0.167 HD
HETATM   14  H   UNL     1      42.926 -18.261   0.143  1.00  0.00     0.155 HD
ENDROOT
BRANCH   1  15
HETATM   15  C   UNL     1      41.339 -13.763  -1.519  1.00  0.00    -0.008 A 
HETATM   16  C   UNL     1      42.395 -12.865  -1.721  1.00  0.00     0.014 A 
HETATM   17  C   UNL     1      42.443 -12.087  -2.878  1.00  0.00     0.001 A 
HETATM   18  C   UNL     1      41.439 -12.203  -3.840  1.00  0.00     0.000 A 
HETATM   19  C   UNL     1      40.385 -13.096  -3.646  1.00  0.00     0.001 A 
HETATM   20  C   UNL     1      40.335 -13.876  -2.489  1.00  0.00     0.014 A 
ENDBRANCH   1  15
BRANCH   7  21
HETATM   21  C   UNL     1      43.432 -19.348   2.607  1.00  0.00     0.055 A 
HETATM   22  C   UNL     1      44.134 -19.364   3.819  1.00  0.00     0.031 A 
HETATM   23  C   UNL     1      44.787 -20.522   4.256  1.00  0.00     0.002 A 
HETATM   24  C   UNL     1      44.750 -21.681   3.486  1.00  0.00     0.000 A 
HETATM   25  C   UNL     1      44.064 -21.682   2.277  1.00  0.00     0.002 A 
HETATM   26  C   UNL     1      43.411 -20.524   1.840  1.00  0.00     0.031 A 
ENDBRANCH   7  21
TORSDOF 2
ENDMDL
MODEL 4
REMARK VINA RESULT:      -8.6      2.040      2.694
REMARK  2 active torsions:
REMARK  status: ('A' for Active; 'I' for Inactive)
REMARK    1  A    between atoms: C_4  and  C_5 
REMARK    2  A    between atoms: N_11  and  C_12 
ROOT
HETATM    1  C   UNL     1      43.465 -18.750   3.680  1.00  0.00     0.069 A 
HETATM    2  N   UNL     1      42.557 -18.469   2.673  1.00  0.00    -0.343 N 
HETATM    3  C   UNL     1      41.934 -17.258   2.584  1.00  0.00     0.119 A 
HETATM    4  C   UNL     1      42.237 -16.262   3.433  1.00  0.00     0.125 A 
HETATM    5  C   UNL     1      41.460 -15.087   3.007  1.00  0.00     0.280 A 
HETATM    6  O   UNL     1      41.502 -13.992   3.538  1.00  0.00    -0.265 OA
HETATM    7  N   UNL     1      40.717 -15.517   1.897  1.00  0.00    -0.236 N 
HETATM    8  N   UNL     1      40.985 -16.882   1.654  1.00  0.00    -0.179 NA
HETATM    9  C   UNL     1      43.231 -16.447   4.498  1.00  0.00     0.215 A 
HETATM   10  O   UNL     1      43.546 -15.541   5.260  1.00  0.00    -0.285 OA
HETATM   11  C   UNL     1      43.838 -17.824   4.592  1.00  0.00     0.112 A 
HETATM   12 CL   UNL     1      44.963 -18.107   5.867  1.00  0.00    -0.077 Cl
HETATM   13  H   UNL     1      42.205 -19.240   2.113  1.00  0.00     0.167 HD
HETATM   14  H   UNL     1      41.323 -17.046   0.705  1.00  0.00     0.155 HD
ENDROOT
BRANCH   1  15
HETATM   15  C   UNL     1      43.989 -20.125   3.693  1.00  0.00    -0.008 A 
HETATM   16  C   UNL     1      44.414 -20.708   4.894  1.00  0.00     0.014 A 
HETATM   17  C   UNL     1      44.902 -22.016   4.904  1.00  0.00     0.001 A 
HETATM   18  C   UNL     1      44.968 -22.747   3.718  1.00  0.00     0.000 A 
HETATM   19  C   UNL     1      44.546 -22.173   2.519  1.00  0.00     0.001 A 
HETATM   20  C   UNL     1      44.056 -20.866   2.505  1.00  0.00     0.014 A 
ENDBRANCH   1  15
BRANCH   7  21
HETATM   21  C   UNL     1      39.784 -14.813   1.105  1.00  0.00     0.055 A 
HETATM   22  C   UNL     1      40.154 -14.245  -0.120  1.00  0.00     0.031 A 
HETATM   23  C   UNL     1      39.221 -13.559  -0.906  1.00  0.00     0.002 A 
HETATM   24  C   UNL     1      37.904 -13.428  -0.476  1.00  0.00     0.000 A 
HETATM   25  C   UNL     1      37.519 -13.980   0.741  1.00  0.00     0.002 A 
HETATM   26  C   UNL     1      38.452 -14.667   1.525  1.00  0.00     0.031 A 
ENDBRANCH   7  21
TORSDOF 2
ENDMDL
MODEL 5
REMARK VINA RESULT:      -8.5      1.042      1.695
REMARK  2 active torsions:
REMARK  status: ('A' for Active; 'I' for Inactive)
REMARK    1  A    between atoms: C_4  and  C_5 
REMARK    2  A    between atoms: N_11  and  C_12 
ROOT
HETATM    1  C   UNL     1      43.281 -18.040   2.473  1.00  0.00     0.069 A 
HETATM    2  N   UNL     1      42.899 -17.705   1.185  1.00  0.00    -0.343 N 
HETATM    3  C   UNL     1      42.421 -16.464   0.877  1.00  0.00     0.119 A 
HETATM    4  C   UNL     1      42.377 -15.493   1.803  1.00  0.00     0.125 A 
HETATM    5  C   UNL     1      41.902 -14.276   1.123  1.00  0.00     0.280 A 
HETATM    6  O   UNL     1      41.759 -13.190   1.655  1.00  0.00    -0.265 OA
HETATM    7  N   UNL     1      41.683 -14.659  -0.209  1.00  0.00    -0.236 N 
HETATM    8  N   UNL     1      41.973 -16.032  -0.356  1.00  0.00    -0.179 NA
HETATM    9  C   UNL     1      42.816 -15.736   3.183  1.00  0.00     0.215 A 
HETATM   10  O   UNL     1      42.815 -14.854   4.033  1.00  0.00    -0.285 OA
HETATM   11  C   UNL     1      43.270 -17.142   3.484  1.00  0.00     0.112 A 
HETATM   12 CL   UNL     1      43.736 -17.493   5.106  1.00  0.00    -0.077 Cl
HETATM   13  H   UNL     1      42.787 -18.452   0.506  1.00  0.00     0.167 HD
HETATM   14  H   UNL     1      42.674 -16.204  -1.077  1.00  0.00     0.155 HD
ENDROOT
BRANCH   1  15
HETATM   15  C   UNL     1      43.695 -19.440   2.665  1.00  0.00    -0.008 A 
HETATM   16  C   UNL     1      43.395 -20.404   1.694  1.00  0.00     0.014 A 
HETATM   17  C   UNL     1      43.796 -21.729   1.874  1.00  0.00     0.001 A 
HETATM   18  C   UNL     1      44.499 -22.096   3.022  1.00  0.00     0.000 A 
HETATM   19  C   UNL     1      44.801 -21.141   3.991  1.00  0.00     0.001 A 
HETATM   20  C   UNL     1      44.403 -19.815   3.814  1.00  0.00     0.014 A 
ENDBRANCH   1  15
BRANCH   7  21
HETATM   21  C   UNL     1      41.204 -13.902  -1.301  1.00  0.00     0.055 A 
HETATM   22  C   UNL     1      39.858 -13.524  -1.387  1.00  0.00     0.031 A 
HETATM   23  C   UNL     1      39.393 -12.764  -2.467  1.00  0.00     0.002 A 
HETATM   24  C   UNL     1      40.266 -12.373  -3.477  1.00  0.00     0.000 A 
HETATM   25  C   UNL     1      41.604 -12.745  -3.412  1.00  0.00     0.002 A 
HETATM   26  C   UNL     1      42.069 -13.504  -2.333  1.00  0.00     0.031 A 
ENDBRANCH   7  21
TORSDOF 2
ENDMDL
MODEL 6
REMARK VINA RESULT:      -8.4      1.886      7.652
REMARK  2 active torsions:
REMARK  status: ('A' for Active; 'I' for Inactive)
REMARK    1  A    between atoms: C_4  and  C_5 
REMARK    2  A    between atoms: N_11  and  C_12 
ROOT
HETATM    1  C   UNL     1      39.891 -14.336   0.366  1.00  0.00     0.069 A 
HETATM    2  N   UNL     1      40.702 -15.437   0.145  1.00  0.00    -0.343 N 
HETATM    3  C   UNL     1      41.214 -16.171   1.175  1.00  0.00     0.119 A 
HETATM    4  C   UNL     1      40.886 -15.896   2.448  1.00  0.00     0.125 A 
HETATM    5  C   UNL     1      41.532 -16.921   3.286  1.00  0.00     0.280 A 
HETATM    6  O   UNL     1      41.433 -16.995   4.498  1.00  0.00    -0.265 OA
HETATM    7  N   UNL     1      42.231 -17.743   2.391  1.00  0.00    -0.236 N 
HETATM    8  N   UNL     1      42.063 -17.256   1.077  1.00  0.00    -0.179 NA
HETATM    9  C   UNL     1      39.985 -14.785   2.778  1.00  0.00     0.215 A 
HETATM   10  O   UNL     1      39.647 -14.539   3.930  1.00  0.00    -0.285 OA
HETATM   11  C   UNL     1      39.503 -13.966   1.607  1.00  0.00     0.112 A 
HETATM   12 CL   UNL     1      38.494 -12.611   1.951  1.00  0.00    -0.077 Cl
HETATM   13  H   UNL     1      41.079 -15.578  -0.788  1.00  0.00     0.167 HD
HETATM   14  H   UNL     1      41.677 -17.962   0.449  1.00  0.00     0.155 HD
ENDROOT
BRANCH   1  15
HETATM   15  C   UNL     1      39.486 -13.597  -0.841  1.00  0.00    -0.008 A 
HETATM   16  C   UNL     1      38.270 -13.890  -1.473  1.00  0.00     0.014 A 
HETATM   17  C   UNL     1      37.884 -13.182  -2.612  1.00  0.00     0.001 A 
HETATM   18  C   UNL     1      38.707 -12.179  -3.124  1.00  0.00     0.000 A 
HETATM   19  C   UNL     1      39.918 -11.882  -2.499  1.00  0.00     0.001 A 
HETATM   20  C   UNL     1      40.307 -12.587  -1.359  1.00  0.00     0.014 A 
ENDBRANCH   1  15
BRANCH   7  21
HETATM   21  C   UNL     1      43.046 -18.868   2.644  1.00  0.00     0.055 A 
HETATM   22  C   UNL     1      43.880 -18.923   3.767  1.00  0.00     0.031 A 
HETATM   23  C   UNL     1      44.676 -20.046   4.018  1.00  0.00     0.002 A 
HETATM   24  C   UNL     1      44.653 -21.131   3.146  1.00  0.00     0.000 A 
HETATM   25  C   UNL     1      43.837 -21.092   2.021  1.00  0.00     0.002 A 
HETATM   26  C   UNL     1      43.040 -19.969   1.772  1.00  0.00     0.031 A 
ENDBRANCH   7  21
TORSDOF 2
ENDMDL
MODEL 7
REMARK VINA RESULT:      -8.1      4.177      8.293
REMARK  2 active torsions:
REMARK  status: ('A' for Active; 'I' for Inactive)
REMARK    1  A    between atoms: C_4  and  C_5 
REMARK    2  A    between atoms: N_11  and  C_12 
ROOT
HETATM    1  C   UNL     1      41.841 -14.533   4.857  1.00  0.00     0.069 A 
HETATM    2  N   UNL     1      41.779 -15.773   4.245  1.00  0.00    -0.343 N 
HETATM    3  C   UNL     1      42.696 -16.750   4.505  1.00  0.00     0.119 A 
HETATM    4  C   UNL     1      43.656 -16.567   5.427  1.00  0.00     0.125 A 
HETATM    5  C   UNL     1      44.406 -17.831   5.518  1.00  0.00     0.280 A 
HETATM    6  O   UNL     1      45.340 -18.035   6.273  1.00  0.00    -0.265 OA
HETATM    7  N   UNL     1      43.803 -18.687   4.585  1.00  0.00    -0.236 N 
HETATM    8  N   UNL     1      42.759 -18.003   3.927  1.00  0.00    -0.179 NA
HETATM    9  C   UNL     1      43.767 -15.305   6.170  1.00  0.00     0.215 A 
HETATM   10  O   UNL     1      44.613 -15.132   7.038  1.00  0.00    -0.285 OA
HETATM   11  C   UNL     1      42.769 -14.238   5.795  1.00  0.00     0.112 A 
HETATM   12 CL   UNL     1      42.900 -12.718   6.595  1.00  0.00    -0.077 Cl
HETATM   13  H   UNL     1      41.160 -15.887   3.448  1.00  0.00     0.167 HD
HETATM   14  H   UNL     1      41.864 -18.486   4.014  1.00  0.00     0.155 HD
ENDROOT
BRANCH   1  15
HETATM   15  C   UNL     1      40.832 -13.558   4.412  1.00  0.00    -0.008 A 
HETATM   16  C   UNL     1      39.846 -13.107   5.300  1.00  0.00     0.014 A 
HETATM   17  C   UNL     1      38.896 -12.176   4.878  1.00  0.00     0.001 A 
HETATM   18  C   UNL     1      38.926 -11.690   3.571  1.00  0.00     0.000 A 
HETATM   19  C   UNL     1      39.905 -12.133   2.683  1.00  0.00     0.001 A 
HETATM   20  C   UNL     1      40.858 -13.063   3.101  1.00  0.00     0.014 A 
ENDBRANCH   1  15
BRANCH   7  21
HETATM   21  C   UNL     1      44.129 -20.015   4.233  1.00  0.00     0.055 A 
HETATM   22  C   UNL     1      44.078 -20.447   2.903  1.00  0.00     0.031 A 
HETATM   23  C   UNL     1      44.414 -21.763   2.560  1.00  0.00     0.002 A 
HETATM   24  C   UNL     1      44.802 -22.666   3.545  1.00  0.00     0.000 A 
HETATM   25  C   UNL     1      44.851 -22.257   4.873  1.00  0.00     0.002 A 
HETATM   26  C   UNL     1      44.517 -20.942   5.215  1.00  0.00     0.031 A 
ENDBRANCH   7  21
TORSDOF 2
ENDMDL
MODEL 8
REMARK VINA RESULT:      -7.8      4.642      6.221
REMARK  2 active torsions:
REMARK  status: ('A' for Active; 'I' for Inactive)
REMARK    1  A    between atoms: C_4  and  C_5 
REMARK    2  A    between atoms: N_11  and  C_12 
ROOT
HETATM    1  C   UNL     1      42.000 -16.612   3.872  1.00  0.00     0.069 A 
HETATM    2  N   UNL     1      42.235 -15.770   4.946  1.00  0.00    -0.343 N 
HETATM    3  C   UNL     1      41.549 -14.600   5.106  1.00  0.00     0.119 A 
HETATM    4  C   UNL     1      40.562 -14.259   4.262  1.00  0.00     0.125 A 
HETATM    5  C   UNL     1      39.983 -13.003   4.769  1.00  0.00     0.280 A 
HETATM    6  O   UNL     1      39.047 -12.411   4.261  1.00  0.00    -0.265 OA
HETATM    7  N   UNL     1      40.726 -12.690   5.917  1.00  0.00    -0.236 N 
HETATM    8  N   UNL     1      41.726 -13.667   6.109  1.00  0.00    -0.179 NA
HETATM    9  C   UNL     1      40.200 -15.117   3.127  1.00  0.00     0.215 A 
HETATM   10  O   UNL     1      39.281 -14.840   2.366  1.00  0.00    -0.285 OA
HETATM   11  C   UNL     1      41.035 -16.362   2.959  1.00  0.00     0.112 A 
HETATM   12 CL   UNL     1      40.689 -17.369   1.603  1.00  0.00    -0.077 Cl
HETATM   13  H   UNL     1      43.063 -15.929   5.511  1.00  0.00     0.167 HD
HETATM   14  H   UNL     1      41.667 -14.106   7.027  1.00  0.00     0.155 HD
ENDROOT
BRANCH   1  15
HETATM   15  C   UNL     1      42.876 -17.792   3.792  1.00  0.00    -0.008 A 
HETATM   16  C   UNL     1      43.168 -18.535   4.944  1.00  0.00     0.014 A 
HETATM   17  C   UNL     1      43.991 -19.658   4.863  1.00  0.00     0.001 A 
HETATM   18  C   UNL     1      44.526 -20.047   3.635  1.00  0.00     0.000 A 
HETATM   19  C   UNL     1      44.239 -19.313   2.485  1.00  0.00     0.001 A 
HETATM   20  C   UNL     1      43.414 -18.189   2.561  1.00  0.00     0.014 A 
ENDBRANCH   1  15
BRANCH   7  21
HETATM   21  C   UNL     1      40.622 -11.584   6.788  1.00  0.00     0.055 A 
HETATM   22  C   UNL     1      41.548 -10.535   6.744  1.00  0.00     0.031 A 
HETATM   23  C   UNL     1      41.432  -9.436   7.603  1.00  0.00     0.002 A 
HETATM   24  C   UNL     1      40.388  -9.372   8.521  1.00  0.00     0.000 A 
HETATM   25  C   UNL     1      39.462 -10.407   8.584  1.00  0.00     0.002 A 
HETATM   26  C   UNL     1      39.578 -11.505   7.724  1.00  0.00     0.031 A 
ENDBRANCH   7  21
TORSDOF 2
ENDMDL
MODEL 9
REMARK VINA RESULT:      -7.6      1.688      2.288
REMARK  2 active torsions:
REMARK  status: ('A' for Active; 'I' for Inactive)
REMARK    1  A    between atoms: C_4  and  C_5 
REMARK    2  A    between atoms: N_11  and  C_12 
ROOT
HETATM    1  C   UNL     1      42.406 -16.514   3.900  1.00  0.00     0.069 A 
HETATM    2  N   UNL     1      42.806 -16.268   2.598  1.00  0.00    -0.343 N 
HETATM    3  C   UNL     1      42.081 -15.468   1.762  1.00  0.00     0.119 A 
HETATM    4  C   UNL     1      40.987 -14.824   2.201  1.00  0.00     0.125 A 
HETATM    5  C   UNL     1      40.507 -13.990   1.086  1.00  0.00     0.280 A 
HETATM    6  O   UNL     1      39.541 -13.250   1.134  1.00  0.00    -0.265 OA
HETATM    7  N   UNL     1      41.396 -14.238   0.029  1.00  0.00    -0.236 N 
HETATM    8  N   UNL     1      42.358 -15.187   0.439  1.00  0.00    -0.179 NA
HETATM    9  C   UNL     1      40.519 -14.975   3.584  1.00  0.00     0.215 A 
HETATM   10  O   UNL     1      39.544 -14.371   4.013  1.00  0.00    -0.285 OA
HETATM   11  C   UNL     1      41.318 -15.924   4.443  1.00  0.00     0.112 A 
HETATM   12 CL   UNL     1      40.769 -16.183   6.056  1.00  0.00    -0.077 Cl
HETATM   13  H   UNL     1      43.539 -16.849   2.201  1.00  0.00     0.167 HD
HETATM   14  H   UNL     1      43.312 -14.840   0.334  1.00  0.00     0.155 HD
ENDROOT
BRANCH   1  15
HETATM   15  C   UNL     1      43.245 -17.463   4.650  1.00  0.00    -0.008 A 
HETATM   16  C   UNL     1      43.969 -17.034   5.771  1.00  0.00     0.014 A 
HETATM   17  C   UNL     1      44.756 -17.938   6.485  1.00  0.00     0.001 A 
HETATM   18  C   UNL     1      44.824 -19.273   6.086  1.00  0.00     0.000 A 
HETATM   19  C   UNL     1      44.106 -19.707   4.972  1.00  0.00     0.001 A 
HETATM   20  C   UNL     1      43.316 -18.806   4.256  1.00  0.00     0.014 A 
ENDBRANCH   1  15
BRANCH   7  21
HETATM   21  C   UNL     1      41.402 -13.727  -1.287  1.00  0.00     0.055 A 
HETATM   22  C   UNL     1      40.480 -14.172  -2.242  1.00  0.00     0.031 A 
HETATM   23  C   UNL     1      40.484 -13.652  -3.542  1.00  0.00     0.002 A 
HETATM   24  C   UNL     1      41.413 -12.682  -3.906  1.00  0.00     0.000 A 
HETATM   25  C   UNL     1      42.341 -12.233  -2.972  1.00  0.00     0.002 A 
HETATM   26  C   UNL     1      42.336 -12.752  -1.673  1.00  0.00     0.031 A 
ENDBRANCH   7  21
TORSDOF 2
ENDMDL
MODEL 10
REMARK VINA RESULT:      -7.6      3.772      4.217
REMARK  2 active torsions:
REMARK  status: ('A' for Active; 'I' for Inactive)
REMARK    1  A    between atoms: C_4  and  C_5 
REMARK    2  A    between atoms: N_11  and  C_12 
ROOT
HETATM    1  C   UNL     1      43.542 -17.918   4.185  1.00  0.00     0.069 A 
HETATM    2  N   UNL     1      42.716 -17.116   3.416  1.00  0.00    -0.343 N 
HETATM    3  C   UNL     1      42.313 -15.883   3.840  1.00  0.00     0.119 A 
HETATM    4  C   UNL     1      42.770 -15.367   4.993  1.00  0.00     0.125 A 
HETATM    5  C   UNL     1      42.216 -14.007   5.101  1.00  0.00     0.280 A 
HETATM    6  O   UNL     1      42.439 -13.233   6.015  1.00  0.00    -0.265 OA
HETATM    7  N   UNL     1      41.430 -13.835   3.952  1.00  0.00    -0.236 N 
HETATM    8  N   UNL     1      41.462 -15.018   3.182  1.00  0.00    -0.179 NA
HETATM    9  C   UNL     1      43.697 -16.119   5.849  1.00  0.00     0.215 A 
HETATM   10  O   UNL     1      44.152 -15.652   6.886  1.00  0.00    -0.285 OA
HETATM   11  C   UNL     1      44.054 -17.502   5.365  1.00  0.00     0.112 A 
HETATM   12 CL   UNL     1      45.090 -18.447   6.367  1.00  0.00    -0.077 Cl
HETATM   13  H   UNL     1      42.245 -17.534   2.619  1.00  0.00     0.167 HD
HETATM   14  H   UNL     1      41.782 -14.850   2.228  1.00  0.00     0.155 HD
ENDROOT
BRANCH   1  15
HETATM   15  C   UNL     1      43.819 -19.254   3.632  1.00  0.00    -0.008 A 
HETATM   16  C   UNL     1      43.383 -19.588   2.343  1.00  0.00     0.014 A 
HETATM   17  C   UNL     1      43.655 -20.852   1.817  1.00  0.00     0.001 A 
HETATM   18  C   UNL     1      44.364 -21.786   2.573  1.00  0.00     0.000 A 
HETATM   19  C   UNL     1      44.801 -21.459   3.856  1.00  0.00     0.001 A 
HETATM   20  C   UNL     1      44.532 -20.195   4.385  1.00  0.00     0.014 A 
ENDBRANCH   1  15
BRANCH   7  21
HETATM   21  C   UNL     1      40.648 -12.732   3.547  1.00  0.00     0.055 A 
HETATM   22  C   UNL     1      41.141 -11.424   3.629  1.00  0.00     0.031 A 
HETATM   23  C   UNL     1      40.364 -10.335   3.215  1.00  0.00     0.002 A 
HETATM   24  C   UNL     1      39.081 -10.539   2.716  1.00  0.00     0.000 A 
HETATM   25  C   UNL     1      38.572 -11.830   2.633  1.00  0.00     0.002 A 
HETATM   26  C   UNL     1      39.349 -12.918   3.046  1.00  0.00     0.031 A 
ENDBRANCH   7  21
TORSDOF 2
ENDMDL
