MODEL 1
REMARK VINA RESULT:      -7.9      0.000      0.000
REMARK  9 active torsions:
REMARK  status: ('A' for Active; 'I' for Inactive)
REMARK    1  A    between atoms: O_2  and  C_3 
REMARK    2  A    between atoms: C_4  and  S_5 
REMARK    3  A    between atoms: S_5  and  N_6 
REMARK    4  A    between atoms: N_6  and  C_7 
REMARK    5  A    between atoms: C_7  and  C_8 
REMARK    6  A    between atoms: C_7  and  C_21 
REMARK       I    between atoms: C_8  and  N_9 
REMARK    7  A    between atoms: N_9  and  C_10 
REMARK    8  A    between atoms: C_21  and  C_22 
REMARK    9  A    between atoms: C_22  and  S_23 
ROOT
HETATM    1  C   UNL     1      41.989 -14.597   2.151  1.00  0.00     0.165 C 
ENDROOT
BRANCH   1   2
HETATM    2  N   UNL     1      41.485 -14.065   3.447  1.00  0.00    -0.202 NA
HETATM    3  H   UNL     1      40.840 -14.702   3.927  1.00  0.00     0.141 HD
BRANCH   2   4
HETATM    4  S   UNL     1      42.685 -13.640   4.581  1.00  0.00     0.245 S 
HETATM    5  O   UNL     1      42.211 -12.473   5.288  1.00  0.00    -0.206 OA
HETATM    6  O   UNL     1      43.923 -13.654   3.835  1.00  0.00    -0.206 OA
BRANCH   4   7
HETATM    7  C   UNL     1      42.753 -15.003   5.705  1.00  0.00     0.107 A 
HETATM    8  C   UNL     1      43.846 -15.130   6.565  1.00  0.00     0.091 A 
HETATM    9  C   UNL     1      43.884 -16.167   7.500  1.00  0.00     0.038 A 
HETATM   10  C   UNL     1      42.849 -17.101   7.549  1.00  0.00     0.003 A 
HETATM   11  C   UNL     1      41.773 -16.995   6.669  1.00  0.00     0.002 A 
HETATM   12  C   UNL     1      41.722 -15.948   5.746  1.00  0.00     0.028 A 
BRANCH   8  13
HETATM   13  O   UNL     1      44.881 -14.238   6.583  1.00  0.00    -0.354 OA
HETATM   14  C   UNL     1      44.861 -13.434   7.764  1.00  0.00     0.210 C 
ENDBRANCH   8  13
ENDBRANCH   4   7
ENDBRANCH   2   4
ENDBRANCH   1   2
BRANCH   1  15
HETATM   15  C   UNL     1      42.144 -16.125   2.271  1.00  0.00     0.254 C 
HETATM   16  N   UNL     1      43.424 -16.532   2.576  1.00  0.00    -0.156 N 
HETATM   17  H   UNL     1      44.193 -15.883   2.672  1.00  0.00     0.187 HD
HETATM   18  O   UNL     1      41.199 -16.888   2.053  1.00  0.00    -0.271 OA
BRANCH  16  19
HETATM   19  C   UNL     1      43.741 -17.844   2.811  1.00  0.00     0.708 A 
HETATM   20  N   UNL     1      44.128 -18.312   3.973  1.00  0.00    -0.062 NA
HETATM   21  C   UNL     1      44.299 -19.663   3.777  1.00  0.00     0.103 A 
HETATM   22  C   UNL     1      43.996 -20.021   2.468  1.00  0.00     0.078 A 
HETATM   23  C   UNL     1      44.706 -20.657   4.680  1.00  0.00     0.034 A 
HETATM   24  N   UNL     1      43.664 -18.837   1.868  1.00  0.00    -0.188 N 
HETATM   25  C   UNL     1      44.052 -21.334   1.996  1.00  0.00     0.032 A 
HETATM   26  H   UNL     1      43.378 -18.689   0.908  1.00  0.00     0.184 HD
HETATM   27  C   UNL     1      44.450 -22.313   2.915  1.00  0.00     0.002 A 
HETATM   28  C   UNL     1      44.778 -21.982   4.233  1.00  0.00     0.002 A 
ENDBRANCH  16  19
ENDBRANCH   1  15
BRANCH   1  29
HETATM   29  C   UNL     1      40.975 -14.302   1.036  1.00  0.00     0.040 C 
BRANCH  29  30
HETATM   30  C   UNL     1      41.543 -14.328  -0.383  1.00  0.00     0.075 C 
BRANCH  30  31
HETATM   31  S   UNL     1      40.286 -14.385  -1.703  1.00  0.00    -0.173 SA
HETATM   32  C   UNL     1      41.026 -15.633  -2.785  1.00  0.00     0.089 C 
ENDBRANCH  30  31
ENDBRANCH  29  30
ENDBRANCH   1  29
TORSDOF 9
ENDMDL
MODEL 2
REMARK VINA RESULT:      -7.7      1.376      2.153
REMARK  9 active torsions:
REMARK  status: ('A' for Active; 'I' for Inactive)
REMARK    1  A    between atoms: O_2  and  C_3 
REMARK    2  A    between atoms: C_4  and  S_5 
REMARK    3  A    between atoms: S_5  and  N_6 
REMARK    4  A    between atoms: N_6  and  C_7 
REMARK    5  A    between atoms: C_7  and  C_8 
REMARK    6  A    between atoms: C_7  and  C_21 
REMARK       I    between atoms: C_8  and  N_9 
REMARK    7  A    between atoms: N_9  and  C_10 
REMARK    8  A    between atoms: C_21  and  C_22 
REMARK    9  A    between atoms: C_22  and  S_23 
ROOT
HETATM    1  C   UNL     1      42.102 -15.001   2.207  1.00  0.00     0.165 C 
ENDROOT
BRANCH   1   2
HETATM    2  N   UNL     1      41.037 -14.588   3.162  1.00  0.00    -0.202 NA
HETATM    3  H   UNL     1      40.604 -15.376   3.657  1.00  0.00     0.141 HD
BRANCH   2   4
HETATM    4  S   UNL     1      41.516 -13.466   4.353  1.00  0.00     0.245 S 
HETATM    5  O   UNL     1      40.316 -13.014   5.020  1.00  0.00    -0.206 OA
HETATM    6  O   UNL     1      42.419 -12.565   3.673  1.00  0.00    -0.206 OA
BRANCH   4   7
HETATM    7  C   UNL     1      42.490 -14.400   5.493  1.00  0.00     0.107 A 
HETATM    8  C   UNL     1      42.012 -15.627   5.960  1.00  0.00     0.091 A 
HETATM    9  C   UNL     1      42.798 -16.405   6.813  1.00  0.00     0.038 A 
HETATM   10  C   UNL     1      44.044 -15.939   7.234  1.00  0.00     0.003 A 
HETATM   11  C   UNL     1      44.508 -14.700   6.796  1.00  0.00     0.002 A 
HETATM   12  C   UNL     1      43.734 -13.928   5.927  1.00  0.00     0.028 A 
BRANCH   8  13
HETATM   13  O   UNL     1      40.812 -16.150   5.570  1.00  0.00    -0.354 OA
HETATM   14  C   UNL     1      40.872 -17.574   5.454  1.00  0.00     0.210 C 
ENDBRANCH   8  13
ENDBRANCH   4   7
ENDBRANCH   2   4
ENDBRANCH   1   2
BRANCH   1  15
HETATM   15  C   UNL     1      42.308 -16.523   2.324  1.00  0.00     0.254 C 
HETATM   16  N   UNL     1      43.518 -16.880   2.876  1.00  0.00    -0.156 N 
HETATM   17  H   UNL     1      44.217 -16.199   3.140  1.00  0.00     0.187 HD
HETATM   18  O   UNL     1      41.467 -17.322   1.902  1.00  0.00    -0.271 OA
BRANCH  16  19
HETATM   19  C   UNL     1      43.848 -18.182   3.143  1.00  0.00     0.708 A 
HETATM   20  N   UNL     1      44.155 -18.634   4.336  1.00  0.00    -0.062 NA
HETATM   21  C   UNL     1      44.374 -19.982   4.163  1.00  0.00     0.103 A 
HETATM   22  C   UNL     1      44.182 -20.354   2.837  1.00  0.00     0.078 A 
HETATM   23  C   UNL     1      44.734 -20.961   5.101  1.00  0.00     0.034 A 
HETATM   24  N   UNL     1      43.869 -19.181   2.205  1.00  0.00    -0.188 N 
HETATM   25  C   UNL     1      44.307 -21.667   2.379  1.00  0.00     0.032 A 
HETATM   26  H   UNL     1      43.655 -19.045   1.224  1.00  0.00     0.184 HD
HETATM   27  C   UNL     1      44.656 -22.632   3.333  1.00  0.00     0.002 A 
HETATM   28  C   UNL     1      44.873 -22.287   4.670  1.00  0.00     0.002 A 
ENDBRANCH  16  19
ENDBRANCH   1  15
BRANCH   1  29
HETATM   29  C   UNL     1      41.665 -14.684   0.769  1.00  0.00     0.040 C 
BRANCH  29  30
HETATM   30  C   UNL     1      40.702 -13.506   0.626  1.00  0.00     0.075 C 
BRANCH  30  31
HETATM   31  S   UNL     1      39.191 -13.872  -0.327  1.00  0.00    -0.173 SA
HETATM   32  C   UNL     1      38.036 -14.192   1.029  1.00  0.00     0.089 C 
ENDBRANCH  30  31
ENDBRANCH  29  30
ENDBRANCH   1  29
TORSDOF 9
ENDMDL
MODEL 3
REMARK VINA RESULT:      -7.6      2.689      7.108
REMARK  9 active torsions:
REMARK  status: ('A' for Active; 'I' for Inactive)
REMARK    1  A    between atoms: O_2  and  C_3 
REMARK    2  A    between atoms: C_4  and  S_5 
REMARK    3  A    between atoms: S_5  and  N_6 
REMARK    4  A    between atoms: N_6  and  C_7 
REMARK    5  A    between atoms: C_7  and  C_8 
REMARK    6  A    between atoms: C_7  and  C_21 
REMARK       I    between atoms: C_8  and  N_9 
REMARK    7  A    between atoms: N_9  and  C_10 
REMARK    8  A    between atoms: C_21  and  C_22 
REMARK    9  A    between atoms: C_22  and  S_23 
ROOT
HETATM    1  C   UNL     1      42.607 -14.929   4.109  1.00  0.00     0.165 C 
ENDROOT
BRANCH   1   2
HETATM    2  N   UNL     1      43.582 -16.044   4.262  1.00  0.00    -0.202 NA
HETATM    3  H   UNL     1      44.463 -15.759   4.704  1.00  0.00     0.141 HD
BRANCH   2   4
HETATM    4  S   UNL     1      43.017 -17.398   5.129  1.00  0.00     0.245 S 
HETATM    5  O   UNL     1      41.573 -17.366   5.078  1.00  0.00    -0.206 OA
HETATM    6  O   UNL     1      43.756 -17.379   6.371  1.00  0.00    -0.206 OA
BRANCH   4   7
HETATM    7  C   UNL     1      43.592 -18.797   4.215  1.00  0.00     0.107 A 
HETATM    8  C   UNL     1      43.298 -18.895   2.853  1.00  0.00     0.091 A 
HETATM    9  C   UNL     1      43.798 -19.963   2.105  1.00  0.00     0.038 A 
HETATM   10  C   UNL     1      44.556 -20.957   2.725  1.00  0.00     0.003 A 
HETATM   11  C   UNL     1      44.821 -20.879   4.091  1.00  0.00     0.002 A 
HETATM   12  C   UNL     1      44.341 -19.801   4.839  1.00  0.00     0.028 A 
BRANCH   8  13
HETATM   13  O   UNL     1      42.581 -17.947   2.181  1.00  0.00    -0.354 OA
HETATM   14  C   UNL     1      43.280 -17.478   1.026  1.00  0.00     0.210 C 
ENDBRANCH   8  13
ENDBRANCH   4   7
ENDBRANCH   2   4
ENDBRANCH   1   2
BRANCH   1  15
HETATM   15  C   UNL     1      42.560 -14.130   5.425  1.00  0.00     0.254 C 
HETATM   16  N   UNL     1      43.778 -14.036   6.062  1.00  0.00    -0.156 N 
HETATM   17  H   UNL     1      44.612 -14.485   5.710  1.00  0.00     0.187 HD
HETATM   18  O   UNL     1      41.501 -13.677   5.868  1.00  0.00    -0.271 OA
BRANCH  16  19
HETATM   19  C   UNL     1      43.957 -13.291   7.198  1.00  0.00     0.708 A 
HETATM   20  N   UNL     1      44.956 -13.449   8.033  1.00  0.00    -0.062 NA
HETATM   21  C   UNL     1      44.775 -12.483   8.996  1.00  0.00     0.103 A 
HETATM   22  C   UNL     1      43.646 -11.717   8.730  1.00  0.00     0.078 A 
HETATM   23  C   UNL     1      45.545 -12.194  10.133  1.00  0.00     0.034 A 
HETATM   24  N   UNL     1      43.131 -12.269   7.589  1.00  0.00    -0.188 N 
HETATM   25  C   UNL     1      43.237 -10.645   9.527  1.00  0.00     0.032 A 
HETATM   26  H   UNL     1      42.305 -11.979   7.080  1.00  0.00     0.184 HD
HETATM   27  C   UNL     1      44.024 -10.365  10.650  1.00  0.00     0.002 A 
HETATM   28  C   UNL     1      45.155 -11.128  10.954  1.00  0.00     0.002 A 
ENDBRANCH  16  19
ENDBRANCH   1  15
BRANCH   1  29
HETATM   29  C   UNL     1      43.066 -13.984   2.989  1.00  0.00     0.040 C 
BRANCH  29  30
HETATM   30  C   UNL     1      42.098 -13.850   1.814  1.00  0.00     0.075 C 
BRANCH  30  31
HETATM   31  S   UNL     1      40.533 -14.765   2.011  1.00  0.00    -0.173 SA
HETATM   32  C   UNL     1      39.484 -13.449   2.678  1.00  0.00     0.089 C 
ENDBRANCH  30  31
ENDBRANCH  29  30
ENDBRANCH   1  29
TORSDOF 9
ENDMDL
MODEL 4
REMARK VINA RESULT:      -7.5      2.748      6.436
REMARK  9 active torsions:
REMARK  status: ('A' for Active; 'I' for Inactive)
REMARK    1  A    between atoms: O_2  and  C_3 
REMARK    2  A    between atoms: C_4  and  S_5 
REMARK    3  A    between atoms: S_5  and  N_6 
REMARK    4  A    between atoms: N_6  and  C_7 
REMARK    5  A    between atoms: C_7  and  C_8 
REMARK    6  A    between atoms: C_7  and  C_21 
REMARK       I    between atoms: C_8  and  N_9 
REMARK    7  A    between atoms: N_9  and  C_10 
REMARK    8  A    between atoms: C_21  and  C_22 
REMARK    9  A    between atoms: C_22  and  S_23 
ROOT
HETATM    1  C   UNL     1      42.848 -18.863   2.562  1.00  0.00     0.165 C 
ENDROOT
BRANCH   1   2
HETATM    2  N   UNL     1      43.630 -18.212   3.649  1.00  0.00    -0.202 NA
HETATM    3  H   UNL     1      44.041 -17.313   3.375  1.00  0.00     0.141 HD
BRANCH   2   4
HETATM    4  S   UNL     1      42.779 -17.939   5.101  1.00  0.00     0.245 S 
HETATM    5  O   UNL     1      43.181 -18.968   6.032  1.00  0.00    -0.206 OA
HETATM    6  O   UNL     1      41.406 -17.743   4.695  1.00  0.00    -0.206 OA
BRANCH   4   7
HETATM    7  C   UNL     1      43.365 -16.377   5.685  1.00  0.00     0.107 A 
HETATM    8  C   UNL     1      43.312 -15.265   4.842  1.00  0.00     0.091 A 
HETATM    9  C   UNL     1      43.715 -14.012   5.310  1.00  0.00     0.038 A 
HETATM   10  C   UNL     1      44.209 -13.877   6.607  1.00  0.00     0.003 A 
HETATM   11  C   UNL     1      44.294 -14.992   7.440  1.00  0.00     0.002 A 
HETATM   12  C   UNL     1      43.873 -16.243   6.982  1.00  0.00     0.028 A 
BRANCH   8  13
HETATM   13  O   UNL     1      42.820 -15.325   3.569  1.00  0.00    -0.354 OA
HETATM   14  C   UNL     1      43.104 -14.129   2.839  1.00  0.00     0.210 C 
ENDBRANCH   8  13
ENDBRANCH   4   7
ENDBRANCH   2   4
ENDBRANCH   1   2
BRANCH   1  15
HETATM   15  C   UNL     1      42.661 -17.852   1.415  1.00  0.00     0.254 C 
HETATM   16  N   UNL     1      41.415 -17.266   1.388  1.00  0.00    -0.156 N 
HETATM   17  H   UNL     1      40.683 -17.513   2.041  1.00  0.00     0.187 HD
HETATM   18  O   UNL     1      43.549 -17.650   0.582  1.00  0.00    -0.271 OA
BRANCH  16  19
HETATM   19  C   UNL     1      41.087 -16.278   0.498  1.00  0.00     0.708 A 
HETATM   20  N   UNL     1      40.460 -15.173   0.822  1.00  0.00    -0.062 NA
HETATM   21  C   UNL     1      40.373 -14.453  -0.348  1.00  0.00     0.103 A 
HETATM   22  C   UNL     1      40.973 -15.135  -1.401  1.00  0.00     0.078 A 
HETATM   23  C   UNL     1      39.799 -13.196  -0.588  1.00  0.00     0.034 A 
HETATM   24  N   UNL     1      41.401 -16.306  -0.837  1.00  0.00    -0.188 N 
HETATM   25  C   UNL     1      41.059 -14.627  -2.698  1.00  0.00     0.032 A 
HETATM   26  H   UNL     1      41.892 -17.067  -1.289  1.00  0.00     0.184 HD
HETATM   27  C   UNL     1      40.489 -13.366  -2.916  1.00  0.00     0.002 A 
HETATM   28  C   UNL     1      39.864 -12.663  -1.882  1.00  0.00     0.002 A 
ENDBRANCH  16  19
ENDBRANCH   1  15
BRANCH   1  29
HETATM   29  C   UNL     1      43.620 -20.073   2.016  1.00  0.00     0.040 C 
BRANCH  29  30
HETATM   30  C   UNL     1      44.733 -20.598   2.923  1.00  0.00     0.075 C 
BRANCH  30  31
HETATM   31  S   UNL     1      44.556 -22.347   3.406  1.00  0.00    -0.173 SA
HETATM   32  C   UNL     1      45.045 -22.242   5.146  1.00  0.00     0.089 C 
ENDBRANCH  30  31
ENDBRANCH  29  30
ENDBRANCH   1  29
TORSDOF 9
ENDMDL
MODEL 5
REMARK VINA RESULT:      -7.5      1.990      5.826
REMARK  9 active torsions:
REMARK  status: ('A' for Active; 'I' for Inactive)
REMARK    1  A    between atoms: O_2  and  C_3 
REMARK    2  A    between atoms: C_4  and  S_5 
REMARK    3  A    between atoms: S_5  and  N_6 
REMARK    4  A    between atoms: N_6  and  C_7 
REMARK    5  A    between atoms: C_7  and  C_8 
REMARK    6  A    between atoms: C_7  and  C_21 
REMARK       I    between atoms: C_8  and  N_9 
REMARK    7  A    between atoms: N_9  and  C_10 
REMARK    8  A    between atoms: C_21  and  C_22 
REMARK    9  A    between atoms: C_22  and  S_23 
ROOT
HETATM    1  C   UNL     1      42.271 -14.365   3.424  1.00  0.00     0.165 C 
ENDROOT
BRANCH   1   2
HETATM    2  N   UNL     1      42.467 -14.111   1.971  1.00  0.00    -0.202 NA
HETATM    3  H   UNL     1      43.208 -14.684   1.552  1.00  0.00     0.141 HD
BRANCH   2   4
HETATM    4  S   UNL     1      41.082 -14.316   0.998  1.00  0.00     0.245 S 
HETATM    5  O   UNL     1      40.045 -13.473   1.548  1.00  0.00    -0.206 OA
HETATM    6  O   UNL     1      40.935 -15.747   0.858  1.00  0.00    -0.206 OA
BRANCH   4   7
HETATM    7  C   UNL     1      41.545 -13.693  -0.590  1.00  0.00     0.107 A 
HETATM    8  C   UNL     1      42.223 -12.475  -0.679  1.00  0.00     0.091 A 
HETATM    9  C   UNL     1      42.649 -12.001  -1.922  1.00  0.00     0.038 A 
HETATM   10  C   UNL     1      42.362 -12.722  -3.081  1.00  0.00     0.003 A 
HETATM   11  C   UNL     1      41.656 -13.921  -2.998  1.00  0.00     0.002 A 
HETATM   12  C   UNL     1      41.246 -14.409  -1.755  1.00  0.00     0.028 A 
BRANCH   8  13
HETATM   13  O   UNL     1      42.554 -11.731   0.418  1.00  0.00    -0.354 OA
HETATM   14  C   UNL     1      41.864 -10.480   0.432  1.00  0.00     0.210 C 
ENDBRANCH   8  13
ENDBRANCH   4   7
ENDBRANCH   2   4
ENDBRANCH   1   2
BRANCH   1  15
HETATM   15  C   UNL     1      42.347 -15.883   3.675  1.00  0.00     0.254 C 
HETATM   16  N   UNL     1      43.316 -16.521   2.933  1.00  0.00    -0.156 N 
HETATM   17  H   UNL     1      43.893 -16.036   2.260  1.00  0.00     0.187 HD
HETATM   18  O   UNL     1      41.560 -16.451   4.436  1.00  0.00    -0.271 OA
BRANCH  16  19
HETATM   19  C   UNL     1      43.596 -17.853   3.082  1.00  0.00     0.708 A 
HETATM   20  N   UNL     1      43.493 -18.740   2.121  1.00  0.00    -0.062 NA
HETATM   21  C   UNL     1      43.905 -19.927   2.682  1.00  0.00     0.103 A 
HETATM   22  C   UNL     1      44.277 -19.751   4.010  1.00  0.00     0.078 A 
HETATM   23  C   UNL     1      43.996 -21.206   2.111  1.00  0.00     0.034 A 
HETATM   24  N   UNL     1      44.049 -18.422   4.245  1.00  0.00    -0.188 N 
HETATM   25  C   UNL     1      44.764 -20.781   4.817  1.00  0.00     0.032 A 
HETATM   26  H   UNL     1      44.206 -17.911   5.104  1.00  0.00     0.184 HD
HETATM   27  C   UNL     1      44.859 -22.047   4.226  1.00  0.00     0.002 A 
HETATM   28  C   UNL     1      44.476 -22.261   2.899  1.00  0.00     0.002 A 
ENDBRANCH  16  19
ENDBRANCH   1  15
BRANCH   1  29
HETATM   29  C   UNL     1      43.390 -13.688   4.229  1.00  0.00     0.040 C 
BRANCH  29  30
HETATM   30  C   UNL     1      43.160 -13.625   5.739  1.00  0.00     0.075 C 
BRANCH  30  31
HETATM   31  S   UNL     1      44.569 -14.197   6.745  1.00  0.00    -0.173 SA
HETATM   32  C   UNL     1      44.108 -15.933   6.971  1.00  0.00     0.089 C 
ENDBRANCH  30  31
ENDBRANCH  29  30
ENDBRANCH   1  29
TORSDOF 9
ENDMDL
MODEL 6
REMARK VINA RESULT:      -7.5      2.629      6.810
REMARK  9 active torsions:
REMARK  status: ('A' for Active; 'I' for Inactive)
REMARK    1  A    between atoms: O_2  and  C_3 
REMARK    2  A    between atoms: C_4  and  S_5 
REMARK    3  A    between atoms: S_5  and  N_6 
REMARK    4  A    between atoms: N_6  and  C_7 
REMARK    5  A    between atoms: C_7  and  C_8 
REMARK    6  A    between atoms: C_7  and  C_21 
REMARK       I    between atoms: C_8  and  N_9 
REMARK    7  A    between atoms: N_9  and  C_10 
REMARK    8  A    between atoms: C_21  and  C_22 
REMARK    9  A    between atoms: C_22  and  S_23 
ROOT
HETATM    1  C   UNL     1      42.315 -14.854   3.975  1.00  0.00     0.165 C 
ENDROOT
BRANCH   1   2
HETATM    2  N   UNL     1      42.993 -16.177   4.047  1.00  0.00    -0.202 NA
HETATM    3  H   UNL     1      43.396 -16.380   4.969  1.00  0.00     0.141 HD
BRANCH   2   4
HETATM    4  S   UNL     1      42.027 -17.520   3.631  1.00  0.00     0.245 S 
HETATM    5  O   UNL     1      41.480 -17.261   2.319  1.00  0.00    -0.206 OA
HETATM    6  O   UNL     1      41.198 -17.755   4.792  1.00  0.00    -0.206 OA
BRANCH   4   7
HETATM    7  C   UNL     1      43.154 -18.877   3.525  1.00  0.00     0.107 A 
HETATM    8  C   UNL     1      43.973 -19.175   4.617  1.00  0.00     0.091 A 
HETATM    9  C   UNL     1      44.824 -20.282   4.571  1.00  0.00     0.038 A 
HETATM   10  C   UNL     1      44.888 -21.066   3.420  1.00  0.00     0.003 A 
HETATM   11  C   UNL     1      44.096 -20.750   2.317  1.00  0.00     0.002 A 
HETATM   12  C   UNL     1      43.229 -19.657   2.366  1.00  0.00     0.028 A 
BRANCH   8  13
HETATM   13  O   UNL     1      43.943 -18.461   5.781  1.00  0.00    -0.354 OA
HETATM   14  C   UNL     1      45.260 -18.139   6.234  1.00  0.00     0.210 C 
ENDBRANCH   8  13
ENDBRANCH   4   7
ENDBRANCH   2   4
ENDBRANCH   1   2
BRANCH   1  15
HETATM   15  C   UNL     1      42.379 -14.189   5.362  1.00  0.00     0.254 C 
HETATM   16  N   UNL     1      43.660 -13.909   5.785  1.00  0.00    -0.156 N 
HETATM   17  H   UNL     1      44.478 -14.156   5.245  1.00  0.00     0.187 HD
HETATM   18  O   UNL     1      41.361 -13.990   6.030  1.00  0.00    -0.271 OA
BRANCH  16  19
HETATM   19  C   UNL     1      43.917 -13.238   6.952  1.00  0.00     0.708 A 
HETATM   20  N   UNL     1      45.002 -13.401   7.671  1.00  0.00    -0.062 NA
HETATM   21  C   UNL     1      44.874 -12.517   8.718  1.00  0.00     0.103 A 
HETATM   22  C   UNL     1      43.690 -11.795   8.622  1.00  0.00     0.078 A 
HETATM   23  C   UNL     1      45.741 -12.267   9.793  1.00  0.00     0.034 A 
HETATM   24  N   UNL     1      43.089 -12.292   7.497  1.00  0.00    -0.188 N 
HETATM   25  C   UNL     1      43.314 -10.806   9.533  1.00  0.00     0.032 A 
HETATM   26  H   UNL     1      42.203 -12.011   7.094  1.00  0.00     0.184 HD
HETATM   27  C   UNL     1      44.197 -10.564  10.593  1.00  0.00     0.002 A 
HETATM   28  C   UNL     1      45.387 -11.284  10.727  1.00  0.00     0.002 A 
ENDBRANCH  16  19
ENDBRANCH   1  15
BRANCH   1  29
HETATM   29  C   UNL     1      43.045 -13.948   2.972  1.00  0.00     0.040 C 
BRANCH  29  30
HETATM   30  C   UNL     1      42.138 -13.160   2.027  1.00  0.00     0.075 C 
BRANCH  30  31
HETATM   31  S   UNL     1      41.603 -14.080   0.546  1.00  0.00    -0.173 SA
HETATM   32  C   UNL     1      39.827 -14.198   0.876  1.00  0.00     0.089 C 
ENDBRANCH  30  31
ENDBRANCH  29  30
ENDBRANCH   1  29
TORSDOF 9
ENDMDL
MODEL 7
REMARK VINA RESULT:      -7.4      2.591      5.901
REMARK  9 active torsions:
REMARK  status: ('A' for Active; 'I' for Inactive)
REMARK    1  A    between atoms: O_2  and  C_3 
REMARK    2  A    between atoms: C_4  and  S_5 
REMARK    3  A    between atoms: S_5  and  N_6 
REMARK    4  A    between atoms: N_6  and  C_7 
REMARK    5  A    between atoms: C_7  and  C_8 
REMARK    6  A    between atoms: C_7  and  C_21 
REMARK       I    between atoms: C_8  and  N_9 
REMARK    7  A    between atoms: N_9  and  C_10 
REMARK    8  A    between atoms: C_21  and  C_22 
REMARK    9  A    between atoms: C_22  and  S_23 
ROOT
HETATM    1  C   UNL     1      41.988 -15.261   1.669  1.00  0.00     0.165 C 
ENDROOT
BRANCH   1   2
HETATM    2  N   UNL     1      42.386 -14.931   0.273  1.00  0.00    -0.202 NA
HETATM    3  H   UNL     1      42.945 -15.665  -0.176  1.00  0.00     0.141 HD
BRANCH   2   4
HETATM    4  S   UNL     1      41.102 -14.575  -0.791  1.00  0.00     0.245 S 
HETATM    5  O   UNL     1      39.978 -14.166   0.019  1.00  0.00    -0.206 OA
HETATM    6  O   UNL     1      41.047 -15.701  -1.696  1.00  0.00    -0.206 OA
BRANCH   4   7
HETATM    7  C   UNL     1      41.663 -13.190  -1.734  1.00  0.00     0.107 A 
HETATM    8  C   UNL     1      42.285 -12.122  -1.083  1.00  0.00     0.091 A 
HETATM    9  C   UNL     1      42.788 -11.049  -1.822  1.00  0.00     0.038 A 
HETATM   10  C   UNL     1      42.634 -11.022  -3.208  1.00  0.00     0.003 A 
HETATM   11  C   UNL     1      41.983 -12.071  -3.857  1.00  0.00     0.002 A 
HETATM   12  C   UNL     1      41.497 -13.155  -3.123  1.00  0.00     0.028 A 
BRANCH   8  13
HETATM   13  O   UNL     1      42.488 -12.097   0.268  1.00  0.00    -0.354 OA
HETATM   14  C   UNL     1      41.600 -11.183   0.915  1.00  0.00     0.210 C 
ENDBRANCH   8  13
ENDBRANCH   4   7
ENDBRANCH   2   4
ENDBRANCH   1   2
BRANCH   1  15
HETATM   15  C   UNL     1      42.237 -16.761   1.913  1.00  0.00     0.254 C 
HETATM   16  N   UNL     1      43.427 -17.030   2.553  1.00  0.00    -0.156 N 
HETATM   17  H   UNL     1      44.087 -16.306   2.801  1.00  0.00     0.187 HD
HETATM   18  O   UNL     1      41.448 -17.620   1.510  1.00  0.00    -0.271 OA
BRANCH  16  19
HETATM   19  C   UNL     1      43.784 -18.295   2.936  1.00  0.00     0.708 A 
HETATM   20  N   UNL     1      44.106 -18.631   4.163  1.00  0.00    -0.062 NA
HETATM   21  C   UNL     1      44.351 -19.984   4.112  1.00  0.00     0.103 A 
HETATM   22  C   UNL     1      44.161 -20.479   2.827  1.00  0.00     0.078 A 
HETATM   23  C   UNL     1      44.735 -20.865   5.134  1.00  0.00     0.034 A 
HETATM   24  N   UNL     1      43.821 -19.376   2.093  1.00  0.00    -0.188 N 
HETATM   25  C   UNL     1      44.311 -21.826   2.491  1.00  0.00     0.032 A 
HETATM   26  H   UNL     1      43.600 -19.335   1.106  1.00  0.00     0.184 HD
HETATM   27  C   UNL     1      44.684 -22.692   3.526  1.00  0.00     0.002 A 
HETATM   28  C   UNL     1      44.899 -22.222   4.825  1.00  0.00     0.002 A 
ENDBRANCH  16  19
ENDBRANCH   1  15
BRANCH   1  29
HETATM   29  C   UNL     1      42.849 -14.463   2.659  1.00  0.00     0.040 C 
BRANCH  29  30
HETATM   30  C   UNL     1      42.094 -13.878   3.853  1.00  0.00     0.075 C 
BRANCH  30  31
HETATM   31  S   UNL     1      42.323 -14.788   5.416  1.00  0.00    -0.173 SA
HETATM   32  C   UNL     1      40.655 -15.458   5.635  1.00  0.00     0.089 C 
ENDBRANCH  30  31
ENDBRANCH  29  30
ENDBRANCH   1  29
TORSDOF 9
ENDMDL
MODEL 8
REMARK VINA RESULT:      -7.3      2.458      7.147
REMARK  9 active torsions:
REMARK  status: ('A' for Active; 'I' for Inactive)
REMARK    1  A    between atoms: O_2  and  C_3 
REMARK    2  A    between atoms: C_4  and  S_5 
REMARK    3  A    between atoms: S_5  and  N_6 
REMARK    4  A    between atoms: N_6  and  C_7 
REMARK    5  A    between atoms: C_7  and  C_8 
REMARK    6  A    between atoms: C_7  and  C_21 
REMARK       I    between atoms: C_8  and  N_9 
REMARK    7  A    between atoms: N_9  and  C_10 
REMARK    8  A    between atoms: C_21  and  C_22 
REMARK    9  A    between atoms: C_22  and  S_23 
ROOT
HETATM    1  C   UNL     1      42.433 -15.859   3.701  1.00  0.00     0.165 C 
ENDROOT
BRANCH   1   2
HETATM    2  N   UNL     1      42.341 -17.336   3.541  1.00  0.00    -0.202 NA
HETATM    3  H   UNL     1      41.376 -17.685   3.522  1.00  0.00     0.141 HD
BRANCH   2   4
HETATM    4  S   UNL     1      43.119 -17.973   2.164  1.00  0.00     0.245 S 
HETATM    5  O   UNL     1      44.235 -17.106   1.865  1.00  0.00    -0.206 OA
HETATM    6  O   UNL     1      42.053 -18.231   1.222  1.00  0.00    -0.206 OA
BRANCH   4   7
HETATM    7  C   UNL     1      43.737 -19.547   2.678  1.00  0.00     0.107 A 
HETATM    8  C   UNL     1      44.354 -19.668   3.926  1.00  0.00     0.091 A 
HETATM    9  C   UNL     1      44.792 -20.918   4.371  1.00  0.00     0.038 A 
HETATM   10  C   UNL     1      44.652 -22.039   3.554  1.00  0.00     0.003 A 
HETATM   11  C   UNL     1      44.066 -21.914   2.295  1.00  0.00     0.002 A 
HETATM   12  C   UNL     1      43.608 -20.671   1.854  1.00  0.00     0.028 A 
BRANCH   8  13
HETATM   13  O   UNL     1      44.503 -18.615   4.782  1.00  0.00    -0.354 OA
HETATM   14  C   UNL     1      44.315 -19.012   6.142  1.00  0.00     0.210 C 
ENDBRANCH   8  13
ENDBRANCH   4   7
ENDBRANCH   2   4
ENDBRANCH   1   2
BRANCH   1  15
HETATM   15  C   UNL     1      41.449 -15.193   2.722  1.00  0.00     0.254 C 
HETATM   16  N   UNL     1      41.965 -15.002   1.459  1.00  0.00    -0.156 N 
HETATM   17  H   UNL     1      42.916 -15.244   1.217  1.00  0.00     0.187 HD
HETATM   18  O   UNL     1      40.328 -14.826   3.083  1.00  0.00    -0.271 OA
BRANCH  16  19
HETATM   19  C   UNL     1      41.214 -14.506   0.426  1.00  0.00     0.708 A 
HETATM   20  N   UNL     1      41.707 -13.840  -0.590  1.00  0.00    -0.062 NA
HETATM   21  C   UNL     1      40.628 -13.571  -1.401  1.00  0.00     0.103 A 
HETATM   22  C   UNL     1      39.458 -14.099  -0.867  1.00  0.00     0.078 A 
HETATM   23  C   UNL     1      40.573 -12.884  -2.623  1.00  0.00     0.034 A 
HETATM   24  N   UNL     1      39.857 -14.671   0.310  1.00  0.00    -0.188 N 
HETATM   25  C   UNL     1      38.213 -14.003  -1.494  1.00  0.00     0.032 A 
HETATM   26  H   UNL     1      39.284 -15.163   0.984  1.00  0.00     0.184 HD
HETATM   27  C   UNL     1      38.180 -13.322  -2.718  1.00  0.00     0.002 A 
HETATM   28  C   UNL     1      39.336 -12.766  -3.272  1.00  0.00     0.002 A 
ENDBRANCH  16  19
ENDBRANCH   1  15
BRANCH   1  29
HETATM   29  C   UNL     1      42.032 -15.462   5.130  1.00  0.00     0.040 C 
BRANCH  29  30
HETATM   30  C   UNL     1      42.923 -14.408   5.787  1.00  0.00     0.075 C 
BRANCH  30  31
HETATM   31  S   UNL     1      44.262 -15.086   6.824  1.00  0.00    -0.173 SA
HETATM   32  C   UNL     1      44.824 -13.570   7.638  1.00  0.00     0.089 C 
ENDBRANCH  30  31
ENDBRANCH  29  30
ENDBRANCH   1  29
TORSDOF 9
ENDMDL
MODEL 9
REMARK VINA RESULT:      -7.3      3.158      6.307
REMARK  9 active torsions:
REMARK  status: ('A' for Active; 'I' for Inactive)
REMARK    1  A    between atoms: O_2  and  C_3 
REMARK    2  A    between atoms: C_4  and  S_5 
REMARK    3  A    between atoms: S_5  and  N_6 
REMARK    4  A    between atoms: N_6  and  C_7 
REMARK    5  A    between atoms: C_7  and  C_8 
REMARK    6  A    between atoms: C_7  and  C_21 
REMARK       I    between atoms: C_8  and  N_9 
REMARK    7  A    between atoms: N_9  and  C_10 
REMARK    8  A    between atoms: C_21  and  C_22 
REMARK    9  A    between atoms: C_22  and  S_23 
ROOT
HETATM    1  C   UNL     1      39.750 -14.877   1.349  1.00  0.00     0.165 C 
ENDROOT
BRANCH   1   2
HETATM    2  N   UNL     1      40.234 -13.737   0.523  1.00  0.00    -0.202 NA
HETATM    3  H   UNL     1      41.047 -13.970  -0.059  1.00  0.00     0.141 HD
BRANCH   2   4
HETATM    4  S   UNL     1      39.074 -13.042  -0.516  1.00  0.00     0.245 S 
HETATM    5  O   UNL     1      39.565 -11.736  -0.891  1.00  0.00    -0.206 OA
HETATM    6  O   UNL     1      37.809 -13.238   0.156  1.00  0.00    -0.206 OA
BRANCH   4   7
HETATM    7  C   UNL     1      39.059 -14.082  -1.944  1.00  0.00     0.107 A 
HETATM    8  C   UNL     1      40.270 -14.514  -2.491  1.00  0.00     0.091 A 
HETATM    9  C   UNL     1      40.273 -15.385  -3.582  1.00  0.00     0.038 A 
HETATM   10  C   UNL     1      39.068 -15.793  -4.154  1.00  0.00     0.003 A 
HETATM   11  C   UNL     1      37.859 -15.336  -3.631  1.00  0.00     0.002 A 
HETATM   12  C   UNL     1      37.851 -14.481  -2.527  1.00  0.00     0.028 A 
BRANCH   8  13
HETATM   13  O   UNL     1      41.483 -14.170  -1.966  1.00  0.00    -0.354 OA
HETATM   14  C   UNL     1      42.207 -13.300  -2.840  1.00  0.00     0.210 C 
ENDBRANCH   8  13
ENDBRANCH   4   7
ENDBRANCH   2   4
ENDBRANCH   1   2
BRANCH   1  15
HETATM   15  C   UNL     1      40.805 -15.999   1.309  1.00  0.00     0.254 C 
HETATM   16  N   UNL     1      41.184 -16.450   2.554  1.00  0.00    -0.156 N 
HETATM   17  H   UNL     1      40.827 -16.049   3.410  1.00  0.00     0.187 HD
HETATM   18  O   UNL     1      41.285 -16.395   0.244  1.00  0.00    -0.271 OA
BRANCH  16  19
HETATM   19  C   UNL     1      42.044 -17.503   2.723  1.00  0.00     0.708 A 
HETATM   20  N   UNL     1      42.790 -17.682   3.787  1.00  0.00    -0.062 NA
HETATM   21  C   UNL     1      43.458 -18.864   3.562  1.00  0.00     0.103 A 
HETATM   22  C   UNL     1      43.098 -19.418   2.339  1.00  0.00     0.078 A 
HETATM   23  C   UNL     1      44.388 -19.537   4.369  1.00  0.00     0.034 A 
HETATM   24  N   UNL     1      42.211 -18.517   1.815  1.00  0.00    -0.188 N 
HETATM   25  C   UNL     1      43.598 -20.632   1.865  1.00  0.00     0.032 A 
HETATM   26  H   UNL     1      41.723 -18.573   0.929  1.00  0.00     0.184 HD
HETATM   27  C   UNL     1      44.518 -21.294   2.689  1.00  0.00     0.002 A 
HETATM   28  C   UNL     1      44.913 -20.755   3.917  1.00  0.00     0.002 A 
ENDBRANCH  16  19
ENDBRANCH   1  15
BRANCH   1  29
HETATM   29  C   UNL     1      39.581 -14.428   2.808  1.00  0.00     0.040 C 
BRANCH  29  30
HETATM   30  C   UNL     1      40.167 -13.056   3.139  1.00  0.00     0.075 C 
BRANCH  30  31
HETATM   31  S   UNL     1      41.576 -13.092   4.298  1.00  0.00    -0.173 SA
HETATM   32  C   UNL     1      42.921 -13.454   3.142  1.00  0.00     0.089 C 
ENDBRANCH  30  31
ENDBRANCH  29  30
ENDBRANCH   1  29
TORSDOF 9
ENDMDL
MODEL 10
REMARK VINA RESULT:      -7.3      2.805      6.266
REMARK  9 active torsions:
REMARK  status: ('A' for Active; 'I' for Inactive)
REMARK    1  A    between atoms: O_2  and  C_3 
REMARK    2  A    between atoms: C_4  and  S_5 
REMARK    3  A    between atoms: S_5  and  N_6 
REMARK    4  A    between atoms: N_6  and  C_7 
REMARK    5  A    between atoms: C_7  and  C_8 
REMARK    6  A    between atoms: C_7  and  C_21 
REMARK       I    between atoms: C_8  and  N_9 
REMARK    7  A    between atoms: N_9  and  C_10 
REMARK    8  A    between atoms: C_21  and  C_22 
REMARK    9  A    between atoms: C_22  and  S_23 
ROOT
HETATM    1  C   UNL     1      41.158 -15.245   4.498  1.00  0.00     0.165 C 
ENDROOT
BRANCH   1   2
HETATM    2  N   UNL     1      41.421 -16.694   4.718  1.00  0.00    -0.202 NA
HETATM    3  H   UNL     1      41.511 -17.230   3.848  1.00  0.00     0.141 HD
BRANCH   2   4
HETATM    4  S   UNL     1      42.798 -17.053   5.658  1.00  0.00     0.245 S 
HETATM    5  O   UNL     1      42.330 -17.479   6.957  1.00  0.00    -0.206 OA
HETATM    6  O   UNL     1      43.678 -15.921   5.475  1.00  0.00    -0.206 OA
BRANCH   4   7
HETATM    7  C   UNL     1      43.558 -18.426   4.844  1.00  0.00     0.107 A 
HETATM    8  C   UNL     1      43.742 -18.388   3.460  1.00  0.00     0.091 A 
HETATM    9  C   UNL     1      44.396 -19.438   2.812  1.00  0.00     0.038 A 
HETATM   10  C   UNL     1      44.831 -20.545   3.540  1.00  0.00     0.003 A 
HETATM   11  C   UNL     1      44.619 -20.600   4.916  1.00  0.00     0.002 A 
HETATM   12  C   UNL     1      43.983 -19.543   5.571  1.00  0.00     0.028 A 
BRANCH   8  13
HETATM   13  O   UNL     1      43.360 -17.324   2.692  1.00  0.00    -0.354 OA
HETATM   14  C   UNL     1      43.927 -17.391   1.382  1.00  0.00     0.210 C 
ENDBRANCH   8  13
ENDBRANCH   4   7
ENDBRANCH   2   4
ENDBRANCH   1   2
BRANCH   1  15
HETATM   15  C   UNL     1      40.697 -15.043   3.042  1.00  0.00     0.254 C 
HETATM   16  N   UNL     1      41.718 -14.720   2.175  1.00  0.00    -0.156 N 
HETATM   17  H   UNL     1      42.672 -14.591   2.483  1.00  0.00     0.187 HD
HETATM   18  O   UNL     1      39.507 -15.117   2.726  1.00  0.00    -0.271 OA
BRANCH  16  19
HETATM   19  C   UNL     1      41.521 -14.588   0.826  1.00  0.00     0.708 A 
HETATM   20  N   UNL     1      41.812 -13.508   0.141  1.00  0.00    -0.062 NA
HETATM   21  C   UNL     1      41.501 -13.815  -1.164  1.00  0.00     0.103 A 
HETATM   22  C   UNL     1      41.022 -15.117  -1.270  1.00  0.00     0.078 A 
HETATM   23  C   UNL     1      41.609 -13.031  -2.321  1.00  0.00     0.034 A 
HETATM   24  N   UNL     1      41.025 -15.578   0.018  1.00  0.00    -0.188 N 
HETATM   25  C   UNL     1      40.657 -15.706  -2.482  1.00  0.00     0.032 A 
HETATM   26  H   UNL     1      40.746 -16.494   0.347  1.00  0.00     0.184 HD
HETATM   27  C   UNL     1      40.782 -14.911  -3.628  1.00  0.00     0.002 A 
HETATM   28  C   UNL     1      41.244 -13.593  -3.551  1.00  0.00     0.002 A 
ENDBRANCH  16  19
ENDBRANCH   1  15
BRANCH   1  29
HETATM   29  C   UNL     1      40.032 -14.771   5.429  1.00  0.00     0.040 C 
BRANCH  29  30
HETATM   30  C   UNL     1      40.056 -13.282   5.773  1.00  0.00     0.075 C 
BRANCH  30  31
HETATM   31  S   UNL     1      41.714 -12.522   5.742  1.00  0.00    -0.173 SA
HETATM   32  C   UNL     1      41.342 -11.001   4.833  1.00  0.00     0.089 C 
ENDBRANCH  30  31
ENDBRANCH  29  30
ENDBRANCH   1  29
TORSDOF 9
ENDMDL
