MODEL 1
REMARK VINA RESULT:      -9.5      0.000      0.000
REMARK  8 active torsions:
REMARK  status: ('A' for Active; 'I' for Inactive)
REMARK    1  A    between atoms: O_2  and  C_3 
REMARK    2  A    between atoms: C_6  and  C_7 
REMARK    3  A    between atoms: C_7  and  N_8 
REMARK       I    between atoms: N_8  and  C_9 
REMARK    4  A    between atoms: C_9  and  C_10 
REMARK    5  A    between atoms: C_10  and  C_11 
REMARK    6  A    between atoms: C_11  and  N_12 
REMARK    7  A    between atoms: N_12  and  S_13 
REMARK    8  A    between atoms: S_13  and  C_14 
ROOT
HETATM    1  N   UNL     1      44.279 -12.517   8.298  1.00  0.00    -0.315 N 
HETATM    2  H   UNL     1      43.276 -12.550   8.481  1.00  0.00     0.172 HD
ENDROOT
BRANCH   1   3
HETATM    3  C   UNL     1      44.923 -13.661   7.637  1.00  0.00     0.141 C 
BRANCH   3   4
HETATM    4  C   UNL     1      44.098 -14.062   6.425  1.00  0.00     0.123 C 
BRANCH   4   5
HETATM    5  C   UNL     1      43.449 -15.405   6.649  1.00  0.00     0.219 C 
HETATM    6  N   UNL     1      42.556 -15.786   5.678  1.00  0.00    -0.357 N 
HETATM    7  H   UNL     1      42.377 -15.193   4.879  1.00  0.00     0.162 HD
HETATM    8  O   UNL     1      43.704 -16.079   7.643  1.00  0.00    -0.274 OA
BRANCH   6   9
HETATM    9  C   UNL     1      41.929 -17.092   5.693  1.00  0.00     0.161 C 
BRANCH   9  10
HETATM   10  C   UNL     1      42.668 -18.115   4.868  1.00  0.00    -0.040 A 
HETATM   11  C   UNL     1      42.440 -18.193   3.486  1.00  0.00     0.011 A 
HETATM   12  C   UNL     1      43.181 -19.063   2.679  1.00  0.00     0.037 A 
HETATM   13  C   UNL     1      44.173 -19.863   3.243  1.00  0.00     0.068 A 
HETATM   14  C   UNL     1      44.397 -19.806   4.619  1.00  0.00     0.037 A 
HETATM   15  C   UNL     1      43.664 -18.930   5.424  1.00  0.00     0.011 A 
BRANCH  13  16
HETATM   16  O   UNL     1      44.976 -20.736   2.561  1.00  0.00    -0.356 OA
HETATM   17  C   UNL     1      44.317 -21.818   1.914  1.00  0.00     0.210 C 
ENDBRANCH  13  16
ENDBRANCH   9  10
ENDBRANCH   6   9
ENDBRANCH   4   5
ENDBRANCH   3   4
ENDBRANCH   1   3
BRANCH   1  18
HETATM   18  S   UNL     1      45.100 -11.738   9.541  1.00  0.00     0.258 S 
HETATM   19  O   UNL     1      45.594 -12.783  10.408  1.00  0.00    -0.201 OA
HETATM   20  O   UNL     1      45.984 -10.765   8.938  1.00  0.00    -0.201 OA
BRANCH  18  21
HETATM   21  C   UNL     1      43.813 -10.891  10.413  1.00  0.00     0.080 A 
HETATM   22  C   UNL     1      44.038 -10.423  11.709  1.00  0.00     0.034 A 
HETATM   23  C   UNL     1      43.009  -9.806  12.462  1.00  0.00    -0.030 A 
HETATM   24  C   UNL     1      41.752  -9.633  11.865  1.00  0.00     0.041 A 
HETATM   25  C   UNL     1      43.400  -9.363  13.846  1.00  0.00     0.041 C 
HETATM   26  N   UNL     1      40.613  -9.046  12.439  1.00  0.00    -0.327 N 
HETATM   27  C   UNL     1      41.553 -10.103  10.547  1.00  0.00     0.031 A 
HETATM   28  C   UNL     1      40.319  -8.486  13.636  1.00  0.00     0.222 C 
HETATM   29  H   UNL     1      39.782  -9.028  11.855  1.00  0.00     0.169 HD
HETATM   30  O   UNL     1      39.170  -8.057  13.794  1.00  0.00    -0.273 OA
HETATM   31  C   UNL     1      41.334  -8.300  14.725  1.00  0.00     0.103 C 
HETATM   32  C   UNL     1      42.296  -9.452  14.882  1.00  0.00     0.014 C 
HETATM   33  C   UNL     1      42.567 -10.735   9.824  1.00  0.00     0.027 A 
ENDBRANCH  18  21
ENDBRANCH   1  18
TORSDOF 8
ENDMDL
MODEL 2
REMARK VINA RESULT:      -9.4      2.735     11.606
REMARK  8 active torsions:
REMARK  status: ('A' for Active; 'I' for Inactive)
REMARK    1  A    between atoms: O_2  and  C_3 
REMARK    2  A    between atoms: C_6  and  C_7 
REMARK    3  A    between atoms: C_7  and  N_8 
REMARK       I    between atoms: N_8  and  C_9 
REMARK    4  A    between atoms: C_9  and  C_10 
REMARK    5  A    between atoms: C_10  and  C_11 
REMARK    6  A    between atoms: C_11  and  N_12 
REMARK    7  A    between atoms: N_12  and  S_13 
REMARK    8  A    between atoms: S_13  and  C_14 
ROOT
HETATM    1  N   UNL     1      42.220 -14.671   4.782  1.00  0.00    -0.315 N 
HETATM    2  H   UNL     1      41.207 -14.772   4.826  1.00  0.00     0.172 HD
ENDROOT
BRANCH   1   3
HETATM    3  C   UNL     1      42.896 -13.806   5.759  1.00  0.00     0.141 C 
BRANCH   3   4
HETATM    4  C   UNL     1      43.926 -14.624   6.518  1.00  0.00     0.123 C 
BRANCH   4   5
HETATM    5  C   UNL     1      44.881 -13.719   7.257  1.00  0.00     0.219 C 
HETATM    6  N   UNL     1      44.395 -13.199   8.431  1.00  0.00    -0.357 N 
HETATM    7  H   UNL     1      43.467 -13.435   8.756  1.00  0.00     0.162 HD
HETATM    8  O   UNL     1      45.995 -13.466   6.809  1.00  0.00    -0.274 OA
BRANCH   6   9
HETATM    9  C   UNL     1      45.225 -12.398   9.308  1.00  0.00     0.161 C 
BRANCH   9  10
HETATM   10  C   UNL     1      44.441 -11.691  10.385  1.00  0.00    -0.040 A 
HETATM   11  C   UNL     1      43.917 -12.424  11.460  1.00  0.00     0.011 A 
HETATM   12  C   UNL     1      43.271 -11.784  12.524  1.00  0.00     0.037 A 
HETATM   13  C   UNL     1      43.150 -10.396  12.534  1.00  0.00     0.068 A 
HETATM   14  C   UNL     1      43.652  -9.659  11.461  1.00  0.00     0.037 A 
HETATM   15  C   UNL     1      44.307 -10.296  10.403  1.00  0.00     0.011 A 
BRANCH  13  16
HETATM   16  O   UNL     1      42.560  -9.654  13.521  1.00  0.00    -0.356 OA
HETATM   17  C   UNL     1      41.530 -10.301  14.259  1.00  0.00     0.210 C 
ENDBRANCH  13  16
ENDBRANCH   9  10
ENDBRANCH   6   9
ENDBRANCH   4   5
ENDBRANCH   3   4
ENDBRANCH   1   3
BRANCH   1  18
HETATM   18  S   UNL     1      42.764 -14.669   3.191  1.00  0.00     0.258 S 
HETATM   19  O   UNL     1      41.628 -14.285   2.384  1.00  0.00    -0.201 OA
HETATM   20  O   UNL     1      44.008 -13.932   3.157  1.00  0.00    -0.201 OA
BRANCH  18  21
HETATM   21  C   UNL     1      43.092 -16.378   2.868  1.00  0.00     0.080 A 
HETATM   22  C   UNL     1      43.449 -17.232   3.913  1.00  0.00     0.034 A 
HETATM   23  C   UNL     1      43.789 -18.586   3.678  1.00  0.00    -0.030 A 
HETATM   24  C   UNL     1      43.723 -19.077   2.367  1.00  0.00     0.041 A 
HETATM   25  C   UNL     1      44.161 -19.378   4.902  1.00  0.00     0.041 C 
HETATM   26  N   UNL     1      44.014 -20.381   1.933  1.00  0.00    -0.327 N 
HETATM   27  C   UNL     1      43.346 -18.197   1.328  1.00  0.00     0.031 A 
HETATM   28  C   UNL     1      44.417 -21.527   2.531  1.00  0.00     0.222 C 
HETATM   29  H   UNL     1      43.928 -20.544   0.935  1.00  0.00     0.169 HD
HETATM   30  O   UNL     1      44.579 -22.516   1.808  1.00  0.00    -0.273 OA
HETATM   31  C   UNL     1      44.594 -21.658   4.015  1.00  0.00     0.103 C 
HETATM   32  C   UNL     1      45.211 -20.449   4.677  1.00  0.00     0.014 C 
HETATM   33  C   UNL     1      43.039 -16.856   1.567  1.00  0.00     0.027 A 
ENDBRANCH  18  21
ENDBRANCH   1  18
TORSDOF 8
ENDMDL
MODEL 3
REMARK VINA RESULT:      -9.3      2.182     11.726
REMARK  8 active torsions:
REMARK  status: ('A' for Active; 'I' for Inactive)
REMARK    1  A    between atoms: O_2  and  C_3 
REMARK    2  A    between atoms: C_6  and  C_7 
REMARK    3  A    between atoms: C_7  and  N_8 
REMARK       I    between atoms: N_8  and  C_9 
REMARK    4  A    between atoms: C_9  and  C_10 
REMARK    5  A    between atoms: C_10  and  C_11 
REMARK    6  A    between atoms: C_11  and  N_12 
REMARK    7  A    between atoms: N_12  and  S_13 
REMARK    8  A    between atoms: S_13  and  C_14 
ROOT
HETATM    1  N   UNL     1      44.584 -15.085   6.832  1.00  0.00    -0.315 N 
HETATM    2  H   UNL     1      44.944 -15.938   7.259  1.00  0.00     0.172 HD
ENDROOT
BRANCH   1   3
HETATM    3  C   UNL     1      44.392 -13.893   7.670  1.00  0.00     0.141 C 
BRANCH   3   4
HETATM    4  C   UNL     1      45.663 -13.060   7.647  1.00  0.00     0.123 C 
BRANCH   4   5
HETATM    5  C   UNL     1      45.651 -12.048   8.766  1.00  0.00     0.219 C 
HETATM    6  N   UNL     1      44.823 -12.356   9.817  1.00  0.00    -0.357 N 
HETATM    7  H   UNL     1      44.283 -13.212   9.816  1.00  0.00     0.162 HD
HETATM    8  O   UNL     1      46.326 -11.025   8.708  1.00  0.00    -0.274 OA
BRANCH   6   9
HETATM    9  C   UNL     1      44.779 -11.541  11.014  1.00  0.00     0.161 C 
BRANCH   9  10
HETATM   10  C   UNL     1      43.376 -11.191  11.443  1.00  0.00    -0.040 A 
HETATM   11  C   UNL     1      43.100 -10.965  12.800  1.00  0.00     0.011 A 
HETATM   12  C   UNL     1      41.832 -10.542  13.217  1.00  0.00     0.037 A 
HETATM   13  C   UNL     1      40.824 -10.328  12.280  1.00  0.00     0.068 A 
HETATM   14  C   UNL     1      41.084 -10.566  10.930  1.00  0.00     0.037 A 
HETATM   15  C   UNL     1      42.352 -10.978  10.511  1.00  0.00     0.011 A 
BRANCH  13  16
HETATM   16  O   UNL     1      39.555  -9.898  12.558  1.00  0.00    -0.356 OA
HETATM   17  C   UNL     1      39.093  -8.782  11.806  1.00  0.00     0.210 C 
ENDBRANCH  13  16
ENDBRANCH   9  10
ENDBRANCH   6   9
ENDBRANCH   4   5
ENDBRANCH   3   4
ENDBRANCH   1   3
BRANCH   1  18
HETATM   18  S   UNL     1      43.443 -15.431   5.648  1.00  0.00     0.258 S 
HETATM   19  O   UNL     1      42.164 -15.450   6.321  1.00  0.00    -0.201 OA
HETATM   20  O   UNL     1      43.701 -14.557   4.525  1.00  0.00    -0.201 OA
BRANCH  18  21
HETATM   21  C   UNL     1      43.824 -17.097   5.186  1.00  0.00     0.080 A 
HETATM   22  C   UNL     1      43.620 -17.522   3.872  1.00  0.00     0.034 A 
HETATM   23  C   UNL     1      43.845 -18.866   3.486  1.00  0.00    -0.030 A 
HETATM   24  C   UNL     1      44.321 -19.770   4.447  1.00  0.00     0.041 A 
HETATM   25  C   UNL     1      43.572 -19.175   2.039  1.00  0.00     0.041 C 
HETATM   26  N   UNL     1      44.608 -21.132   4.263  1.00  0.00    -0.327 N 
HETATM   27  C   UNL     1      44.532 -19.312   5.767  1.00  0.00     0.031 A 
HETATM   28  C   UNL     1      44.549 -21.995   3.221  1.00  0.00     0.222 C 
HETATM   29  H   UNL     1      44.926 -21.632   5.087  1.00  0.00     0.169 HD
HETATM   30  O   UNL     1      44.892 -23.164   3.435  1.00  0.00    -0.273 OA
HETATM   31  C   UNL     1      44.167 -21.578   1.832  1.00  0.00     0.103 C 
HETATM   32  C   UNL     1      43.044 -20.571   1.771  1.00  0.00     0.014 C 
HETATM   33  C   UNL     1      44.281 -17.991   6.143  1.00  0.00     0.027 A 
ENDBRANCH  18  21
ENDBRANCH   1  18
TORSDOF 8
ENDMDL
MODEL 4
REMARK VINA RESULT:      -9.2      2.101     11.550
REMARK  8 active torsions:
REMARK  status: ('A' for Active; 'I' for Inactive)
REMARK    1  A    between atoms: O_2  and  C_3 
REMARK    2  A    between atoms: C_6  and  C_7 
REMARK    3  A    between atoms: C_7  and  N_8 
REMARK       I    between atoms: N_8  and  C_9 
REMARK    4  A    between atoms: C_9  and  C_10 
REMARK    5  A    between atoms: C_10  and  C_11 
REMARK    6  A    between atoms: C_11  and  N_12 
REMARK    7  A    between atoms: N_12  and  S_13 
REMARK    8  A    between atoms: S_13  and  C_14 
ROOT
HETATM    1  N   UNL     1      44.633 -15.093   6.664  1.00  0.00    -0.315 N 
HETATM    2  H   UNL     1      45.508 -15.603   6.549  1.00  0.00     0.172 HD
ENDROOT
BRANCH   1   3
HETATM    3  C   UNL     1      44.655 -13.777   7.320  1.00  0.00     0.141 C 
BRANCH   3   4
HETATM    4  C   UNL     1      46.065 -13.214   7.256  1.00  0.00     0.123 C 
BRANCH   4   5
HETATM    5  C   UNL     1      46.215 -12.056   8.211  1.00  0.00     0.219 C 
HETATM    6  N   UNL     1      45.336 -12.057   9.266  1.00  0.00    -0.357 N 
HETATM    7  H   UNL     1      44.658 -12.801   9.373  1.00  0.00     0.162 HD
HETATM    8  O   UNL     1      47.055 -11.181   8.025  1.00  0.00    -0.274 OA
BRANCH   6   9
HETATM    9  C   UNL     1      45.419 -11.073  10.326  1.00  0.00     0.161 C 
BRANCH   9  10
HETATM   10  C   UNL     1      44.076 -10.706  10.903  1.00  0.00    -0.040 A 
HETATM   11  C   UNL     1      42.910 -10.945  10.160  1.00  0.00     0.011 A 
HETATM   12  C   UNL     1      41.644 -10.707  10.706  1.00  0.00     0.037 A 
HETATM   13  C   UNL     1      41.524 -10.237  12.012  1.00  0.00     0.068 A 
HETATM   14  C   UNL     1      42.678  -9.980  12.754  1.00  0.00     0.037 A 
HETATM   15  C   UNL     1      43.943 -10.227  12.213  1.00  0.00     0.011 A 
BRANCH  13  16
HETATM   16  O   UNL     1      40.348  -9.984  12.664  1.00  0.00    -0.356 OA
HETATM   17  C   UNL     1      40.122  -8.632  13.047  1.00  0.00     0.210 C 
ENDBRANCH  13  16
ENDBRANCH   9  10
ENDBRANCH   6   9
ENDBRANCH   4   5
ENDBRANCH   3   4
ENDBRANCH   1   3
BRANCH   1  18
HETATM   18  S   UNL     1      43.357 -16.136   6.993  1.00  0.00     0.258 S 
HETATM   19  O   UNL     1      43.622 -16.689   8.301  1.00  0.00    -0.201 OA
HETATM   20  O   UNL     1      42.129 -15.431   6.697  1.00  0.00    -0.201 OA
BRANCH  18  21
HETATM   21  C   UNL     1      43.577 -17.437   5.813  1.00  0.00     0.080 A 
HETATM   22  C   UNL     1      43.769 -18.750   6.247  1.00  0.00     0.034 A 
HETATM   23  C   UNL     1      44.021 -19.802   5.333  1.00  0.00    -0.030 A 
HETATM   24  C   UNL     1      44.037 -19.510   3.961  1.00  0.00     0.041 A 
HETATM   25  C   UNL     1      44.216 -21.160   5.951  1.00  0.00     0.041 C 
HETATM   26  N   UNL     1      44.263 -20.407   2.905  1.00  0.00    -0.327 N 
HETATM   27  C   UNL     1      43.827 -18.176   3.546  1.00  0.00     0.031 A 
HETATM   28  C   UNL     1      44.517 -21.734   2.807  1.00  0.00     0.222 C 
HETATM   29  H   UNL     1      44.256 -20.005   1.973  1.00  0.00     0.169 HD
HETATM   30  O   UNL     1      44.666 -22.199   1.671  1.00  0.00    -0.273 OA
HETATM   31  C   UNL     1      44.547 -22.652   3.993  1.00  0.00     0.103 C 
HETATM   32  C   UNL     1      45.194 -22.061   5.222  1.00  0.00     0.014 C 
HETATM   33  C   UNL     1      43.607 -17.141   4.458  1.00  0.00     0.027 A 
ENDBRANCH  18  21
ENDBRANCH   1  18
TORSDOF 8
ENDMDL
MODEL 5
REMARK VINA RESULT:      -9.0      5.899     10.310
REMARK  8 active torsions:
REMARK  status: ('A' for Active; 'I' for Inactive)
REMARK    1  A    between atoms: O_2  and  C_3 
REMARK    2  A    between atoms: C_6  and  C_7 
REMARK    3  A    between atoms: C_7  and  N_8 
REMARK       I    between atoms: N_8  and  C_9 
REMARK    4  A    between atoms: C_9  and  C_10 
REMARK    5  A    between atoms: C_10  and  C_11 
REMARK    6  A    between atoms: C_11  and  N_12 
REMARK    7  A    between atoms: N_12  and  S_13 
REMARK    8  A    between atoms: S_13  and  C_14 
ROOT
HETATM    1  N   UNL     1      41.902 -15.380   6.164  1.00  0.00    -0.315 N 
HETATM    2  H   UNL     1      41.502 -16.303   5.993  1.00  0.00     0.172 HD
ENDROOT
BRANCH   1   3
HETATM    3  C   UNL     1      41.132 -14.187   5.784  1.00  0.00     0.141 C 
BRANCH   3   4
HETATM    4  C   UNL     1      40.042 -14.590   4.805  1.00  0.00     0.123 C 
BRANCH   4   5
HETATM    5  C   UNL     1      40.634 -15.332   3.632  1.00  0.00     0.219 C 
HETATM    6  N   UNL     1      41.261 -14.539   2.702  1.00  0.00    -0.357 N 
HETATM    7  H   UNL     1      41.315 -13.537   2.830  1.00  0.00     0.162 HD
HETATM    8  O   UNL     1      40.531 -16.550   3.530  1.00  0.00    -0.274 OA
BRANCH   6   9
HETATM    9  C   UNL     1      41.970 -15.107   1.574  1.00  0.00     0.161 C 
BRANCH   9  10
HETATM   10  C   UNL     1      41.201 -15.012   0.280  1.00  0.00    -0.040 A 
HETATM   11  C   UNL     1      40.178 -14.061   0.146  1.00  0.00     0.011 A 
HETATM   12  C   UNL     1      39.514 -13.882  -1.073  1.00  0.00     0.037 A 
HETATM   13  C   UNL     1      39.871 -14.647  -2.181  1.00  0.00     0.068 A 
HETATM   14  C   UNL     1      40.874 -15.608  -2.054  1.00  0.00     0.037 A 
HETATM   15  C   UNL     1      41.546 -15.780  -0.840  1.00  0.00     0.011 A 
BRANCH  13  16
HETATM   16  O   UNL     1      39.313 -14.554  -3.427  1.00  0.00    -0.356 OA
HETATM   17  C   UNL     1      38.938 -15.783  -4.039  1.00  0.00     0.210 C 
ENDBRANCH  13  16
ENDBRANCH   9  10
ENDBRANCH   6   9
ENDBRANCH   4   5
ENDBRANCH   3   4
ENDBRANCH   1   3
BRANCH   1  18
HETATM   18  S   UNL     1      43.564 -15.380   5.916  1.00  0.00     0.258 S 
HETATM   19  O   UNL     1      43.797 -14.509   4.787  1.00  0.00    -0.201 OA
HETATM   20  O   UNL     1      44.196 -15.155   7.198  1.00  0.00    -0.201 OA
BRANCH  18  21
HETATM   21  C   UNL     1      43.899 -17.035   5.387  1.00  0.00     0.080 A 
HETATM   22  C   UNL     1      43.705 -17.396   4.052  1.00  0.00     0.034 A 
HETATM   23  C   UNL     1      43.894 -18.728   3.611  1.00  0.00    -0.030 A 
HETATM   24  C   UNL     1      44.323 -19.688   4.538  1.00  0.00     0.041 A 
HETATM   25  C   UNL     1      43.638 -18.964   2.147  1.00  0.00     0.041 C 
HETATM   26  N   UNL     1      44.570 -21.050   4.298  1.00  0.00    -0.327 N 
HETATM   27  C   UNL     1      44.525 -19.296   5.881  1.00  0.00     0.031 A 
HETATM   28  C   UNL     1      44.502 -21.864   3.219  1.00  0.00     0.222 C 
HETATM   29  H   UNL     1      44.856 -21.596   5.104  1.00  0.00     0.169 HD
HETATM   30  O   UNL     1      44.803 -23.051   3.385  1.00  0.00    -0.273 OA
HETATM   31  C   UNL     1      44.158 -21.374   1.843  1.00  0.00     0.103 C 
HETATM   32  C   UNL     1      43.070 -20.329   1.808  1.00  0.00     0.014 C 
HETATM   33  C   UNL     1      44.310 -17.985   6.311  1.00  0.00     0.027 A 
ENDBRANCH  18  21
ENDBRANCH   1  18
TORSDOF 8
ENDMDL
MODEL 6
REMARK VINA RESULT:      -8.9      6.209     10.581
REMARK  8 active torsions:
REMARK  status: ('A' for Active; 'I' for Inactive)
REMARK    1  A    between atoms: O_2  and  C_3 
REMARK    2  A    between atoms: C_6  and  C_7 
REMARK    3  A    between atoms: C_7  and  N_8 
REMARK       I    between atoms: N_8  and  C_9 
REMARK    4  A    between atoms: C_9  and  C_10 
REMARK    5  A    between atoms: C_10  and  C_11 
REMARK    6  A    between atoms: C_11  and  N_12 
REMARK    7  A    between atoms: N_12  and  S_13 
REMARK    8  A    between atoms: S_13  and  C_14 
ROOT
HETATM    1  N   UNL     1      42.421 -15.242   6.286  1.00  0.00    -0.315 N 
HETATM    2  H   UNL     1      42.573 -14.262   6.521  1.00  0.00     0.172 HD
ENDROOT
BRANCH   1   3
HETATM    3  C   UNL     1      41.050 -15.772   6.284  1.00  0.00     0.141 C 
BRANCH   3   4
HETATM    4  C   UNL     1      40.183 -14.902   5.389  1.00  0.00     0.123 C 
BRANCH   4   5
HETATM    5  C   UNL     1      40.711 -14.907   3.976  1.00  0.00     0.219 C 
HETATM    6  N   UNL     1      40.077 -15.778   3.123  1.00  0.00    -0.357 N 
HETATM    7  H   UNL     1      39.309 -16.350   3.448  1.00  0.00     0.162 HD
HETATM    8  O   UNL     1      41.651 -14.192   3.644  1.00  0.00    -0.274 OA
BRANCH   6   9
HETATM    9  C   UNL     1      40.396 -15.826   1.711  1.00  0.00     0.161 C 
BRANCH   9  10
HETATM   10  C   UNL     1      39.626 -14.819   0.894  1.00  0.00    -0.040 A 
HETATM   11  C   UNL     1      40.180 -14.317  -0.293  1.00  0.00     0.011 A 
HETATM   12  C   UNL     1      39.450 -13.458  -1.123  1.00  0.00     0.037 A 
HETATM   13  C   UNL     1      38.148 -13.098  -0.783  1.00  0.00     0.068 A 
HETATM   14  C   UNL     1      37.594 -13.577   0.404  1.00  0.00     0.037 A 
HETATM   15  C   UNL     1      38.318 -14.444   1.229  1.00  0.00     0.011 A 
BRANCH  13  16
HETATM   16  O   UNL     1      37.328 -12.285  -1.517  1.00  0.00    -0.356 OA
HETATM   17  C   UNL     1      37.245 -12.571  -2.909  1.00  0.00     0.210 C 
ENDBRANCH  13  16
ENDBRANCH   9  10
ENDBRANCH   6   9
ENDBRANCH   4   5
ENDBRANCH   3   4
ENDBRANCH   1   3
BRANCH   1  18
HETATM   18  S   UNL     1      43.658 -16.211   6.882  1.00  0.00     0.258 S 
HETATM   19  O   UNL     1      44.868 -15.428   6.765  1.00  0.00    -0.201 OA
HETATM   20  O   UNL     1      43.218 -16.750   8.150  1.00  0.00    -0.201 OA
BRANCH  18  21
HETATM   21  C   UNL     1      43.759 -17.522   5.698  1.00  0.00     0.080 A 
HETATM   22  C   UNL     1      43.983 -18.833   6.123  1.00  0.00     0.034 A 
HETATM   23  C   UNL     1      44.142 -19.893   5.198  1.00  0.00    -0.030 A 
HETATM   24  C   UNL     1      44.029 -19.613   3.829  1.00  0.00     0.041 A 
HETATM   25  C   UNL     1      44.387 -21.248   5.806  1.00  0.00     0.041 C 
HETATM   26  N   UNL     1      44.149 -20.520   2.763  1.00  0.00    -0.327 N 
HETATM   27  C   UNL     1      43.788 -18.281   3.424  1.00  0.00     0.031 A 
HETATM   28  C   UNL     1      44.386 -21.849   2.653  1.00  0.00     0.222 C 
HETATM   29  H   UNL     1      44.056 -20.125   1.833  1.00  0.00     0.169 HD
HETATM   30  O   UNL     1      44.424 -22.324   1.512  1.00  0.00    -0.273 OA
HETATM   31  C   UNL     1      44.523 -22.758   3.839  1.00  0.00     0.103 C 
HETATM   32  C   UNL     1      45.287 -22.160   4.996  1.00  0.00     0.014 C 
HETATM   33  C   UNL     1      43.661 -17.237   4.344  1.00  0.00     0.027 A 
ENDBRANCH  18  21
ENDBRANCH   1  18
TORSDOF 8
ENDMDL
MODEL 7
REMARK VINA RESULT:      -8.9      6.604     10.935
REMARK  8 active torsions:
REMARK  status: ('A' for Active; 'I' for Inactive)
REMARK    1  A    between atoms: O_2  and  C_3 
REMARK    2  A    between atoms: C_6  and  C_7 
REMARK    3  A    between atoms: C_7  and  N_8 
REMARK       I    between atoms: N_8  and  C_9 
REMARK    4  A    between atoms: C_9  and  C_10 
REMARK    5  A    between atoms: C_10  and  C_11 
REMARK    6  A    between atoms: C_11  and  N_12 
REMARK    7  A    between atoms: N_12  and  S_13 
REMARK    8  A    between atoms: S_13  and  C_14 
ROOT
HETATM    1  N   UNL     1      43.486 -14.597   4.481  1.00  0.00    -0.315 N 
HETATM    2  H   UNL     1      44.413 -14.172   4.475  1.00  0.00     0.172 HD
ENDROOT
BRANCH   1   3
HETATM    3  C   UNL     1      42.350 -13.838   3.938  1.00  0.00     0.141 C 
BRANCH   3   4
HETATM    4  C   UNL     1      41.819 -14.554   2.707  1.00  0.00     0.123 C 
BRANCH   4   5
HETATM    5  C   UNL     1      42.067 -13.729   1.468  1.00  0.00     0.219 C 
HETATM    6  N   UNL     1      41.746 -14.348   0.285  1.00  0.00    -0.357 N 
HETATM    7  H   UNL     1      41.363 -15.285   0.280  1.00  0.00     0.162 HD
HETATM    8  O   UNL     1      42.539 -12.598   1.539  1.00  0.00    -0.274 OA
BRANCH   6   9
HETATM    9  C   UNL     1      41.827 -13.653  -0.983  1.00  0.00     0.161 C 
BRANCH   9  10
HETATM   10  C   UNL     1      40.787 -14.108  -1.977  1.00  0.00    -0.040 A 
HETATM   11  C   UNL     1      40.865 -15.397  -2.525  1.00  0.00     0.011 A 
HETATM   12  C   UNL     1      39.863 -15.882  -3.372  1.00  0.00     0.037 A 
HETATM   13  C   UNL     1      38.759 -15.088  -3.676  1.00  0.00     0.068 A 
HETATM   14  C   UNL     1      38.681 -13.798  -3.150  1.00  0.00     0.037 A 
HETATM   15  C   UNL     1      39.676 -13.316  -2.295  1.00  0.00     0.011 A 
BRANCH  13  16
HETATM   16  O   UNL     1      37.709 -15.453  -4.472  1.00  0.00    -0.356 OA
HETATM   17  C   UNL     1      36.584 -14.581  -4.465  1.00  0.00     0.210 C 
ENDBRANCH  13  16
ENDBRANCH   9  10
ENDBRANCH   6   9
ENDBRANCH   4   5
ENDBRANCH   3   4
ENDBRANCH   1   3
BRANCH   1  18
HETATM   18  S   UNL     1      43.250 -15.525   5.861  1.00  0.00     0.258 S 
HETATM   19  O   UNL     1      44.255 -15.097   6.807  1.00  0.00    -0.201 OA
HETATM   20  O   UNL     1      41.839 -15.485   6.177  1.00  0.00    -0.201 OA
BRANCH  18  21
HETATM   21  C   UNL     1      43.680 -17.159   5.334  1.00  0.00     0.080 A 
HETATM   22  C   UNL     1      43.486 -17.540   4.005  1.00  0.00     0.034 A 
HETATM   23  C   UNL     1      43.751 -18.860   3.567  1.00  0.00    -0.030 A 
HETATM   24  C   UNL     1      44.256 -19.785   4.492  1.00  0.00     0.041 A 
HETATM   25  C   UNL     1      43.485 -19.121   2.109  1.00  0.00     0.041 C 
HETATM   26  N   UNL     1      44.584 -21.130   4.255  1.00  0.00    -0.327 N 
HETATM   27  C   UNL     1      44.456 -19.373   5.829  1.00  0.00     0.031 A 
HETATM   28  C   UNL     1      44.549 -21.954   3.180  1.00  0.00     0.222 C 
HETATM   29  H   UNL     1      44.918 -21.652   5.058  1.00  0.00     0.169 HD
HETATM   30  O   UNL     1      44.928 -23.119   3.348  1.00  0.00    -0.273 OA
HETATM   31  C   UNL     1      44.152 -21.495   1.808  1.00  0.00     0.103 C 
HETATM   32  C   UNL     1      42.999 -20.521   1.788  1.00  0.00     0.014 C 
HETATM   33  C   UNL     1      44.165 -18.076   6.256  1.00  0.00     0.027 A 
ENDBRANCH  18  21
ENDBRANCH   1  18
TORSDOF 8
ENDMDL
MODEL 8
REMARK VINA RESULT:      -8.7      5.788     10.128
REMARK  8 active torsions:
REMARK  status: ('A' for Active; 'I' for Inactive)
REMARK    1  A    between atoms: O_2  and  C_3 
REMARK    2  A    between atoms: C_6  and  C_7 
REMARK    3  A    between atoms: C_7  and  N_8 
REMARK       I    between atoms: N_8  and  C_9 
REMARK    4  A    between atoms: C_9  and  C_10 
REMARK    5  A    between atoms: C_10  and  C_11 
REMARK    6  A    between atoms: C_11  and  N_12 
REMARK    7  A    between atoms: N_12  and  S_13 
REMARK    8  A    between atoms: S_13  and  C_14 
ROOT
HETATM    1  N   UNL     1      44.957 -18.206   6.044  1.00  0.00    -0.315 N 
HETATM    2  H   UNL     1      45.948 -18.064   5.848  1.00  0.00     0.172 HD
ENDROOT
BRANCH   1   3
HETATM    3  C   UNL     1      44.481 -18.100   7.430  1.00  0.00     0.141 C 
BRANCH   3   4
HETATM    4  C   UNL     1      43.331 -17.108   7.485  1.00  0.00     0.123 C 
BRANCH   4   5
HETATM    5  C   UNL     1      43.753 -15.778   6.911  1.00  0.00     0.219 C 
HETATM    6  N   UNL     1      42.732 -15.019   6.394  1.00  0.00    -0.357 N 
HETATM    7  H   UNL     1      41.776 -15.351   6.422  1.00  0.00     0.162 HD
HETATM    8  O   UNL     1      44.931 -15.432   6.902  1.00  0.00    -0.274 OA
BRANCH   6   9
HETATM    9  C   UNL     1      42.957 -13.675   5.903  1.00  0.00     0.161 C 
BRANCH   9  10
HETATM   10  C   UNL     1      41.764 -13.099   5.182  1.00  0.00    -0.040 A 
HETATM   11  C   UNL     1      41.935 -12.497   3.926  1.00  0.00     0.011 A 
HETATM   12  C   UNL     1      40.835 -12.042   3.189  1.00  0.00     0.037 A 
HETATM   13  C   UNL     1      39.545 -12.193   3.694  1.00  0.00     0.068 A 
HETATM   14  C   UNL     1      39.367 -12.774   4.949  1.00  0.00     0.037 A 
HETATM   15  C   UNL     1      40.463 -13.239   5.681  1.00  0.00     0.011 A 
BRANCH  13  16
HETATM   16  O   UNL     1      38.393 -11.808   3.064  1.00  0.00    -0.356 OA
HETATM   17  C   UNL     1      38.427 -11.806   1.641  1.00  0.00     0.210 C 
ENDBRANCH  13  16
ENDBRANCH   9  10
ENDBRANCH   6   9
ENDBRANCH   4   5
ENDBRANCH   3   4
ENDBRANCH   1   3
BRANCH   1  18
HETATM   18  S   UNL     1      44.306 -19.401   5.057  1.00  0.00     0.258 S 
HETATM   19  O   UNL     1      45.425 -20.189   4.595  1.00  0.00    -0.201 OA
HETATM   20  O   UNL     1      43.195 -19.996   5.768  1.00  0.00    -0.201 OA
BRANCH  18  21
HETATM   21  C   UNL     1      43.687 -18.494   3.669  1.00  0.00     0.080 A 
HETATM   22  C   UNL     1      42.643 -17.583   3.838  1.00  0.00     0.034 A 
HETATM   23  C   UNL     1      42.076 -16.895   2.738  1.00  0.00    -0.030 A 
HETATM   24  C   UNL     1      42.611 -17.115   1.461  1.00  0.00     0.041 A 
HETATM   25  C   UNL     1      40.951 -15.954   3.077  1.00  0.00     0.041 C 
HETATM   26  N   UNL     1      42.194 -16.530   0.254  1.00  0.00    -0.327 N 
HETATM   27  C   UNL     1      43.677 -18.031   1.317  1.00  0.00     0.031 A 
HETATM   28  C   UNL     1      41.239 -15.640  -0.105  1.00  0.00     0.222 C 
HETATM   29  H   UNL     1      42.693 -16.830  -0.578  1.00  0.00     0.169 HD
HETATM   30  O   UNL     1      41.159 -15.348  -1.304  1.00  0.00    -0.273 OA
HETATM   31  C   UNL     1      40.347 -14.952   0.885  1.00  0.00     0.103 C 
HETATM   32  C   UNL     1      39.875 -15.834   2.015  1.00  0.00     0.014 C 
HETATM   33  C   UNL     1      44.210 -18.725   2.405  1.00  0.00     0.027 A 
ENDBRANCH  18  21
ENDBRANCH   1  18
TORSDOF 8
ENDMDL
MODEL 9
REMARK VINA RESULT:      -8.6      7.023     11.004
REMARK  8 active torsions:
REMARK  status: ('A' for Active; 'I' for Inactive)
REMARK    1  A    between atoms: O_2  and  C_3 
REMARK    2  A    between atoms: C_6  and  C_7 
REMARK    3  A    between atoms: C_7  and  N_8 
REMARK       I    between atoms: N_8  and  C_9 
REMARK    4  A    between atoms: C_9  and  C_10 
REMARK    5  A    between atoms: C_10  and  C_11 
REMARK    6  A    between atoms: C_11  and  N_12 
REMARK    7  A    between atoms: N_12  and  S_13 
REMARK    8  A    between atoms: S_13  and  C_14 
ROOT
HETATM    1  N   UNL     1      41.604 -14.491   2.869  1.00  0.00    -0.315 N 
HETATM    2  H   UNL     1      41.595 -13.672   2.263  1.00  0.00     0.172 HD
ENDROOT
BRANCH   1   3
HETATM    3  C   UNL     1      40.327 -15.113   3.249  1.00  0.00     0.141 C 
BRANCH   3   4
HETATM    4  C   UNL     1      39.483 -15.313   2.001  1.00  0.00     0.123 C 
BRANCH   4   5
HETATM    5  C   UNL     1      40.358 -15.653   0.820  1.00  0.00     0.219 C 
HETATM    6  N   UNL     1      40.140 -14.890  -0.301  1.00  0.00    -0.357 N 
HETATM    7  H   UNL     1      39.446 -14.154  -0.298  1.00  0.00     0.162 HD
HETATM    8  O   UNL     1      41.180 -16.562   0.877  1.00  0.00    -0.274 OA
BRANCH   6   9
HETATM    9  C   UNL     1      40.968 -15.022  -1.482  1.00  0.00     0.161 C 
BRANCH   9  10
HETATM   10  C   UNL     1      41.408 -13.696  -2.050  1.00  0.00    -0.040 A 
HETATM   11  C   UNL     1      42.243 -12.858  -1.296  1.00  0.00     0.011 A 
HETATM   12  C   UNL     1      42.748 -11.669  -1.833  1.00  0.00     0.037 A 
HETATM   13  C   UNL     1      42.433 -11.304  -3.141  1.00  0.00     0.068 A 
HETATM   14  C   UNL     1      41.589 -12.122  -3.893  1.00  0.00     0.037 A 
HETATM   15  C   UNL     1      41.093 -13.315  -3.361  1.00  0.00     0.011 A 
BRANCH  13  16
HETATM   16  O   UNL     1      42.876 -10.181  -3.784  1.00  0.00    -0.356 OA
HETATM   17  C   UNL     1      42.363  -9.966  -5.094  1.00  0.00     0.210 C 
ENDBRANCH  13  16
ENDBRANCH   9  10
ENDBRANCH   6   9
ENDBRANCH   4   5
ENDBRANCH   3   4
ENDBRANCH   1   3
BRANCH   1  18
HETATM   18  S   UNL     1      42.822 -14.382   4.023  1.00  0.00     0.258 S 
HETATM   19  O   UNL     1      43.898 -13.648   3.398  1.00  0.00    -0.201 OA
HETATM   20  O   UNL     1      42.213 -13.941   5.259  1.00  0.00    -0.201 OA
BRANCH  18  21
HETATM   21  C   UNL     1      43.361 -16.058   4.208  1.00  0.00     0.080 A 
HETATM   22  C   UNL     1      43.499 -16.877   3.086  1.00  0.00     0.034 A 
HETATM   23  C   UNL     1      43.857 -18.241   3.206  1.00  0.00    -0.030 A 
HETATM   24  C   UNL     1      44.115 -18.758   4.483  1.00  0.00     0.041 A 
HETATM   25  C   UNL     1      43.957 -18.997   1.908  1.00  0.00     0.041 C 
HETATM   26  N   UNL     1      44.485 -20.074   4.808  1.00  0.00    -0.327 N 
HETATM   27  C   UNL     1      43.982 -17.907   5.603  1.00  0.00     0.031 A 
HETATM   28  C   UNL     1      44.712 -21.210   4.108  1.00  0.00     0.222 C 
HETATM   29  H   UNL     1      44.609 -20.267   5.797  1.00  0.00     0.169 HD
HETATM   30  O   UNL     1      45.032 -22.217   4.750  1.00  0.00    -0.273 OA
HETATM   31  C   UNL     1      44.666 -21.272   2.609  1.00  0.00     0.103 C 
HETATM   32  C   UNL     1      43.558 -20.458   1.986  1.00  0.00     0.014 C 
HETATM   33  C   UNL     1      43.601 -16.569   5.476  1.00  0.00     0.027 A 
ENDBRANCH  18  21
ENDBRANCH   1  18
TORSDOF 8
ENDMDL
MODEL 10
REMARK VINA RESULT:      -8.6      3.120     11.622
REMARK  8 active torsions:
REMARK  status: ('A' for Active; 'I' for Inactive)
REMARK    1  A    between atoms: O_2  and  C_3 
REMARK    2  A    between atoms: C_6  and  C_7 
REMARK    3  A    between atoms: C_7  and  N_8 
REMARK       I    between atoms: N_8  and  C_9 
REMARK    4  A    between atoms: C_9  and  C_10 
REMARK    5  A    between atoms: C_10  and  C_11 
REMARK    6  A    between atoms: C_11  and  N_12 
REMARK    7  A    between atoms: N_12  and  S_13 
REMARK    8  A    between atoms: S_13  and  C_14 
ROOT
HETATM    1  N   UNL     1      41.953 -14.694   4.552  1.00  0.00    -0.315 N 
HETATM    2  H   UNL     1      42.237 -15.493   5.118  1.00  0.00     0.172 HD
ENDROOT
BRANCH   1   3
HETATM    3  C   UNL     1      40.552 -14.251   4.591  1.00  0.00     0.141 C 
BRANCH   3   4
HETATM    4  C   UNL     1      40.284 -13.570   5.922  1.00  0.00     0.123 C 
BRANCH   4   5
HETATM    5  C   UNL     1      41.091 -12.300   6.037  1.00  0.00     0.219 C 
HETATM    6  N   UNL     1      41.143 -11.759   7.298  1.00  0.00    -0.357 N 
HETATM    7  H   UNL     1      40.675 -12.210   8.074  1.00  0.00     0.162 HD
HETATM    8  O   UNL     1      41.632 -11.797   5.057  1.00  0.00    -0.274 OA
BRANCH   6   9
HETATM    9  C   UNL     1      41.961 -10.601   7.595  1.00  0.00     0.161 C 
BRANCH   9  10
HETATM   10  C   UNL     1      42.291 -10.465   9.060  1.00  0.00    -0.040 A 
HETATM   11  C   UNL     1      41.272 -10.165   9.978  1.00  0.00     0.011 A 
HETATM   12  C   UNL     1      41.527 -10.131  11.353  1.00  0.00     0.037 A 
HETATM   13  C   UNL     1      42.805 -10.407  11.834  1.00  0.00     0.068 A 
HETATM   14  C   UNL     1      43.829 -10.689  10.929  1.00  0.00     0.037 A 
HETATM   15  C   UNL     1      43.573 -10.735   9.556  1.00  0.00     0.011 A 
BRANCH  13  16
HETATM   16  O   UNL     1      43.175 -10.424  13.151  1.00  0.00    -0.356 OA
HETATM   17  C   UNL     1      42.115 -10.405  14.100  1.00  0.00     0.210 C 
ENDBRANCH  13  16
ENDBRANCH   9  10
ENDBRANCH   6   9
ENDBRANCH   4   5
ENDBRANCH   3   4
ENDBRANCH   1   3
BRANCH   1  18
HETATM   18  S   UNL     1      42.764 -14.672   3.079  1.00  0.00     0.258 S 
HETATM   19  O   UNL     1      41.794 -14.244   2.097  1.00  0.00    -0.201 OA
HETATM   20  O   UNL     1      44.011 -13.967   3.279  1.00  0.00    -0.201 OA
BRANCH  18  21
HETATM   21  C   UNL     1      43.106 -16.382   2.775  1.00  0.00     0.080 A 
HETATM   22  C   UNL     1      43.408 -17.235   3.838  1.00  0.00     0.034 A 
HETATM   23  C   UNL     1      43.758 -18.590   3.623  1.00  0.00    -0.030 A 
HETATM   24  C   UNL     1      43.760 -19.083   2.310  1.00  0.00     0.041 A 
HETATM   25  C   UNL     1      44.065 -19.381   4.866  1.00  0.00     0.041 C 
HETATM   26  N   UNL     1      44.071 -20.387   1.893  1.00  0.00    -0.327 N 
HETATM   27  C   UNL     1      43.438 -18.203   1.252  1.00  0.00     0.031 A 
HETATM   28  C   UNL     1      44.441 -21.533   2.513  1.00  0.00     0.222 C 
HETATM   29  H   UNL     1      44.038 -20.551   0.892  1.00  0.00     0.169 HD
HETATM   30  O   UNL     1      44.639 -22.524   1.801  1.00  0.00    -0.273 OA
HETATM   31  C   UNL     1      44.541 -21.662   4.005  1.00  0.00     0.103 C 
HETATM   32  C   UNL     1      45.124 -20.454   4.696  1.00  0.00     0.014 C 
HETATM   33  C   UNL     1      43.121 -16.861   1.473  1.00  0.00     0.027 A 
ENDBRANCH  18  21
ENDBRANCH   1  18
TORSDOF 8
ENDMDL
