MODEL 1
REMARK VINA RESULT:      -7.2      0.000      0.000
REMARK  10 active torsions:
REMARK  status: ('A' for Active; 'I' for Inactive)
REMARK    1  A    between atoms: C_2  and  N_3 
REMARK    2  A    between atoms: N_7  and  C_8 
REMARK    3  A    between atoms: C_8  and  C_9 
REMARK    4  A    between atoms: C_9  and  N_10 
REMARK    5  A    between atoms: N_10  and  C_11 
REMARK    6  A    between atoms: C_13  and  C_14 
REMARK    7  A    between atoms: C_14  and  N_15 
REMARK    8  A    between atoms: C_23  and  C_24 
REMARK    9  A    between atoms: C_24  and  O_25 
REMARK   10  A    between atoms: O_25  and  C_26 
ROOT
HETATM    1  C   UNL     1      40.590 -15.879   2.259  1.00  0.00     0.139 A 
HETATM    2  N   UNL     1      40.448 -15.234   1.073  1.00  0.00    -0.214 NA
HETATM    3  C   UNL     1      41.251 -15.547   0.044  1.00  0.00     0.155 A 
HETATM    4  N   UNL     1      42.229 -16.460   0.052  1.00  0.00    -0.224 NA
HETATM    5  C   UNL     1      42.369 -17.066   1.241  1.00  0.00     0.115 A 
HETATM    6  C   UNL     1      41.617 -16.848   2.383  1.00  0.00     0.053 A 
HETATM    7  S   UNL     1      43.573 -18.236   1.442  1.00  0.00    -0.063 SA
HETATM    8  C   UNL     1      43.191 -18.468   3.096  1.00  0.00     0.089 A 
HETATM    9  C   UNL     1      42.120 -17.659   3.488  1.00  0.00    -0.022 A 
HETATM   10  C   UNL     1      41.569 -17.600   4.883  1.00  0.00     0.051 C 
ENDROOT
BRANCH   1  11
HETATM   11  N   UNL     1      39.747 -15.547   3.310  1.00  0.00    -0.372 N 
HETATM   12  H   UNL     1      38.939 -16.155   3.413  1.00  0.00     0.161 HD
BRANCH  11  13
HETATM   13  C   UNL     1      39.533 -14.142   3.617  1.00  0.00     0.156 C 
BRANCH  13  14
HETATM   14  C   UNL     1      40.358 -13.689   4.870  1.00  0.00     0.236 C 
HETATM   15  C   UNL     1      39.379 -13.118   5.917  1.00  0.00     0.044 C 
BRANCH  14  16
HETATM   16  N   UNL     1      41.476 -12.749   4.539  1.00  0.00     0.097 N 
HETATM   17  C   UNL     1      42.601 -13.412   3.837  1.00  0.00     0.300 C 
HETATM   18  C   UNL     1      43.447 -14.374   4.706  1.00  0.00     0.265 C 
HETATM   19  N   UNL     1      43.948 -13.683   5.967  1.00  0.00    -0.068 N 
HETATM   20  H   UNL     1      44.627 -12.969   5.668  1.00  0.00     0.280 HD
HETATM   21  C   UNL     1      42.829 -12.932   6.690  1.00  0.00     0.265 C 
HETATM   22  C   UNL     1      42.045 -12.037   5.709  1.00  0.00     0.300 C 
BRANCH  19  23
HETATM   23  C   UNL     1      44.661 -14.616   6.926  1.00  0.00     0.230 C 
HETATM   24  C   UNL     1      44.297 -16.066   6.668  1.00  0.00     0.034 C 
ENDBRANCH  19  23
ENDBRANCH  14  16
ENDBRANCH  13  14
ENDBRANCH  11  13
ENDBRANCH   1  11
BRANCH   3  25
HETATM   25  C   UNL     1      41.060 -14.803  -1.268  1.00  0.00     0.314 C 
BRANCH  25  26
HETATM   26  N   UNL     1      39.796 -15.201  -2.032  1.00  0.00    -0.072 N 
HETATM   27  H   UNL     1      39.337 -15.892  -1.413  1.00  0.00     0.279 HD
HETATM   28  C   UNL     1      38.823 -14.068  -2.176  1.00  0.00     0.269 C 
HETATM   29  C   UNL     1      40.094 -15.868  -3.335  1.00  0.00     0.269 C 
ENDBRANCH  25  26
ENDBRANCH   3  25
BRANCH   8  30
HETATM   30  C   UNL     1      43.954 -19.421   3.901  1.00  0.00     0.300 C 
HETATM   31  O   UNL     1      43.892 -19.511   5.121  1.00  0.00    -0.259 OA
BRANCH  30  32
HETATM   32  O   UNL     1      44.775 -20.181   3.119  1.00  0.00    -0.317 OA
BRANCH  32  33
HETATM   33  C   UNL     1      44.482 -21.585   3.052  1.00  0.00     0.174 C 
HETATM   34  C   UNL     1      44.176 -21.976   1.619  1.00  0.00     0.034 C 
ENDBRANCH  32  33
ENDBRANCH  30  32
ENDBRANCH   8  30
TORSDOF 10
ENDMDL
MODEL 2
REMARK VINA RESULT:      -7.1      2.024      6.530
REMARK  10 active torsions:
REMARK  status: ('A' for Active; 'I' for Inactive)
REMARK    1  A    between atoms: C_2  and  N_3 
REMARK    2  A    between atoms: N_7  and  C_8 
REMARK    3  A    between atoms: C_8  and  C_9 
REMARK    4  A    between atoms: C_9  and  N_10 
REMARK    5  A    between atoms: N_10  and  C_11 
REMARK    6  A    between atoms: C_13  and  C_14 
REMARK    7  A    between atoms: C_14  and  N_15 
REMARK    8  A    between atoms: C_23  and  C_24 
REMARK    9  A    between atoms: C_24  and  O_25 
REMARK   10  A    between atoms: O_25  and  C_26 
ROOT
HETATM    1  C   UNL     1      43.166 -14.714   5.214  1.00  0.00     0.139 A 
HETATM    2  N   UNL     1      43.512 -13.647   5.980  1.00  0.00    -0.214 NA
HETATM    3  C   UNL     1      44.319 -13.821   7.038  1.00  0.00     0.155 A 
HETATM    4  N   UNL     1      44.843 -14.980   7.453  1.00  0.00    -0.224 NA
HETATM    5  C   UNL     1      44.466 -16.024   6.698  1.00  0.00     0.115 A 
HETATM    6  C   UNL     1      43.646 -15.995   5.583  1.00  0.00     0.053 A 
HETATM    7  S   UNL     1      45.016 -17.574   7.088  1.00  0.00    -0.063 SA
HETATM    8  C   UNL     1      44.128 -18.302   5.817  1.00  0.00     0.089 A 
HETATM    9  C   UNL     1      43.425 -17.347   5.076  1.00  0.00    -0.022 A 
HETATM   10  C   UNL     1      42.522 -17.666   3.920  1.00  0.00     0.051 C 
ENDROOT
BRANCH   1  11
HETATM   11  N   UNL     1      42.336 -14.514   4.120  1.00  0.00    -0.372 N 
HETATM   12  H   UNL     1      42.735 -13.937   3.385  1.00  0.00     0.161 HD
BRANCH  11  13
HETATM   13  C   UNL     1      40.907 -14.365   4.345  1.00  0.00     0.156 C 
BRANCH  13  14
HETATM   14  C   UNL     1      40.171 -13.830   3.068  1.00  0.00     0.236 C 
HETATM   15  C   UNL     1      39.422 -12.536   3.444  1.00  0.00     0.044 C 
BRANCH  14  16
HETATM   16  N   UNL     1      39.288 -14.851   2.419  1.00  0.00     0.097 N 
HETATM   17  C   UNL     1      40.042 -16.002   1.866  1.00  0.00     0.300 C 
HETATM   18  C   UNL     1      40.889 -15.694   0.608  1.00  0.00     0.265 C 
HETATM   19  N   UNL     1      40.044 -15.046  -0.481  1.00  0.00    -0.068 N 
HETATM   20  H   UNL     1      39.378 -15.760  -0.809  1.00  0.00     0.280 HD
HETATM   21  C   UNL     1      39.200 -13.892   0.061  1.00  0.00     0.265 C 
HETATM   22  C   UNL     1      38.434 -14.319   1.329  1.00  0.00     0.300 C 
BRANCH  19  23
HETATM   23  C   UNL     1      40.850 -14.590  -1.682  1.00  0.00     0.230 C 
HETATM   24  C   UNL     1      40.941 -15.676  -2.737  1.00  0.00     0.034 C 
ENDBRANCH  19  23
ENDBRANCH  14  16
ENDBRANCH  13  14
ENDBRANCH  11  13
ENDBRANCH   1  11
BRANCH   3  25
HETATM   25  C   UNL     1      44.684 -12.602   7.870  1.00  0.00     0.314 C 
BRANCH  25  26
HETATM   26  N   UNL     1      43.687 -12.292   8.989  1.00  0.00    -0.072 N 
HETATM   27  H   UNL     1      43.015 -13.077   8.950  1.00  0.00     0.279 HD
HETATM   28  C   UNL     1      44.310 -12.352  10.354  1.00  0.00     0.269 C 
HETATM   29  C   UNL     1      42.936 -11.021   8.758  1.00  0.00     0.269 C 
ENDBRANCH  25  26
ENDBRANCH   3  25
BRANCH   8  30
HETATM   30  C   UNL     1      44.175 -19.751   5.620  1.00  0.00     0.300 C 
HETATM   31  O   UNL     1      43.549 -20.567   6.286  1.00  0.00    -0.259 OA
BRANCH  30  32
HETATM   32  O   UNL     1      45.036 -20.084   4.615  1.00  0.00    -0.317 OA
BRANCH  32  33
HETATM   33  C   UNL     1      44.651 -21.183   3.775  1.00  0.00     0.174 C 
HETATM   34  C   UNL     1      44.180 -20.660   2.431  1.00  0.00     0.034 C 
ENDBRANCH  32  33
ENDBRANCH  30  32
ENDBRANCH   8  30
TORSDOF 10
ENDMDL
MODEL 3
REMARK VINA RESULT:      -6.8      2.273      6.063
REMARK  10 active torsions:
REMARK  status: ('A' for Active; 'I' for Inactive)
REMARK    1  A    between atoms: C_2  and  N_3 
REMARK    2  A    between atoms: N_7  and  C_8 
REMARK    3  A    between atoms: C_8  and  C_9 
REMARK    4  A    between atoms: C_9  and  N_10 
REMARK    5  A    between atoms: N_10  and  C_11 
REMARK    6  A    between atoms: C_13  and  C_14 
REMARK    7  A    between atoms: C_14  and  N_15 
REMARK    8  A    between atoms: C_23  and  C_24 
REMARK    9  A    between atoms: C_24  and  O_25 
REMARK   10  A    between atoms: O_25  and  C_26 
ROOT
HETATM    1  C   UNL     1      41.799 -15.371   2.320  1.00  0.00     0.139 A 
HETATM    2  N   UNL     1      40.964 -14.609   3.073  1.00  0.00    -0.214 NA
HETATM    3  C   UNL     1      40.670 -14.985   4.328  1.00  0.00     0.155 A 
HETATM    4  N   UNL     1      41.118 -16.080   4.953  1.00  0.00    -0.224 NA
HETATM    5  C   UNL     1      41.919 -16.831   4.182  1.00  0.00     0.115 A 
HETATM    6  C   UNL     1      42.309 -16.569   2.879  1.00  0.00     0.053 A 
HETATM    7  S   UNL     1      42.562 -18.267   4.800  1.00  0.00    -0.063 SA
HETATM    8  C   UNL     1      43.349 -18.649   3.327  1.00  0.00     0.089 A 
HETATM    9  C   UNL     1      43.135 -17.658   2.365  1.00  0.00    -0.022 A 
HETATM   10  C   UNL     1      43.658 -17.715   0.958  1.00  0.00     0.051 C 
ENDROOT
BRANCH   1  11
HETATM   11  N   UNL     1      42.097 -14.964   1.028  1.00  0.00    -0.372 N 
HETATM   12  H   UNL     1      42.583 -14.073   0.966  1.00  0.00     0.161 HD
BRANCH  11  13
HETATM   13  C   UNL     1      41.142 -15.247  -0.032  1.00  0.00     0.156 C 
BRANCH  13  14
HETATM   14  C   UNL     1      40.458 -13.940  -0.561  1.00  0.00     0.236 C 
HETATM   15  C   UNL     1      39.077 -13.805   0.111  1.00  0.00     0.044 C 
BRANCH  14  16
HETATM   16  N   UNL     1      40.392 -13.867  -2.056  1.00  0.00     0.097 N 
HETATM   17  C   UNL     1      41.720 -13.991  -2.702  1.00  0.00     0.300 C 
HETATM   18  C   UNL     1      42.660 -12.775  -2.521  1.00  0.00     0.265 C 
HETATM   19  N   UNL     1      41.982 -11.484  -2.956  1.00  0.00    -0.068 N 
HETATM   20  H   UNL     1      41.856 -11.540  -3.977  1.00  0.00     0.280 HD
HETATM   21  C   UNL     1      40.580 -11.345  -2.362  1.00  0.00     0.265 C 
HETATM   22  C   UNL     1      39.759 -12.632  -2.582  1.00  0.00     0.300 C 
BRANCH  19  23
HETATM   23  C   UNL     1      42.801 -10.241  -2.667  1.00  0.00     0.230 C 
HETATM   24  C   UNL     1      43.471 -10.319  -1.308  1.00  0.00     0.034 C 
ENDBRANCH  19  23
ENDBRANCH  14  16
ENDBRANCH  13  14
ENDBRANCH  11  13
ENDBRANCH   1  11
BRANCH   3  25
HETATM   25  C   UNL     1      39.732 -14.105   5.139  1.00  0.00     0.314 C 
BRANCH  25  26
HETATM   26  N   UNL     1      40.423 -13.324   6.259  1.00  0.00    -0.072 N 
HETATM   27  H   UNL     1      40.694 -14.052   6.942  1.00  0.00     0.279 HD
HETATM   28  C   UNL     1      41.705 -12.682   5.812  1.00  0.00     0.269 C 
HETATM   29  C   UNL     1      39.508 -12.360   6.941  1.00  0.00     0.269 C 
ENDBRANCH  25  26
ENDBRANCH   3  25
BRANCH   8  30
HETATM   30  C   UNL     1      44.124 -19.883   3.206  1.00  0.00     0.300 C 
HETATM   31  O   UNL     1      44.007 -20.695   2.295  1.00  0.00    -0.259 OA
BRANCH  30  32
HETATM   32  O   UNL     1      44.980 -20.034   4.258  1.00  0.00    -0.317 OA
BRANCH  32  33
HETATM   33  C   UNL     1      45.068 -21.347   4.834  1.00  0.00     0.174 C 
HETATM   34  C   UNL     1      44.186 -21.425   6.066  1.00  0.00     0.034 C 
ENDBRANCH  32  33
ENDBRANCH  30  32
ENDBRANCH   8  30
TORSDOF 10
ENDMDL
MODEL 4
REMARK VINA RESULT:      -6.8      2.180      6.661
REMARK  10 active torsions:
REMARK  status: ('A' for Active; 'I' for Inactive)
REMARK    1  A    between atoms: C_2  and  N_3 
REMARK    2  A    between atoms: N_7  and  C_8 
REMARK    3  A    between atoms: C_8  and  C_9 
REMARK    4  A    between atoms: C_9  and  N_10 
REMARK    5  A    between atoms: N_10  and  C_11 
REMARK    6  A    between atoms: C_13  and  C_14 
REMARK    7  A    between atoms: C_14  and  N_15 
REMARK    8  A    between atoms: C_23  and  C_24 
REMARK    9  A    between atoms: C_24  and  O_25 
REMARK   10  A    between atoms: O_25  and  C_26 
ROOT
HETATM    1  C   UNL     1      43.255 -15.762   4.399  1.00  0.00     0.139 A 
HETATM    2  N   UNL     1      43.354 -14.582   5.063  1.00  0.00    -0.214 NA
HETATM    3  C   UNL     1      43.869 -14.556   6.303  1.00  0.00     0.155 A 
HETATM    4  N   UNL     1      44.309 -15.610   6.999  1.00  0.00    -0.224 NA
HETATM    5  C   UNL     1      44.177 -16.769   6.335  1.00  0.00     0.115 A 
HETATM    6  C   UNL     1      43.669 -16.945   5.059  1.00  0.00     0.053 A 
HETATM    7  S   UNL     1      44.662 -18.211   7.071  1.00  0.00    -0.063 SA
HETATM    8  C   UNL     1      44.157 -19.161   5.739  1.00  0.00     0.089 A 
HETATM    9  C   UNL     1      43.634 -18.365   4.715  1.00  0.00    -0.022 A 
HETATM   10  C   UNL     1      43.070 -18.897   3.430  1.00  0.00     0.051 C 
ENDROOT
BRANCH   1  11
HETATM   11  N   UNL     1      42.728 -15.768   3.116  1.00  0.00    -0.372 N 
HETATM   12  H   UNL     1      43.355 -15.415   2.398  1.00  0.00     0.161 HD
BRANCH  11  13
HETATM   13  C   UNL     1      41.317 -15.463   2.939  1.00  0.00     0.156 C 
BRANCH  13  14
HETATM   14  C   UNL     1      40.890 -15.545   1.433  1.00  0.00     0.236 C 
HETATM   15  C   UNL     1      40.960 -17.019   0.985  1.00  0.00     0.044 C 
BRANCH  14  16
HETATM   16  N   UNL     1      41.667 -14.625   0.543  1.00  0.00     0.097 N 
HETATM   17  C   UNL     1      41.505 -13.196   0.903  1.00  0.00     0.300 C 
HETATM   18  C   UNL     1      40.116 -12.589   0.592  1.00  0.00     0.265 C 
HETATM   19  N   UNL     1      39.730 -12.812  -0.864  1.00  0.00    -0.068 N 
HETATM   20  H   UNL     1      40.373 -12.245  -1.435  1.00  0.00     0.280 HD
HETATM   21  C   UNL     1      39.943 -14.263  -1.297  1.00  0.00     0.265 C 
HETATM   22  C   UNL     1      41.350 -14.754  -0.900  1.00  0.00     0.300 C 
BRANCH  19  23
HETATM   23  C   UNL     1      38.318 -12.367  -1.192  1.00  0.00     0.230 C 
HETATM   24  C   UNL     1      37.754 -13.130  -2.375  1.00  0.00     0.034 C 
ENDBRANCH  19  23
ENDBRANCH  14  16
ENDBRANCH  13  14
ENDBRANCH  11  13
ENDBRANCH   1  11
BRANCH   3  25
HETATM   25  C   UNL     1      43.964 -13.216   7.013  1.00  0.00     0.314 C 
BRANCH  25  26
HETATM   26  N   UNL     1      45.010 -13.175   8.130  1.00  0.00    -0.072 N 
HETATM   27  H   UNL     1      45.171 -14.171   8.357  1.00  0.00     0.279 HD
HETATM   28  C   UNL     1      46.333 -12.641   7.665  1.00  0.00     0.269 C 
HETATM   29  C   UNL     1      44.515 -12.489   9.361  1.00  0.00     0.269 C 
ENDBRANCH  25  26
ENDBRANCH   3  25
BRANCH   8  30
HETATM   30  C   UNL     1      44.305 -20.616   5.773  1.00  0.00     0.300 C 
HETATM   31  O   UNL     1      43.843 -21.344   6.644  1.00  0.00    -0.259 OA
BRANCH  30  32
HETATM   32  O   UNL     1      45.054 -21.061   4.723  1.00  0.00    -0.317 OA
BRANCH  32  33
HETATM   33  C   UNL     1      44.673 -22.320   4.147  1.00  0.00     0.174 C 
HETATM   34  C   UNL     1      44.459 -22.155   2.654  1.00  0.00     0.034 C 
ENDBRANCH  32  33
ENDBRANCH  30  32
ENDBRANCH   8  30
TORSDOF 10
ENDMDL
MODEL 5
REMARK VINA RESULT:      -6.7      1.996      6.693
REMARK  10 active torsions:
REMARK  status: ('A' for Active; 'I' for Inactive)
REMARK    1  A    between atoms: C_2  and  N_3 
REMARK    2  A    between atoms: N_7  and  C_8 
REMARK    3  A    between atoms: C_8  and  C_9 
REMARK    4  A    between atoms: C_9  and  N_10 
REMARK    5  A    between atoms: N_10  and  C_11 
REMARK    6  A    between atoms: C_13  and  C_14 
REMARK    7  A    between atoms: C_14  and  N_15 
REMARK    8  A    between atoms: C_23  and  C_24 
REMARK    9  A    between atoms: C_24  and  O_25 
REMARK   10  A    between atoms: O_25  and  C_26 
ROOT
HETATM    1  C   UNL     1      41.949 -15.221   2.596  1.00  0.00     0.139 A 
HETATM    2  N   UNL     1      41.083 -14.458   3.312  1.00  0.00    -0.214 NA
HETATM    3  C   UNL     1      40.719 -14.843   4.545  1.00  0.00     0.155 A 
HETATM    4  N   UNL     1      41.122 -15.948   5.182  1.00  0.00    -0.224 NA
HETATM    5  C   UNL     1      41.956 -16.701   4.446  1.00  0.00     0.115 A 
HETATM    6  C   UNL     1      42.417 -16.430   3.169  1.00  0.00     0.053 A 
HETATM    7  S   UNL     1      42.551 -18.149   5.083  1.00  0.00    -0.063 SA
HETATM    8  C   UNL     1      43.411 -18.525   3.650  1.00  0.00     0.089 A 
HETATM    9  C   UNL     1      43.258 -17.523   2.688  1.00  0.00    -0.022 A 
HETATM   10  C   UNL     1      43.854 -17.571   1.311  1.00  0.00     0.051 C 
ENDROOT
BRANCH   1  11
HETATM   11  N   UNL     1      42.320 -14.805   1.326  1.00  0.00    -0.372 N 
HETATM   12  H   UNL     1      43.319 -14.661   1.201  1.00  0.00     0.161 HD
BRANCH  11  13
HETATM   13  C   UNL     1      41.448 -13.888   0.609  1.00  0.00     0.156 C 
BRANCH  13  14
HETATM   14  C   UNL     1      40.895 -14.525  -0.712  1.00  0.00     0.236 C 
HETATM   15  C   UNL     1      41.273 -16.020  -0.727  1.00  0.00     0.044 C 
BRANCH  14  16
HETATM   16  N   UNL     1      41.325 -13.799  -1.949  1.00  0.00     0.097 N 
HETATM   17  C   UNL     1      40.723 -12.449  -2.067  1.00  0.00     0.300 C 
HETATM   18  C   UNL     1      39.208 -12.427  -2.383  1.00  0.00     0.265 C 
HETATM   19  N   UNL     1      38.889 -13.256  -3.619  1.00  0.00    -0.068 N 
HETATM   20  H   UNL     1      39.309 -12.768  -4.424  1.00  0.00     0.280 HD
HETATM   21  C   UNL     1      39.545 -14.636  -3.568  1.00  0.00     0.265 C 
HETATM   22  C   UNL     1      41.042 -14.520  -3.213  1.00  0.00     0.300 C 
BRANCH  19  23
HETATM   23  C   UNL     1      37.404 -13.389  -3.893  1.00  0.00     0.230 C 
HETATM   24  C   UNL     1      36.983 -14.843  -3.990  1.00  0.00     0.034 C 
ENDBRANCH  19  23
ENDBRANCH  14  16
ENDBRANCH  13  14
ENDBRANCH  11  13
ENDBRANCH   1  11
BRANCH   3  25
HETATM   25  C   UNL     1      39.748 -13.961   5.314  1.00  0.00     0.314 C 
BRANCH  25  26
HETATM   26  N   UNL     1      40.389 -13.191   6.471  1.00  0.00    -0.072 N 
HETATM   27  H   UNL     1      40.747 -13.932   7.097  1.00  0.00     0.279 HD
HETATM   28  C   UNL     1      41.590 -12.397   6.045  1.00  0.00     0.269 C 
HETATM   29  C   UNL     1      39.403 -12.370   7.235  1.00  0.00     0.269 C 
ENDBRANCH  25  26
ENDBRANCH   3  25
BRANCH   8  30
HETATM   30  C   UNL     1      44.179 -19.766   3.557  1.00  0.00     0.300 C 
HETATM   31  O   UNL     1      44.163 -20.527   2.597  1.00  0.00    -0.259 OA
BRANCH  30  32
HETATM   32  O   UNL     1      44.898 -19.989   4.696  1.00  0.00    -0.317 OA
BRANCH  32  33
HETATM   33  C   UNL     1      44.467 -21.077   5.527  1.00  0.00     0.174 C 
HETATM   34  C   UNL     1      45.183 -22.350   5.115  1.00  0.00     0.034 C 
ENDBRANCH  32  33
ENDBRANCH  30  32
ENDBRANCH   8  30
TORSDOF 10
ENDMDL
MODEL 6
REMARK VINA RESULT:      -6.7      3.205      6.960
REMARK  10 active torsions:
REMARK  status: ('A' for Active; 'I' for Inactive)
REMARK    1  A    between atoms: C_2  and  N_3 
REMARK    2  A    between atoms: N_7  and  C_8 
REMARK    3  A    between atoms: C_8  and  C_9 
REMARK    4  A    between atoms: C_9  and  N_10 
REMARK    5  A    between atoms: N_10  and  C_11 
REMARK    6  A    between atoms: C_13  and  C_14 
REMARK    7  A    between atoms: C_14  and  N_15 
REMARK    8  A    between atoms: C_23  and  C_24 
REMARK    9  A    between atoms: C_24  and  O_25 
REMARK   10  A    between atoms: O_25  and  C_26 
ROOT
HETATM    1  C   UNL     1      41.181 -15.220   4.856  1.00  0.00     0.139 A 
HETATM    2  N   UNL     1      41.831 -14.524   5.824  1.00  0.00    -0.214 NA
HETATM    3  C   UNL     1      42.315 -13.302   5.554  1.00  0.00     0.155 A 
HETATM    4  N   UNL     1      42.238 -12.660   4.383  1.00  0.00    -0.224 NA
HETATM    5  C   UNL     1      41.617 -13.377   3.433  1.00  0.00     0.115 A 
HETATM    6  C   UNL     1      41.068 -14.641   3.568  1.00  0.00     0.053 A 
HETATM    7  S   UNL     1      41.447 -12.730   1.881  1.00  0.00    -0.063 SA
HETATM    8  C   UNL     1      40.681 -14.142   1.285  1.00  0.00     0.089 A 
HETATM    9  C   UNL     1      40.536 -15.104   2.289  1.00  0.00    -0.022 A 
HETATM   10  C   UNL     1      39.939 -16.466   2.079  1.00  0.00     0.051 C 
ENDROOT
BRANCH   1  11
HETATM   11  N   UNL     1      40.680 -16.479   5.154  1.00  0.00    -0.372 N 
HETATM   12  H   UNL     1      40.329 -16.582   6.103  1.00  0.00     0.161 HD
BRANCH  11  13
HETATM   13  C   UNL     1      41.338 -17.645   4.587  1.00  0.00     0.156 C 
BRANCH  13  14
HETATM   14  C   UNL     1      42.481 -18.177   5.518  1.00  0.00     0.236 C 
HETATM   15  C   UNL     1      42.268 -17.599   6.931  1.00  0.00     0.044 C 
BRANCH  14  16
HETATM   16  N   UNL     1      43.855 -17.918   4.980  1.00  0.00     0.097 N 
HETATM   17  C   UNL     1      43.914 -17.955   3.499  1.00  0.00     0.300 C 
HETATM   18  C   UNL     1      43.752 -19.358   2.866  1.00  0.00     0.265 C 
HETATM   19  N   UNL     1      44.746 -20.348   3.457  1.00  0.00    -0.068 N 
HETATM   20  H   UNL     1      45.683 -20.053   3.149  1.00  0.00     0.280 HD
HETATM   21  C   UNL     1      44.764 -20.299   4.984  1.00  0.00     0.265 C 
HETATM   22  C   UNL     1      44.897 -18.846   5.486  1.00  0.00     0.300 C 
BRANCH  19  23
HETATM   23  C   UNL     1      44.538 -21.772   2.979  1.00  0.00     0.230 C 
HETATM   24  C   UNL     1      43.904 -21.812   1.602  1.00  0.00     0.034 C 
ENDBRANCH  19  23
ENDBRANCH  14  16
ENDBRANCH  13  14
ENDBRANCH  11  13
ENDBRANCH   1  11
BRANCH   3  25
HETATM   25  C   UNL     1      43.036 -12.554   6.665  1.00  0.00     0.314 C 
BRANCH  25  26
HETATM   26  N   UNL     1      44.000 -13.422   7.476  1.00  0.00    -0.072 N 
HETATM   27  H   UNL     1      43.411 -14.202   7.814  1.00  0.00     0.279 HD
HETATM   28  C   UNL     1      45.068 -14.051   6.629  1.00  0.00     0.269 C 
HETATM   29  C   UNL     1      44.558 -12.710   8.665  1.00  0.00     0.269 C 
ENDBRANCH  25  26
ENDBRANCH   3  25
BRANCH   8  30
HETATM   30  C   UNL     1      40.269 -14.221  -0.117  1.00  0.00     0.300 C 
HETATM   31  O   UNL     1      39.161 -13.911  -0.538  1.00  0.00    -0.259 OA
BRANCH  30  32
HETATM   32  O   UNL     1      41.272 -14.717  -0.898  1.00  0.00    -0.317 OA
BRANCH  32  33
HETATM   33  C   UNL     1      41.162 -14.488  -2.311  1.00  0.00     0.174 C 
HETATM   34  C   UNL     1      40.731 -15.767  -3.005  1.00  0.00     0.034 C 
ENDBRANCH  32  33
ENDBRANCH  30  32
ENDBRANCH   8  30
TORSDOF 10
ENDMDL
MODEL 7
REMARK VINA RESULT:      -6.7      3.575      6.484
REMARK  10 active torsions:
REMARK  status: ('A' for Active; 'I' for Inactive)
REMARK    1  A    between atoms: C_2  and  N_3 
REMARK    2  A    between atoms: N_7  and  C_8 
REMARK    3  A    between atoms: C_8  and  C_9 
REMARK    4  A    between atoms: C_9  and  N_10 
REMARK    5  A    between atoms: N_10  and  C_11 
REMARK    6  A    between atoms: C_13  and  C_14 
REMARK    7  A    between atoms: C_14  and  N_15 
REMARK    8  A    between atoms: C_23  and  C_24 
REMARK    9  A    between atoms: C_24  and  O_25 
REMARK   10  A    between atoms: O_25  and  C_26 
ROOT
HETATM    1  C   UNL     1      40.340 -14.798   2.641  1.00  0.00     0.139 A 
HETATM    2  N   UNL     1      40.434 -14.944   1.294  1.00  0.00    -0.214 NA
HETATM    3  C   UNL     1      40.503 -13.858   0.509  1.00  0.00     0.155 A 
HETATM    4  N   UNL     1      40.482 -12.584   0.916  1.00  0.00    -0.224 NA
HETATM    5  C   UNL     1      40.362 -12.462   2.248  1.00  0.00     0.115 A 
HETATM    6  C   UNL     1      40.282 -13.486   3.175  1.00  0.00     0.053 A 
HETATM    7  S   UNL     1      40.296 -10.921   2.939  1.00  0.00    -0.063 SA
HETATM    8  C   UNL     1      40.091 -11.547   4.521  1.00  0.00     0.089 A 
HETATM    9  C   UNL     1      40.096 -12.945   4.519  1.00  0.00    -0.022 A 
HETATM   10  C   UNL     1      39.901 -13.796   5.741  1.00  0.00     0.051 C 
ENDROOT
BRANCH   1  11
HETATM   11  N   UNL     1      40.276 -15.932   3.438  1.00  0.00    -0.372 N 
HETATM   12  H   UNL     1      40.257 -15.747   4.437  1.00  0.00     0.161 HD
BRANCH  11  13
HETATM   13  C   UNL     1      41.004 -17.120   3.021  1.00  0.00     0.156 C 
BRANCH  13  14
HETATM   14  C   UNL     1      41.867 -17.711   4.188  1.00  0.00     0.236 C 
HETATM   15  C   UNL     1      41.308 -17.182   5.524  1.00  0.00     0.044 C 
BRANCH  14  16
HETATM   16  N   UNL     1      43.335 -17.462   4.028  1.00  0.00     0.097 N 
HETATM   17  C   UNL     1      43.821 -17.730   2.653  1.00  0.00     0.300 C 
HETATM   18  C   UNL     1      43.863 -19.223   2.246  1.00  0.00     0.265 C 
HETATM   19  N   UNL     1      44.652 -20.048   3.253  1.00  0.00    -0.068 N 
HETATM   20  H   UNL     1      45.635 -19.752   3.179  1.00  0.00     0.280 HD
HETATM   21  C   UNL     1      44.225 -19.755   4.692  1.00  0.00     0.265 C 
HETATM   22  C   UNL     1      44.194 -18.236   4.957  1.00  0.00     0.300 C 
BRANCH  19  23
HETATM   23  C   UNL     1      44.605 -21.539   2.984  1.00  0.00     0.230 C 
HETATM   24  C   UNL     1      43.949 -21.845   1.651  1.00  0.00     0.034 C 
ENDBRANCH  19  23
ENDBRANCH  14  16
ENDBRANCH  13  14
ENDBRANCH  11  13
ENDBRANCH   1  11
BRANCH   3  25
HETATM   25  C   UNL     1      40.608 -14.064  -0.993  1.00  0.00     0.314 C 
BRANCH  25  26
HETATM   26  N   UNL     1      39.337 -14.624  -1.635  1.00  0.00    -0.072 N 
HETATM   27  H   UNL     1      39.203 -15.537  -1.168  1.00  0.00     0.279 HD
HETATM   28  C   UNL     1      38.116 -13.813  -1.311  1.00  0.00     0.269 C 
HETATM   29  C   UNL     1      39.489 -14.869  -3.101  1.00  0.00     0.269 C 
ENDBRANCH  25  26
ENDBRANCH   3  25
BRANCH   8  30
HETATM   30  C   UNL     1      39.943 -10.639   5.659  1.00  0.00     0.300 C 
HETATM   31  O   UNL     1      38.871 -10.287   6.136  1.00  0.00    -0.259 OA
BRANCH  30  32
HETATM   32  O   UNL     1      41.157 -10.206   6.106  1.00  0.00    -0.317 OA
BRANCH  32  33
HETATM   33  C   UNL     1      41.684 -10.856   7.273  1.00  0.00     0.174 C 
HETATM   34  C   UNL     1      41.672  -9.892   8.444  1.00  0.00     0.034 C 
ENDBRANCH  32  33
ENDBRANCH  30  32
ENDBRANCH   8  30
TORSDOF 10
ENDMDL
MODEL 8
REMARK VINA RESULT:      -6.7      1.547      3.025
REMARK  10 active torsions:
REMARK  status: ('A' for Active; 'I' for Inactive)
REMARK    1  A    between atoms: C_2  and  N_3 
REMARK    2  A    between atoms: N_7  and  C_8 
REMARK    3  A    between atoms: C_8  and  C_9 
REMARK    4  A    between atoms: C_9  and  N_10 
REMARK    5  A    between atoms: N_10  and  C_11 
REMARK    6  A    between atoms: C_13  and  C_14 
REMARK    7  A    between atoms: C_14  and  N_15 
REMARK    8  A    between atoms: C_23  and  C_24 
REMARK    9  A    between atoms: C_24  and  O_25 
REMARK   10  A    between atoms: O_25  and  C_26 
ROOT
HETATM    1  C   UNL     1      41.031 -15.906   3.469  1.00  0.00     0.139 A 
HETATM    2  N   UNL     1      40.751 -15.062   2.443  1.00  0.00    -0.214 NA
HETATM    3  C   UNL     1      41.429 -15.167   1.290  1.00  0.00     0.155 A 
HETATM    4  N   UNL     1      42.404 -16.043   1.022  1.00  0.00    -0.224 NA
HETATM    5  C   UNL     1      42.683 -16.850   2.058  1.00  0.00     0.115 A 
HETATM    6  C   UNL     1      42.067 -16.857   3.298  1.00  0.00     0.053 A 
HETATM    7  S   UNL     1      43.905 -18.007   1.906  1.00  0.00    -0.063 SA
HETATM    8  C   UNL     1      43.718 -18.541   3.524  1.00  0.00     0.089 A 
HETATM    9  C   UNL     1      42.697 -17.841   4.174  1.00  0.00    -0.022 A 
HETATM   10  C   UNL     1      42.311 -18.046   5.611  1.00  0.00     0.051 C 
ENDROOT
BRANCH   1  11
HETATM   11  N   UNL     1      40.314 -15.788   4.651  1.00  0.00    -0.372 N 
HETATM   12  H   UNL     1      39.315 -15.651   4.529  1.00  0.00     0.161 HD
BRANCH  11  13
HETATM   13  C   UNL     1      40.924 -15.088   5.770  1.00  0.00     0.156 C 
BRANCH  13  14
HETATM   14  C   UNL     1      41.496 -13.693   5.340  1.00  0.00     0.236 C 
HETATM   15  C   UNL     1      43.035 -13.753   5.418  1.00  0.00     0.044 C 
BRANCH  14  16
HETATM   16  N   UNL     1      40.914 -12.548   6.111  1.00  0.00     0.097 N 
HETATM   17  C   UNL     1      39.436 -12.482   6.024  1.00  0.00     0.300 C 
HETATM   18  C   UNL     1      38.873 -12.055   4.647  1.00  0.00     0.265 C 
HETATM   19  N   UNL     1      39.487 -10.741   4.184  1.00  0.00    -0.068 N 
HETATM   20  H   UNL     1      39.143 -10.008   4.821  1.00  0.00     0.280 HD
HETATM   21  C   UNL     1      41.010 -10.742   4.317  1.00  0.00     0.265 C 
HETATM   22  C   UNL     1      41.439 -11.216   5.721  1.00  0.00     0.300 C 
BRANCH  19  23
HETATM   23  C   UNL     1      39.082 -10.346   2.777  1.00  0.00     0.230 C 
HETATM   24  C   UNL     1      38.246 -11.424   2.114  1.00  0.00     0.034 C 
ENDBRANCH  19  23
ENDBRANCH  14  16
ENDBRANCH  13  14
ENDBRANCH  11  13
ENDBRANCH   1  11
BRANCH   3  25
HETATM   25  C   UNL     1      41.086 -14.204   0.165  1.00  0.00     0.314 C 
BRANCH  25  26
HETATM   26  N   UNL     1      39.979 -14.704  -0.766  1.00  0.00    -0.072 N 
HETATM   27  H   UNL     1      39.686 -15.603  -0.346  1.00  0.00     0.279 HD
HETATM   28  C   UNL     1      38.763 -13.824  -0.746  1.00  0.00     0.269 C 
HETATM   29  C   UNL     1      40.467 -14.974  -2.152  1.00  0.00     0.269 C 
ENDBRANCH  25  26
ENDBRANCH   3  25
BRANCH   8  30
HETATM   30  C   UNL     1      44.572 -19.605   4.052  1.00  0.00     0.300 C 
HETATM   31  O   UNL     1      44.872 -19.738   5.232  1.00  0.00    -0.259 OA
BRANCH  30  32
HETATM   32  O   UNL     1      45.022 -20.418   3.052  1.00  0.00    -0.317 OA
BRANCH  32  33
HETATM   33  C   UNL     1      44.384 -21.697   2.926  1.00  0.00     0.174 C 
HETATM   34  C   UNL     1      44.066 -21.969   1.467  1.00  0.00     0.034 C 
ENDBRANCH  32  33
ENDBRANCH  30  32
ENDBRANCH   8  30
TORSDOF 10
ENDMDL
MODEL 9
REMARK VINA RESULT:      -6.6      1.928      6.319
REMARK  10 active torsions:
REMARK  status: ('A' for Active; 'I' for Inactive)
REMARK    1  A    between atoms: C_2  and  N_3 
REMARK    2  A    between atoms: N_7  and  C_8 
REMARK    3  A    between atoms: C_8  and  C_9 
REMARK    4  A    between atoms: C_9  and  N_10 
REMARK    5  A    between atoms: N_10  and  C_11 
REMARK    6  A    between atoms: C_13  and  C_14 
REMARK    7  A    between atoms: C_14  and  N_15 
REMARK    8  A    between atoms: C_23  and  C_24 
REMARK    9  A    between atoms: C_24  and  O_25 
REMARK   10  A    between atoms: O_25  and  C_26 
ROOT
HETATM    1  C   UNL     1      40.994 -14.905   4.252  1.00  0.00     0.139 A 
HETATM    2  N   UNL     1      40.833 -13.558   4.322  1.00  0.00    -0.214 NA
HETATM    3  C   UNL     1      41.643 -12.830   5.106  1.00  0.00     0.155 A 
HETATM    4  N   UNL     1      42.634 -13.298   5.872  1.00  0.00    -0.224 NA
HETATM    5  C   UNL     1      42.758 -14.633   5.809  1.00  0.00     0.115 A 
HETATM    6  C   UNL     1      42.001 -15.507   5.047  1.00  0.00     0.053 A 
HETATM    7  S   UNL     1      43.948 -15.402   6.731  1.00  0.00    -0.063 SA
HETATM    8  C   UNL     1      43.468 -16.961   6.206  1.00  0.00     0.089 A 
HETATM    9  C   UNL     1      42.404 -16.887   5.302  1.00  0.00    -0.022 A 
HETATM   10  C   UNL     1      41.729 -18.079   4.687  1.00  0.00     0.051 C 
ENDROOT
BRANCH   1  11
HETATM   11  N   UNL     1      40.152 -15.641   3.431  1.00  0.00    -0.372 N 
HETATM   12  H   UNL     1      40.466 -16.590   3.245  1.00  0.00     0.161 HD
BRANCH  11  13
HETATM   13  C   UNL     1      39.478 -14.964   2.336  1.00  0.00     0.156 C 
BRANCH  13  14
HETATM   14  C   UNL     1      40.111 -15.328   0.949  1.00  0.00     0.236 C 
HETATM   15  C   UNL     1      41.224 -16.371   1.181  1.00  0.00     0.044 C 
BRANCH  14  16
HETATM   16  N   UNL     1      40.580 -14.134   0.176  1.00  0.00     0.097 N 
HETATM   17  C   UNL     1      39.473 -13.232  -0.222  1.00  0.00     0.300 C 
HETATM   18  C   UNL     1      38.536 -13.782  -1.324  1.00  0.00     0.265 C 
HETATM   19  N   UNL     1      39.324 -14.222  -2.550  1.00  0.00    -0.068 N 
HETATM   20  H   UNL     1      39.718 -13.371  -2.975  1.00  0.00     0.280 HD
HETATM   21  C   UNL     1      40.515 -15.105  -2.178  1.00  0.00     0.265 C 
HETATM   22  C   UNL     1      41.347 -14.460  -1.051  1.00  0.00     0.300 C 
BRANCH  19  23
HETATM   23  C   UNL     1      38.473 -14.904  -3.604  1.00  0.00     0.230 C 
HETATM   24  C   UNL     1      39.095 -16.208  -4.065  1.00  0.00     0.034 C 
ENDBRANCH  19  23
ENDBRANCH  14  16
ENDBRANCH  13  14
ENDBRANCH  11  13
ENDBRANCH   1  11
BRANCH   3  25
HETATM   25  C   UNL     1      41.431 -11.326   5.156  1.00  0.00     0.314 C 
BRANCH  25  26
HETATM   26  N   UNL     1      40.133 -10.902   5.849  1.00  0.00    -0.072 N 
HETATM   27  H   UNL     1      40.358  -9.981   6.260  1.00  0.00     0.279 HD
HETATM   28  C   UNL     1      39.012 -10.658   4.881  1.00  0.00     0.269 C 
HETATM   29  C   UNL     1      39.742 -11.825   6.957  1.00  0.00     0.269 C 
ENDBRANCH  25  26
ENDBRANCH   3  25
BRANCH   8  30
HETATM   30  C   UNL     1      44.158 -18.151   6.703  1.00  0.00     0.300 C 
HETATM   31  O   UNL     1      44.051 -18.597   7.840  1.00  0.00    -0.259 OA
BRANCH  30  32
HETATM   32  O   UNL     1      44.967 -18.689   5.745  1.00  0.00    -0.317 OA
BRANCH  32  33
HETATM   33  C   UNL     1      44.677 -20.035   5.338  1.00  0.00     0.174 C 
HETATM   34  C   UNL     1      44.662 -20.119   3.823  1.00  0.00     0.034 C 
ENDBRANCH  32  33
ENDBRANCH  30  32
ENDBRANCH   8  30
TORSDOF 10
ENDMDL
MODEL 10
REMARK VINA RESULT:      -6.3      2.108      6.059
REMARK  10 active torsions:
REMARK  status: ('A' for Active; 'I' for Inactive)
REMARK    1  A    between atoms: C_2  and  N_3 
REMARK    2  A    between atoms: N_7  and  C_8 
REMARK    3  A    between atoms: C_8  and  C_9 
REMARK    4  A    between atoms: C_9  and  N_10 
REMARK    5  A    between atoms: N_10  and  C_11 
REMARK    6  A    between atoms: C_13  and  C_14 
REMARK    7  A    between atoms: C_14  and  N_15 
REMARK    8  A    between atoms: C_23  and  C_24 
REMARK    9  A    between atoms: C_24  and  O_25 
REMARK   10  A    between atoms: O_25  and  C_26 
ROOT
HETATM    1  C   UNL     1      39.817 -14.965   2.495  1.00  0.00     0.139 A 
HETATM    2  N   UNL     1      39.351 -13.990   3.318  1.00  0.00    -0.214 NA
HETATM    3  C   UNL     1      39.947 -13.776   4.501  1.00  0.00     0.155 A 
HETATM    4  N   UNL     1      40.993 -14.450   4.995  1.00  0.00    -0.224 NA
HETATM    5  C   UNL     1      41.419 -15.426   4.177  1.00  0.00     0.115 A 
HETATM    6  C   UNL     1      40.906 -15.757   2.935  1.00  0.00     0.053 A 
HETATM    7  S   UNL     1      42.720 -16.396   4.649  1.00  0.00    -0.063 SA
HETATM    8  C   UNL     1      42.625 -17.358   3.234  1.00  0.00     0.089 A 
HETATM    9  C   UNL     1      41.604 -16.917   2.387  1.00  0.00    -0.022 A 
HETATM   10  C   UNL     1      41.238 -17.572   1.087  1.00  0.00     0.051 C 
ENDROOT
BRANCH   1  11
HETATM   11  N   UNL     1      39.193 -15.166   1.272  1.00  0.00    -0.372 N 
HETATM   12  H   UNL     1      39.635 -15.865   0.681  1.00  0.00     0.161 HD
BRANCH  11  13
HETATM   13  C   UNL     1      38.615 -14.022   0.586  1.00  0.00     0.156 C 
BRANCH  13  14
HETATM   14  C   UNL     1      39.207 -13.849  -0.855  1.00  0.00     0.236 C 
HETATM   15  C   UNL     1      38.083 -14.110  -1.878  1.00  0.00     0.044 C 
BRANCH  14  16
HETATM   16  N   UNL     1      40.428 -14.681  -1.101  1.00  0.00     0.097 N 
HETATM   17  C   UNL     1      41.679 -14.016  -0.665  1.00  0.00     0.300 C 
HETATM   18  C   UNL     1      42.124 -12.813  -1.532  1.00  0.00     0.265 C 
HETATM   19  N   UNL     1      42.215 -13.195  -3.002  1.00  0.00    -0.068 N 
HETATM   20  H   UNL     1      42.999 -13.858  -3.092  1.00  0.00     0.280 HD
HETATM   21  C   UNL     1      40.969 -13.942  -3.478  1.00  0.00     0.265 C 
HETATM   22  C   UNL     1      40.616 -15.093  -2.513  1.00  0.00     0.300 C 
BRANCH  19  23
HETATM   23  C   UNL     1      42.506 -12.021  -3.916  1.00  0.00     0.230 C 
HETATM   24  C   UNL     1      42.294 -10.697  -3.208  1.00  0.00     0.034 C 
ENDBRANCH  19  23
ENDBRANCH  14  16
ENDBRANCH  13  14
ENDBRANCH  11  13
ENDBRANCH   1  11
BRANCH   3  25
HETATM   25  C   UNL     1      39.397 -12.676   5.394  1.00  0.00     0.314 C 
BRANCH  25  26
HETATM   26  N   UNL     1      39.656 -11.261   4.870  1.00  0.00    -0.072 N 
HETATM   27  H   UNL     1      39.708 -10.683   5.726  1.00  0.00     0.279 HD
HETATM   28  C   UNL     1      40.992 -11.126   4.200  1.00  0.00     0.269 C 
HETATM   29  C   UNL     1      38.537 -10.744   4.025  1.00  0.00     0.269 C 
ENDBRANCH  25  26
ENDBRANCH   3  25
BRANCH   8  30
HETATM   30  C   UNL     1      43.550 -18.475   3.040  1.00  0.00     0.300 C 
HETATM   31  O   UNL     1      44.268 -18.624   2.058  1.00  0.00    -0.259 OA
BRANCH  30  32
HETATM   32  O   UNL     1      43.489 -19.353   4.082  1.00  0.00    -0.317 OA
BRANCH  32  33
HETATM   33  C   UNL     1      44.732 -19.678   4.724  1.00  0.00     0.174 C 
HETATM   34  C   UNL     1      44.956 -21.178   4.675  1.00  0.00     0.034 C 
ENDBRANCH  32  33
ENDBRANCH  30  32
ENDBRANCH   8  30
TORSDOF 10
ENDMDL
