MODEL 1
REMARK VINA RESULT:      -8.9      0.000      0.000
REMARK  6 active torsions:
REMARK  status: ('A' for Active; 'I' for Inactive)
REMARK    1  A    between atoms: C_5  and  C_6 
REMARK    2  A    between atoms: C_11  and  C_12 
REMARK       I    between atoms: C_12  and  N_13 
REMARK    3  A    between atoms: N_13  and  C_14 
REMARK    4  A    between atoms: C_17  and  C_18 
REMARK    5  A    between atoms: C_18  and  O_19 
REMARK    6  A    between atoms: C_25  and  C_26 
ROOT
HETATM    1  C   UNL     1      43.988 -16.754   2.189  1.00  0.00     0.118 C 
HETATM    2  N   UNL     1      43.254 -16.459   0.965  1.00  0.00    -0.366 N 
HETATM    3  C   UNL     1      42.038 -15.879   0.966  1.00  0.00     0.123 A 
HETATM    4  N   UNL     1      41.436 -15.460   2.118  1.00  0.00    -0.240 N 
HETATM    5  N   UNL     1      40.265 -14.820   1.923  1.00  0.00    -0.165 NA
HETATM    6  C   UNL     1      40.074 -14.919   0.586  1.00  0.00     0.148 A 
HETATM    7  C   UNL     1      41.166 -15.576  -0.045  1.00  0.00     0.089 A 
HETATM    8  C   UNL     1      42.010 -15.623   3.439  1.00  0.00     0.221 C 
HETATM    9  C   UNL     1      43.532 -15.844   3.344  1.00  0.00     0.066 C 
HETATM   10  H   UNL     1      43.638 -16.875   0.118  1.00  0.00     0.161 HD
ENDROOT
BRANCH   6  11
HETATM   11  C   UNL     1      38.878 -14.381  -0.089  1.00  0.00     0.276 C 
HETATM   12  N   UNL     1      39.011 -14.383  -1.465  1.00  0.00    -0.322 N 
HETATM   13  H   UNL     1      39.900 -14.757  -1.785  1.00  0.00     0.169 HD
HETATM   14  O   UNL     1      37.907 -14.000   0.554  1.00  0.00    -0.266 OA
BRANCH  12  15
HETATM   15  C   UNL     1      38.077 -13.966  -2.428  1.00  0.00     0.035 A 
HETATM   16  C   UNL     1      37.630 -12.651  -2.556  1.00  0.00     0.030 A 
HETATM   17  C   UNL     1      36.685 -12.314  -3.534  1.00  0.00     0.012 A 
HETATM   18  C   UNL     1      36.169 -13.283  -4.403  1.00  0.00    -0.030 A 
HETATM   19  C   UNL     1      36.623 -14.601  -4.272  1.00  0.00     0.012 A 
HETATM   20  C   UNL     1      37.571 -14.937  -3.298  1.00  0.00     0.030 A 
BRANCH  18  21
HETATM   21  C   UNL     1      35.115 -12.933  -5.429  1.00  0.00     0.147 C 
HETATM   22  C   UNL     1      35.341 -13.682  -6.737  1.00  0.00     0.044 C 
BRANCH  21  23
HETATM   23  O   UNL     1      33.821 -13.255  -4.921  1.00  0.00    -0.391 OA
HETATM   24  H   UNL     1      33.802 -12.982  -3.990  1.00  0.00     0.210 HD
ENDBRANCH  21  23
ENDBRANCH  18  21
ENDBRANCH  12  15
ENDBRANCH   6  11
BRANCH   8  25
HETATM   25  C   UNL     1      41.279 -16.708   4.196  1.00  0.00     0.409 C 
HETATM   26  F   UNL     1      40.785 -17.685   3.416  1.00  0.00    -0.169 F 
HETATM   27  F   UNL     1      42.113 -17.293   5.095  1.00  0.00    -0.169 F 
HETATM   28  F   UNL     1      40.246 -16.206   4.915  1.00  0.00    -0.169 F 
ENDBRANCH   8  25
BRANCH   1  29
HETATM   29  C   UNL     1      44.023 -18.238   2.508  1.00  0.00    -0.035 A 
HETATM   30  C   UNL     1      44.547 -18.660   3.742  1.00  0.00     0.010 A 
HETATM   31  C   UNL     1      44.640 -20.019   4.061  1.00  0.00     0.007 A 
HETATM   32  C   UNL     1      44.214 -20.991   3.153  1.00  0.00    -0.062 A 
HETATM   33  C   UNL     1      44.291 -22.450   3.489  1.00  0.00     0.048 C 
HETATM   34  C   UNL     1      43.675 -20.582   1.930  1.00  0.00     0.007 A 
HETATM   35  C   UNL     1      43.589 -19.223   1.609  1.00  0.00     0.010 A 
ENDBRANCH   1  29
TORSDOF 6
ENDMDL
MODEL 2
REMARK VINA RESULT:      -8.8      2.353      3.891
REMARK  6 active torsions:
REMARK  status: ('A' for Active; 'I' for Inactive)
REMARK    1  A    between atoms: C_5  and  C_6 
REMARK    2  A    between atoms: C_11  and  C_12 
REMARK       I    between atoms: C_12  and  N_13 
REMARK    3  A    between atoms: N_13  and  C_14 
REMARK    4  A    between atoms: C_17  and  C_18 
REMARK    5  A    between atoms: C_18  and  O_19 
REMARK    6  A    between atoms: C_25  and  C_26 
ROOT
HETATM    1  C   UNL     1      41.170 -16.398   4.687  1.00  0.00     0.118 C 
HETATM    2  N   UNL     1      40.365 -15.499   3.872  1.00  0.00    -0.366 N 
HETATM    3  C   UNL     1      40.481 -15.428   2.532  1.00  0.00     0.123 A 
HETATM    4  N   UNL     1      41.318 -16.251   1.833  1.00  0.00    -0.240 N 
HETATM    5  N   UNL     1      41.239 -16.104   0.494  1.00  0.00    -0.165 NA
HETATM    6  C   UNL     1      40.374 -15.074   0.344  1.00  0.00     0.148 A 
HETATM    7  C   UNL     1      39.879 -14.627   1.600  1.00  0.00     0.089 A 
HETATM    8  C   UNL     1      42.180 -17.242   2.447  1.00  0.00     0.221 C 
HETATM    9  C   UNL     1      41.679 -17.593   3.861  1.00  0.00     0.066 C 
HETATM   10  H   UNL     1      39.831 -14.803   4.391  1.00  0.00     0.161 HD
ENDROOT
BRANCH   6  11
HETATM   11  C   UNL     1      40.006 -14.531  -0.977  1.00  0.00     0.276 C 
HETATM   12  N   UNL     1      38.636 -14.463  -1.149  1.00  0.00    -0.322 N 
HETATM   13  H   UNL     1      38.110 -14.790  -0.343  1.00  0.00     0.169 HD
HETATM   14  O   UNL     1      40.865 -14.188  -1.781  1.00  0.00    -0.266 OA
BRANCH  12  15
HETATM   15  C   UNL     1      37.924 -13.986  -2.262  1.00  0.00     0.035 A 
HETATM   16  C   UNL     1      37.590 -12.645  -2.454  1.00  0.00     0.030 A 
HETATM   17  C   UNL     1      36.865 -12.248  -3.584  1.00  0.00     0.012 A 
HETATM   18  C   UNL     1      36.461 -13.181  -4.547  1.00  0.00    -0.030 A 
HETATM   19  C   UNL     1      36.801 -14.526  -4.352  1.00  0.00     0.012 A 
HETATM   20  C   UNL     1      37.530 -14.922  -3.224  1.00  0.00     0.030 A 
BRANCH  18  21
HETATM   21  C   UNL     1      35.638 -12.764  -5.745  1.00  0.00     0.147 C 
HETATM   22  C   UNL     1      35.913 -11.316  -6.132  1.00  0.00     0.044 C 
BRANCH  21  23
HETATM   23  O   UNL     1      35.936 -13.611  -6.854  1.00  0.00    -0.391 OA
HETATM   24  H   UNL     1      36.848 -13.923  -6.741  1.00  0.00     0.210 HD
ENDBRANCH  21  23
ENDBRANCH  18  21
ENDBRANCH  12  15
ENDBRANCH   6  11
BRANCH   8  25
HETATM   25  C   UNL     1      43.619 -16.782   2.402  1.00  0.00     0.409 C 
HETATM   26  F   UNL     1      43.780 -15.461   2.591  1.00  0.00    -0.169 F 
HETATM   27  F   UNL     1      44.342 -17.417   3.361  1.00  0.00    -0.169 F 
HETATM   28  F   UNL     1      44.207 -17.095   1.222  1.00  0.00    -0.169 F 
ENDBRANCH   8  25
BRANCH   1  29
HETATM   29  C   UNL     1      42.231 -15.667   5.492  1.00  0.00    -0.035 A 
HETATM   30  C   UNL     1      42.307 -14.266   5.409  1.00  0.00     0.010 A 
HETATM   31  C   UNL     1      43.295 -13.554   6.098  1.00  0.00     0.007 A 
HETATM   32  C   UNL     1      44.235 -14.226   6.883  1.00  0.00    -0.062 A 
HETATM   33  C   UNL     1      45.287 -13.474   7.641  1.00  0.00     0.048 C 
HETATM   34  C   UNL     1      44.157 -15.617   6.986  1.00  0.00     0.007 A 
HETATM   35  C   UNL     1      43.174 -16.329   6.292  1.00  0.00     0.010 A 
ENDBRANCH   1  29
TORSDOF 6
ENDMDL
MODEL 3
REMARK VINA RESULT:      -8.8      3.487     10.034
REMARK  6 active torsions:
REMARK  status: ('A' for Active; 'I' for Inactive)
REMARK    1  A    between atoms: C_5  and  C_6 
REMARK    2  A    between atoms: C_11  and  C_12 
REMARK       I    between atoms: C_12  and  N_13 
REMARK    3  A    between atoms: N_13  and  C_14 
REMARK    4  A    between atoms: C_17  and  C_18 
REMARK    5  A    between atoms: C_18  and  O_19 
REMARK    6  A    between atoms: C_25  and  C_26 
ROOT
HETATM    1  C   UNL     1      39.102 -12.644  -1.463  1.00  0.00     0.118 C 
HETATM    2  N   UNL     1      38.906 -13.401  -0.234  1.00  0.00    -0.366 N 
HETATM    3  C   UNL     1      39.758 -14.360   0.176  1.00  0.00     0.123 A 
HETATM    4  N   UNL     1      40.912 -14.642  -0.500  1.00  0.00    -0.240 N 
HETATM    5  N   UNL     1      41.688 -15.565   0.102  1.00  0.00    -0.165 NA
HETATM    6  C   UNL     1      40.946 -15.952   1.166  1.00  0.00     0.148 A 
HETATM    7  C   UNL     1      39.731 -15.216   1.244  1.00  0.00     0.089 A 
HETATM    8  C   UNL     1      41.315 -13.980  -1.725  1.00  0.00     0.221 C 
HETATM    9  C   UNL     1      40.585 -12.633  -1.879  1.00  0.00     0.066 C 
HETATM   10  H   UNL     1      37.995 -13.283   0.208  1.00  0.00     0.161 HD
ENDROOT
BRANCH   6  11
HETATM   11  C   UNL     1      41.391 -16.994   2.110  1.00  0.00     0.276 C 
HETATM   12  N   UNL     1      42.404 -17.774   1.586  1.00  0.00    -0.322 N 
HETATM   13  H   UNL     1      42.679 -17.502   0.646  1.00  0.00     0.169 HD
HETATM   14  O   UNL     1      40.886 -17.096   3.223  1.00  0.00    -0.266 OA
BRANCH  12  15
HETATM   15  C   UNL     1      43.083 -18.841   2.197  1.00  0.00     0.035 A 
HETATM   16  C   UNL     1      43.288 -20.080   1.591  1.00  0.00     0.030 A 
HETATM   17  C   UNL     1      43.964 -21.101   2.271  1.00  0.00     0.012 A 
HETATM   18  C   UNL     1      44.449 -20.905   3.570  1.00  0.00    -0.030 A 
HETATM   19  C   UNL     1      44.243 -19.658   4.174  1.00  0.00     0.012 A 
HETATM   20  C   UNL     1      43.572 -18.636   3.491  1.00  0.00     0.030 A 
BRANCH  18  21
HETATM   21  C   UNL     1      45.138 -22.018   4.325  1.00  0.00     0.147 C 
HETATM   22  C   UNL     1      44.637 -22.109   5.762  1.00  0.00     0.044 C 
BRANCH  21  23
HETATM   23  O   UNL     1      44.907 -23.264   3.668  1.00  0.00    -0.391 OA
HETATM   24  H   UNL     1      45.774 -23.619   3.414  1.00  0.00     0.210 HD
ENDBRANCH  21  23
ENDBRANCH  18  21
ENDBRANCH  12  15
ENDBRANCH   6  11
BRANCH   8  25
HETATM   25  C   UNL     1      41.141 -14.910  -2.904  1.00  0.00     0.409 C 
HETATM   26  F   UNL     1      40.314 -15.944  -2.670  1.00  0.00    -0.169 F 
HETATM   27  F   UNL     1      40.643 -14.228  -3.967  1.00  0.00    -0.169 F 
HETATM   28  F   UNL     1      42.326 -15.427  -3.311  1.00  0.00    -0.169 F 
ENDBRANCH   8  25
BRANCH   1  29
HETATM   29  C   UNL     1      38.125 -13.039  -2.557  1.00  0.00    -0.035 A 
HETATM   30  C   UNL     1      37.590 -12.040  -3.389  1.00  0.00     0.010 A 
HETATM   31  C   UNL     1      36.654 -12.350  -4.380  1.00  0.00     0.007 A 
HETATM   32  C   UNL     1      36.226 -13.667  -4.563  1.00  0.00    -0.062 A 
HETATM   33  C   UNL     1      35.237 -14.017  -5.634  1.00  0.00     0.048 C 
HETATM   34  C   UNL     1      36.764 -14.670  -3.753  1.00  0.00     0.007 A 
HETATM   35  C   UNL     1      37.695 -14.358  -2.758  1.00  0.00     0.010 A 
ENDBRANCH   1  29
TORSDOF 6
ENDMDL
MODEL 4
REMARK VINA RESULT:      -8.5      3.691     10.193
REMARK  6 active torsions:
REMARK  status: ('A' for Active; 'I' for Inactive)
REMARK    1  A    between atoms: C_5  and  C_6 
REMARK    2  A    between atoms: C_11  and  C_12 
REMARK       I    between atoms: C_12  and  N_13 
REMARK    3  A    between atoms: N_13  and  C_14 
REMARK    4  A    between atoms: C_17  and  C_18 
REMARK    5  A    between atoms: C_18  and  O_19 
REMARK    6  A    between atoms: C_25  and  C_26 
ROOT
HETATM    1  C   UNL     1      40.837 -12.359  -2.285  1.00  0.00     0.118 C 
HETATM    2  N   UNL     1      41.039 -12.714  -0.886  1.00  0.00    -0.366 N 
HETATM    3  C   UNL     1      41.192 -13.986  -0.471  1.00  0.00     0.123 A 
HETATM    4  N   UNL     1      41.239 -15.034  -1.347  1.00  0.00    -0.240 N 
HETATM    5  N   UNL     1      41.488 -16.224  -0.764  1.00  0.00    -0.165 NA
HETATM    6  C   UNL     1      41.511 -15.927   0.556  1.00  0.00     0.148 A 
HETATM    7  C   UNL     1      41.330 -14.534   0.776  1.00  0.00     0.089 A 
HETATM    8  C   UNL     1      41.096 -14.896  -2.783  1.00  0.00     0.221 C 
HETATM    9  C   UNL     1      41.391 -13.449  -3.220  1.00  0.00     0.066 C 
HETATM   10  H   UNL     1      40.886 -11.958  -0.219  1.00  0.00     0.161 HD
ENDROOT
BRANCH   6  11
HETATM   11  C   UNL     1      41.721 -16.950   1.598  1.00  0.00     0.276 C 
HETATM   12  N   UNL     1      42.899 -17.648   1.413  1.00  0.00    -0.322 N 
HETATM   13  H   UNL     1      43.427 -17.343   0.600  1.00  0.00     0.169 HD
HETATM   14  O   UNL     1      40.910 -17.105   2.504  1.00  0.00    -0.266 OA
BRANCH  12  15
HETATM   15  C   UNL     1      43.434 -18.674   2.210  1.00  0.00     0.035 A 
HETATM   16  C   UNL     1      43.637 -19.979   1.761  1.00  0.00     0.030 A 
HETATM   17  C   UNL     1      44.163 -20.952   2.621  1.00  0.00     0.012 A 
HETATM   18  C   UNL     1      44.499 -20.641   3.944  1.00  0.00    -0.030 A 
HETATM   19  C   UNL     1      44.297 -19.328   4.389  1.00  0.00     0.012 A 
HETATM   20  C   UNL     1      43.775 -18.354   3.528  1.00  0.00     0.030 A 
BRANCH  18  21
HETATM   21  C   UNL     1      45.024 -21.698   4.889  1.00  0.00     0.147 C 
HETATM   22  C   UNL     1      44.286 -21.668   6.223  1.00  0.00     0.044 C 
BRANCH  21  23
HETATM   23  O   UNL     1      44.876 -22.989   4.300  1.00  0.00    -0.391 OA
HETATM   24  H   UNL     1      43.958 -23.062   3.995  1.00  0.00     0.210 HD
ENDBRANCH  21  23
ENDBRANCH  18  21
ENDBRANCH  12  15
ENDBRANCH   6  11
BRANCH   8  25
HETATM   25  C   UNL     1      39.743 -15.407  -3.224  1.00  0.00     0.409 C 
HETATM   26  F   UNL     1      38.749 -15.149  -2.356  1.00  0.00    -0.169 F 
HETATM   27  F   UNL     1      39.397 -14.846  -4.411  1.00  0.00    -0.169 F 
HETATM   28  F   UNL     1      39.759 -16.746  -3.432  1.00  0.00    -0.169 F 
ENDBRANCH   8  25
BRANCH   1  29
HETATM   29  C   UNL     1      39.414 -11.915  -2.576  1.00  0.00    -0.035 A 
HETATM   30  C   UNL     1      38.461 -11.953  -1.544  1.00  0.00     0.010 A 
HETATM   31  C   UNL     1      37.129 -11.596  -1.777  1.00  0.00     0.007 A 
HETATM   32  C   UNL     1      36.715 -11.196  -3.050  1.00  0.00    -0.062 A 
HETATM   33  C   UNL     1      35.295 -10.792  -3.309  1.00  0.00     0.048 C 
HETATM   34  C   UNL     1      37.658 -11.138  -4.079  1.00  0.00     0.007 A 
HETATM   35  C   UNL     1      38.988 -11.502  -3.847  1.00  0.00     0.010 A 
ENDBRANCH   1  29
TORSDOF 6
ENDMDL
MODEL 5
REMARK VINA RESULT:      -8.4      4.180      9.699
REMARK  6 active torsions:
REMARK  status: ('A' for Active; 'I' for Inactive)
REMARK    1  A    between atoms: C_5  and  C_6 
REMARK    2  A    between atoms: C_11  and  C_12 
REMARK       I    between atoms: C_12  and  N_13 
REMARK    3  A    between atoms: N_13  and  C_14 
REMARK    4  A    between atoms: C_17  and  C_18 
REMARK    5  A    between atoms: C_18  and  O_19 
REMARK    6  A    between atoms: C_25  and  C_26 
ROOT
HETATM    1  C   UNL     1      40.737 -12.676  -2.236  1.00  0.00     0.118 C 
HETATM    2  N   UNL     1      41.480 -13.879  -1.885  1.00  0.00    -0.366 N 
HETATM    3  C   UNL     1      41.257 -14.568  -0.749  1.00  0.00     0.123 A 
HETATM    4  N   UNL     1      40.264 -14.224   0.124  1.00  0.00    -0.240 N 
HETATM    5  N   UNL     1      40.126 -15.077   1.160  1.00  0.00    -0.165 NA
HETATM    6  C   UNL     1      41.141 -15.954   0.980  1.00  0.00     0.148 A 
HETATM    7  C   UNL     1      41.869 -15.666  -0.207  1.00  0.00     0.089 A 
HETATM    8  C   UNL     1      39.387 -13.084  -0.054  1.00  0.00     0.221 C 
HETATM    9  C   UNL     1      39.370 -12.639  -1.529  1.00  0.00     0.066 C 
HETATM   10  H   UNL     1      42.296 -14.071  -2.465  1.00  0.00     0.161 HD
ENDROOT
BRANCH   6  11
HETATM   11  C   UNL     1      41.407 -17.065   1.913  1.00  0.00     0.276 C 
HETATM   12  N   UNL     1      42.636 -17.654   1.684  1.00  0.00    -0.322 N 
HETATM   13  H   UNL     1      43.155 -17.227   0.921  1.00  0.00     0.169 HD
HETATM   14  O   UNL     1      40.594 -17.374   2.776  1.00  0.00    -0.266 OA
BRANCH  12  15
HETATM   15  C   UNL     1      43.231 -18.719   2.381  1.00  0.00     0.035 A 
HETATM   16  C   UNL     1      43.777 -18.602   3.659  1.00  0.00     0.030 A 
HETATM   17  C   UNL     1      44.366 -19.707   4.285  1.00  0.00     0.012 A 
HETATM   18  C   UNL     1      44.421 -20.953   3.648  1.00  0.00    -0.030 A 
HETATM   19  C   UNL     1      43.869 -21.067   2.365  1.00  0.00     0.012 A 
HETATM   20  C   UNL     1      43.275 -19.962   1.742  1.00  0.00     0.030 A 
BRANCH  18  21
HETATM   21  C   UNL     1      45.097 -22.138   4.299  1.00  0.00     0.147 C 
HETATM   22  C   UNL     1      44.722 -22.252   5.772  1.00  0.00     0.044 C 
BRANCH  21  23
HETATM   23  O   UNL     1      44.724 -23.339   3.626  1.00  0.00    -0.391 OA
HETATM   24  H   UNL     1      44.002 -23.741   4.135  1.00  0.00     0.210 HD
ENDBRANCH  21  23
ENDBRANCH  18  21
ENDBRANCH  12  15
ENDBRANCH   6  11
BRANCH   8  25
HETATM   25  C   UNL     1      39.757 -11.984   0.914  1.00  0.00     0.409 C 
HETATM   26  F   UNL     1      41.050 -11.986   1.280  1.00  0.00    -0.169 F 
HETATM   27  F   UNL     1      39.495 -10.770   0.364  1.00  0.00    -0.169 F 
HETATM   28  F   UNL     1      39.017 -12.048   2.048  1.00  0.00    -0.169 F 
ENDBRANCH   8  25
BRANCH   1  29
HETATM   29  C   UNL     1      41.571 -11.413  -2.102  1.00  0.00    -0.035 A 
HETATM   30  C   UNL     1      42.814 -11.481  -1.451  1.00  0.00     0.010 A 
HETATM   31  C   UNL     1      43.597 -10.337  -1.266  1.00  0.00     0.007 A 
HETATM   32  C   UNL     1      43.153  -9.094  -1.723  1.00  0.00    -0.062 A 
HETATM   33  C   UNL     1      43.989  -7.862  -1.548  1.00  0.00     0.048 C 
HETATM   34  C   UNL     1      41.925  -9.018  -2.387  1.00  0.00     0.007 A 
HETATM   35  C   UNL     1      41.141 -10.162  -2.566  1.00  0.00     0.010 A 
ENDBRANCH   1  29
TORSDOF 6
ENDMDL
MODEL 6
REMARK VINA RESULT:      -8.3      5.911     10.019
REMARK  6 active torsions:
REMARK  status: ('A' for Active; 'I' for Inactive)
REMARK    1  A    between atoms: C_5  and  C_6 
REMARK    2  A    between atoms: C_11  and  C_12 
REMARK       I    between atoms: C_12  and  N_13 
REMARK    3  A    between atoms: N_13  and  C_14 
REMARK    4  A    between atoms: C_17  and  C_18 
REMARK    5  A    between atoms: C_18  and  O_19 
REMARK    6  A    between atoms: C_25  and  C_26 
ROOT
HETATM    1  C   UNL     1      41.700 -10.551   6.634  1.00  0.00     0.118 C 
HETATM    2  N   UNL     1      42.199 -11.915   6.740  1.00  0.00    -0.366 N 
HETATM    3  C   UNL     1      41.869 -12.883   5.863  1.00  0.00     0.123 A 
HETATM    4  N   UNL     1      41.095 -12.633   4.764  1.00  0.00    -0.240 N 
HETATM    5  N   UNL     1      40.942 -13.695   3.948  1.00  0.00    -0.165 NA
HETATM    6  C   UNL     1      41.577 -14.691   4.610  1.00  0.00     0.148 A 
HETATM    7  C   UNL     1      42.170 -14.217   5.812  1.00  0.00     0.089 A 
HETATM    8  C   UNL     1      40.528 -11.336   4.452  1.00  0.00     0.221 C 
HETATM    9  C   UNL     1      41.292 -10.218   5.187  1.00  0.00     0.066 C 
HETATM   10  H   UNL     1      42.673 -12.138   7.615  1.00  0.00     0.161 HD
ENDROOT
BRANCH   6  11
HETATM   11  C   UNL     1      41.637 -16.073   4.099  1.00  0.00     0.276 C 
HETATM   12  N   UNL     1      42.937 -16.528   3.979  1.00  0.00    -0.322 N 
HETATM   13  H   UNL     1      43.633 -15.845   4.265  1.00  0.00     0.169 HD
HETATM   14  O   UNL     1      40.614 -16.696   3.838  1.00  0.00    -0.266 OA
BRANCH  12  15
HETATM   15  C   UNL     1      43.378 -17.790   3.547  1.00  0.00     0.035 A 
HETATM   16  C   UNL     1      43.306 -18.227   2.224  1.00  0.00     0.030 A 
HETATM   17  C   UNL     1      43.754 -19.506   1.872  1.00  0.00     0.012 A 
HETATM   18  C   UNL     1      44.285 -20.375   2.834  1.00  0.00    -0.030 A 
HETATM   19  C   UNL     1      44.358 -19.931   4.160  1.00  0.00     0.012 A 
HETATM   20  C   UNL     1      43.914 -18.649   4.511  1.00  0.00     0.030 A 
BRANCH  18  21
HETATM   21  C   UNL     1      44.727 -21.773   2.468  1.00  0.00     0.147 C 
HETATM   22  C   UNL     1      44.597 -22.726   3.650  1.00  0.00     0.044 C 
BRANCH  21  23
HETATM   23  O   UNL     1      43.939 -22.261   1.383  1.00  0.00    -0.391 OA
HETATM   24  H   UNL     1      43.777 -21.512   0.787  1.00  0.00     0.210 HD
ENDBRANCH  21  23
ENDBRANCH  18  21
ENDBRANCH  12  15
ENDBRANCH   6  11
BRANCH   8  25
HETATM   25  C   UNL     1      39.040 -11.339   4.719  1.00  0.00     0.409 C 
HETATM   26  F   UNL     1      38.644 -12.260   5.615  1.00  0.00    -0.169 F 
HETATM   27  F   UNL     1      38.646 -10.126   5.186  1.00  0.00    -0.169 F 
HETATM   28  F   UNL     1      38.330 -11.551   3.584  1.00  0.00    -0.169 F 
ENDBRANCH   8  25
BRANCH   1  29
HETATM   29  C   UNL     1      40.661 -10.223   7.692  1.00  0.00    -0.035 A 
HETATM   30  C   UNL     1      40.490  -8.886   8.092  1.00  0.00     0.010 A 
HETATM   31  C   UNL     1      39.577  -8.542   9.094  1.00  0.00     0.007 A 
HETATM   32  C   UNL     1      38.814  -9.528   9.725  1.00  0.00    -0.062 A 
HETATM   33  C   UNL     1      37.818  -9.171  10.787  1.00  0.00     0.048 C 
HETATM   34  C   UNL     1      38.963 -10.858   9.323  1.00  0.00     0.007 A 
HETATM   35  C   UNL     1      39.881 -11.201   8.326  1.00  0.00     0.010 A 
ENDBRANCH   1  29
TORSDOF 6
ENDMDL
MODEL 7
REMARK VINA RESULT:      -8.1      1.568      2.344
REMARK  6 active torsions:
REMARK  status: ('A' for Active; 'I' for Inactive)
REMARK    1  A    between atoms: C_5  and  C_6 
REMARK    2  A    between atoms: C_11  and  C_12 
REMARK       I    between atoms: C_12  and  N_13 
REMARK    3  A    between atoms: N_13  and  C_14 
REMARK    4  A    between atoms: C_17  and  C_18 
REMARK    5  A    between atoms: C_18  and  O_19 
REMARK    6  A    between atoms: C_25  and  C_26 
ROOT
HETATM    1  C   UNL     1      43.426 -15.152   3.432  1.00  0.00     0.118 C 
HETATM    2  N   UNL     1      42.804 -15.316   2.125  1.00  0.00    -0.366 N 
HETATM    3  C   UNL     1      41.548 -14.909   1.859  1.00  0.00     0.123 A 
HETATM    4  N   UNL     1      40.789 -14.246   2.782  1.00  0.00    -0.240 N 
HETATM    5  N   UNL     1      39.593 -13.835   2.315  1.00  0.00    -0.165 NA
HETATM    6  C   UNL     1      39.557 -14.341   1.060  1.00  0.00     0.148 A 
HETATM    7  C   UNL     1      40.765 -15.019   0.741  1.00  0.00     0.089 A 
HETATM    8  C   UNL     1      41.232 -13.949   4.130  1.00  0.00     0.221 C 
HETATM    9  C   UNL     1      42.768 -14.005   4.221  1.00  0.00     0.066 C 
HETATM   10  H   UNL     1      43.313 -15.912   1.473  1.00  0.00     0.161 HD
ENDROOT
BRANCH   6  11
HETATM   11  C   UNL     1      38.396 -14.168   0.166  1.00  0.00     0.276 C 
HETATM   12  N   UNL     1      38.771 -14.075  -1.161  1.00  0.00    -0.322 N 
HETATM   13  H   UNL     1      39.775 -14.145  -1.305  1.00  0.00     0.169 HD
HETATM   14  O   UNL     1      37.255 -14.131   0.612  1.00  0.00    -0.266 OA
BRANCH  12  15
HETATM   15  C   UNL     1      37.944 -13.926  -2.287  1.00  0.00     0.035 A 
HETATM   16  C   UNL     1      37.602 -14.972  -3.143  1.00  0.00     0.030 A 
HETATM   17  C   UNL     1      36.783 -14.742  -4.256  1.00  0.00     0.012 A 
HETATM   18  C   UNL     1      36.287 -13.462  -4.534  1.00  0.00    -0.030 A 
HETATM   19  C   UNL     1      36.631 -12.415  -3.670  1.00  0.00     0.012 A 
HETATM   20  C   UNL     1      37.447 -12.647  -2.556  1.00  0.00     0.030 A 
BRANCH  18  21
HETATM   21  C   UNL     1      35.441 -13.200  -5.759  1.00  0.00     0.147 C 
HETATM   22  C   UNL     1      34.187 -12.406  -5.410  1.00  0.00     0.044 C 
BRANCH  21  23
HETATM   23  O   UNL     1      36.201 -12.475  -6.726  1.00  0.00    -0.391 OA
HETATM   24  H   UNL     1      37.061 -12.917  -6.804  1.00  0.00     0.210 HD
ENDBRANCH  21  23
ENDBRANCH  18  21
ENDBRANCH  12  15
ENDBRANCH   6  11
BRANCH   8  25
HETATM   25  C   UNL     1      40.525 -14.844   5.122  1.00  0.00     0.409 C 
HETATM   26  F   UNL     1      39.264 -14.469   5.399  1.00  0.00    -0.169 F 
HETATM   27  F   UNL     1      40.472 -16.116   4.647  1.00  0.00    -0.169 F 
HETATM   28  F   UNL     1      41.194 -14.911   6.299  1.00  0.00    -0.169 F 
ENDBRANCH   8  25
BRANCH   1  29
HETATM   29  C   UNL     1      43.561 -16.464   4.185  1.00  0.00    -0.035 A 
HETATM   30  C   UNL     1      43.409 -17.673   3.485  1.00  0.00     0.010 A 
HETATM   31  C   UNL     1      43.481 -18.904   4.144  1.00  0.00     0.007 A 
HETATM   32  C   UNL     1      43.703 -18.958   5.523  1.00  0.00    -0.062 A 
HETATM   33  C   UNL     1      43.801 -20.271   6.239  1.00  0.00     0.048 C 
HETATM   34  C   UNL     1      43.872 -17.762   6.226  1.00  0.00     0.007 A 
HETATM   35  C   UNL     1      43.793 -16.531   5.566  1.00  0.00     0.010 A 
ENDBRANCH   1  29
TORSDOF 6
ENDMDL
MODEL 8
REMARK VINA RESULT:      -8.0      1.998      2.391
REMARK  6 active torsions:
REMARK  status: ('A' for Active; 'I' for Inactive)
REMARK    1  A    between atoms: C_5  and  C_6 
REMARK    2  A    between atoms: C_11  and  C_12 
REMARK       I    between atoms: C_12  and  N_13 
REMARK    3  A    between atoms: N_13  and  C_14 
REMARK    4  A    between atoms: C_17  and  C_18 
REMARK    5  A    between atoms: C_18  and  O_19 
REMARK    6  A    between atoms: C_25  and  C_26 
ROOT
HETATM    1  C   UNL     1      43.729 -16.585   2.554  1.00  0.00     0.118 C 
HETATM    2  N   UNL     1      42.849 -16.216   1.452  1.00  0.00    -0.366 N 
HETATM    3  C   UNL     1      41.617 -15.706   1.642  1.00  0.00     0.123 A 
HETATM    4  N   UNL     1      41.131 -15.429   2.889  1.00  0.00    -0.240 N 
HETATM    5  N   UNL     1      39.919 -14.838   2.887  1.00  0.00    -0.165 NA
HETATM    6  C   UNL     1      39.583 -14.821   1.575  1.00  0.00     0.148 A 
HETATM    7  C   UNL     1      40.624 -15.356   0.767  1.00  0.00     0.089 A 
HETATM    8  C   UNL     1      41.859 -15.685   4.117  1.00  0.00     0.221 C 
HETATM    9  C   UNL     1      43.368 -15.813   3.836  1.00  0.00     0.066 C 
HETATM   10  H   UNL     1      43.152 -16.529   0.531  1.00  0.00     0.161 HD
ENDROOT
BRANCH   6  11
HETATM   11  C   UNL     1      38.296 -14.287   1.091  1.00  0.00     0.276 C 
HETATM   12  N   UNL     1      38.450 -13.092   0.414  1.00  0.00    -0.322 N 
HETATM   13  H   UNL     1      39.416 -12.781   0.356  1.00  0.00     0.169 HD
HETATM   14  O   UNL     1      37.247 -14.889   1.290  1.00  0.00    -0.266 OA
BRANCH  12  15
HETATM   15  C   UNL     1      37.458 -12.308  -0.198  1.00  0.00     0.035 A 
HETATM   16  C   UNL     1      37.422 -12.031  -1.565  1.00  0.00     0.030 A 
HETATM   17  C   UNL     1      36.407 -11.228  -2.100  1.00  0.00     0.012 A 
HETATM   18  C   UNL     1      35.407 -10.687  -1.282  1.00  0.00    -0.030 A 
HETATM   19  C   UNL     1      35.446 -10.970   0.089  1.00  0.00     0.012 A 
HETATM   20  C   UNL     1      36.459 -11.777   0.623  1.00  0.00     0.030 A 
BRANCH  18  21
HETATM   21  C   UNL     1      34.337  -9.782  -1.848  1.00  0.00     0.147 C 
HETATM   22  C   UNL     1      34.067 -10.089  -3.317  1.00  0.00     0.044 C 
BRANCH  21  23
HETATM   23  O   UNL     1      33.128  -9.940  -1.106  1.00  0.00    -0.391 OA
HETATM   24  H   UNL     1      32.824  -9.052  -0.860  1.00  0.00     0.210 HD
ENDBRANCH  21  23
ENDBRANCH  18  21
ENDBRANCH  12  15
ENDBRANCH   6  11
BRANCH   8  25
HETATM   25  C   UNL     1      41.266 -16.874   4.837  1.00  0.00     0.409 C 
HETATM   26  F   UNL     1      40.838 -17.853   4.021  1.00  0.00    -0.169 F 
HETATM   27  F   UNL     1      42.186 -17.420   5.674  1.00  0.00    -0.169 F 
HETATM   28  F   UNL     1      40.218 -16.514   5.617  1.00  0.00    -0.169 F 
ENDBRANCH   8  25
BRANCH   1  29
HETATM   29  C   UNL     1      43.864 -18.088   2.718  1.00  0.00    -0.035 A 
HETATM   30  C   UNL     1      44.405 -18.600   3.910  1.00  0.00     0.010 A 
HETATM   31  C   UNL     1      44.589 -19.975   4.088  1.00  0.00     0.007 A 
HETATM   32  C   UNL     1      44.241 -20.873   3.077  1.00  0.00    -0.062 A 
HETATM   33  C   UNL     1      44.415 -22.351   3.262  1.00  0.00     0.048 C 
HETATM   34  C   UNL     1      43.685 -20.377   1.895  1.00  0.00     0.007 A 
HETATM   35  C   UNL     1      43.508 -19.001   1.715  1.00  0.00     0.010 A 
ENDBRANCH   1  29
TORSDOF 6
ENDMDL
MODEL 9
REMARK VINA RESULT:      -7.9      6.696     10.440
REMARK  6 active torsions:
REMARK  status: ('A' for Active; 'I' for Inactive)
REMARK    1  A    between atoms: C_5  and  C_6 
REMARK    2  A    between atoms: C_11  and  C_12 
REMARK       I    between atoms: C_12  and  N_13 
REMARK    3  A    between atoms: N_13  and  C_14 
REMARK    4  A    between atoms: C_17  and  C_18 
REMARK    5  A    between atoms: C_18  and  O_19 
REMARK    6  A    between atoms: C_25  and  C_26 
ROOT
HETATM    1  C   UNL     1      41.605  -9.229   8.346  1.00  0.00     0.118 C 
HETATM    2  N   UNL     1      42.323 -10.184   7.511  1.00  0.00    -0.366 N 
HETATM    3  C   UNL     1      41.731 -11.264   6.965  1.00  0.00     0.123 A 
HETATM    4  N   UNL     1      40.392 -11.502   7.099  1.00  0.00    -0.240 N 
HETATM    5  N   UNL     1      39.956 -12.578   6.412  1.00  0.00    -0.165 NA
HETATM    6  C   UNL     1      41.092 -13.097   5.890  1.00  0.00     0.148 A 
HETATM    7  C   UNL     1      42.223 -12.298   6.216  1.00  0.00     0.089 A 
HETATM    8  C   UNL     1      39.491 -10.658   7.857  1.00  0.00     0.221 C 
HETATM    9  C   UNL     1      40.095  -9.253   8.047  1.00  0.00     0.066 C 
HETATM   10  H   UNL     1      43.336 -10.081   7.506  1.00  0.00     0.161 HD
ENDROOT
BRANCH   6  11
HETATM   11  C   UNL     1      41.104 -14.326   5.076  1.00  0.00     0.276 C 
HETATM   12  N   UNL     1      42.331 -14.961   5.108  1.00  0.00    -0.322 N 
HETATM   13  H   UNL     1      43.018 -14.485   5.686  1.00  0.00     0.169 HD
HETATM   14  O   UNL     1      40.103 -14.694   4.472  1.00  0.00    -0.266 OA
BRANCH  12  15
HETATM   15  C   UNL     1      42.707 -16.157   4.474  1.00  0.00     0.035 A 
HETATM   16  C   UNL     1      42.588 -17.417   5.061  1.00  0.00     0.030 A 
HETATM   17  C   UNL     1      42.998 -18.564   4.370  1.00  0.00     0.012 A 
HETATM   18  C   UNL     1      43.532 -18.477   3.078  1.00  0.00    -0.030 A 
HETATM   19  C   UNL     1      43.646 -17.210   2.492  1.00  0.00     0.012 A 
HETATM   20  C   UNL     1      43.233 -16.063   3.181  1.00  0.00     0.030 A 
BRANCH  18  21
HETATM   21  C   UNL     1      44.018 -19.707   2.346  1.00  0.00     0.147 C 
HETATM   22  C   UNL     1      44.822 -20.620   3.265  1.00  0.00     0.044 C 
BRANCH  21  23
HETATM   23  O   UNL     1      42.905 -20.430   1.823  1.00  0.00    -0.391 OA
HETATM   24  H   UNL     1      42.849 -20.225   0.876  1.00  0.00     0.210 HD
ENDBRANCH  21  23
ENDBRANCH  18  21
ENDBRANCH  12  15
ENDBRANCH   6  11
BRANCH   8  25
HETATM   25  C   UNL     1      39.100 -11.337   9.149  1.00  0.00     0.409 C 
HETATM   26  F   UNL     1      40.132 -11.581   9.975  1.00  0.00    -0.169 F 
HETATM   27  F   UNL     1      38.211 -10.570   9.830  1.00  0.00    -0.169 F 
HETATM   28  F   UNL     1      38.478 -12.520   8.923  1.00  0.00    -0.169 F 
ENDBRANCH   8  25
BRANCH   1  29
HETATM   29  C   UNL     1      41.978  -9.339   9.814  1.00  0.00    -0.035 A 
HETATM   30  C   UNL     1      41.234  -8.617  10.763  1.00  0.00     0.010 A 
HETATM   31  C   UNL     1      41.568  -8.653  12.121  1.00  0.00     0.007 A 
HETATM   32  C   UNL     1      42.656  -9.408  12.564  1.00  0.00    -0.062 A 
HETATM   33  C   UNL     1      43.014  -9.470  14.018  1.00  0.00     0.048 C 
HETATM   34  C   UNL     1      43.392 -10.143  11.630  1.00  0.00     0.007 A 
HETATM   35  C   UNL     1      43.061 -10.101  10.272  1.00  0.00     0.010 A 
ENDBRANCH   1  29
TORSDOF 6
ENDMDL
MODEL 10
REMARK VINA RESULT:      -7.8      8.433     12.168
REMARK  6 active torsions:
REMARK  status: ('A' for Active; 'I' for Inactive)
REMARK    1  A    between atoms: C_5  and  C_6 
REMARK    2  A    between atoms: C_11  and  C_12 
REMARK       I    between atoms: C_12  and  N_13 
REMARK    3  A    between atoms: N_13  and  C_14 
REMARK    4  A    between atoms: C_17  and  C_18 
REMARK    5  A    between atoms: C_18  and  O_19 
REMARK    6  A    between atoms: C_25  and  C_26 
ROOT
HETATM    1  C   UNL     1      43.190  -8.826  11.004  1.00  0.00     0.118 C 
HETATM    2  N   UNL     1      44.230  -9.775  10.629  1.00  0.00    -0.366 N 
HETATM    3  C   UNL     1      44.039 -10.741   9.709  1.00  0.00     0.123 A 
HETATM    4  N   UNL     1      42.872 -10.854   9.009  1.00  0.00    -0.240 N 
HETATM    5  N   UNL     1      42.890 -11.819   8.066  1.00  0.00    -0.165 NA
HETATM    6  C   UNL     1      44.098 -12.404   8.242  1.00  0.00     0.148 A 
HETATM    7  C   UNL     1      44.845 -11.753   9.262  1.00  0.00     0.089 A 
HETATM    8  C   UNL     1      41.724  -9.990   9.201  1.00  0.00     0.221 C 
HETATM    9  C   UNL     1      42.145  -8.674   9.883  1.00  0.00     0.066 C 
HETATM   10  H   UNL     1      45.055  -9.774  11.227  1.00  0.00     0.161 HD
ENDROOT
BRANCH   6  11
HETATM   11  C   UNL     1      44.548 -13.556   7.438  1.00  0.00     0.276 C 
HETATM   12  N   UNL     1      43.542 -14.486   7.253  1.00  0.00    -0.322 N 
HETATM   13  H   UNL     1      42.663 -14.225   7.691  1.00  0.00     0.169 HD
HETATM   14  O   UNL     1      45.693 -13.616   7.005  1.00  0.00    -0.266 OA
BRANCH  12  15
HETATM   15  C   UNL     1      43.596 -15.691   6.531  1.00  0.00     0.035 A 
HETATM   16  C   UNL     1      42.745 -15.998   5.470  1.00  0.00     0.030 A 
HETATM   17  C   UNL     1      42.851 -17.228   4.807  1.00  0.00     0.012 A 
HETATM   18  C   UNL     1      43.811 -18.173   5.189  1.00  0.00    -0.030 A 
HETATM   19  C   UNL     1      44.665 -17.859   6.254  1.00  0.00     0.012 A 
HETATM   20  C   UNL     1      44.561 -16.627   6.913  1.00  0.00     0.030 A 
BRANCH  18  21
HETATM   21  C   UNL     1      43.899 -19.520   4.508  1.00  0.00     0.147 C 
HETATM   22  C   UNL     1      44.335 -19.380   3.054  1.00  0.00     0.044 C 
BRANCH  21  23
HETATM   23  O   UNL     1      44.828 -20.352   5.200  1.00  0.00    -0.391 OA
HETATM   24  H   UNL     1      44.446 -21.244   5.231  1.00  0.00     0.210 HD
ENDBRANCH  21  23
ENDBRANCH  18  21
ENDBRANCH  12  15
ENDBRANCH   6  11
BRANCH   8  25
HETATM   25  C   UNL     1      40.626 -10.733   9.927  1.00  0.00     0.409 C 
HETATM   26  F   UNL     1      39.851 -11.486   9.127  1.00  0.00    -0.169 F 
HETATM   27  F   UNL     1      41.161 -11.558  10.864  1.00  0.00    -0.169 F 
HETATM   28  F   UNL     1      39.809  -9.885  10.597  1.00  0.00    -0.169 F 
ENDBRANCH   8  25
BRANCH   1  29
HETATM   29  C   UNL     1      42.623  -9.095  12.386  1.00  0.00    -0.035 A 
HETATM   30  C   UNL     1      41.621  -8.248  12.891  1.00  0.00     0.010 A 
HETATM   31  C   UNL     1      41.100  -8.431  14.176  1.00  0.00     0.007 A 
HETATM   32  C   UNL     1      41.571  -9.463  14.992  1.00  0.00    -0.062 A 
HETATM   33  C   UNL     1      41.009  -9.682  16.364  1.00  0.00     0.048 C 
HETATM   34  C   UNL     1      42.554 -10.321  14.493  1.00  0.00     0.007 A 
HETATM   35  C   UNL     1      43.079 -10.134  13.210  1.00  0.00     0.010 A 
ENDBRANCH   1  29
TORSDOF 6
ENDMDL
