MODEL 1
REMARK VINA RESULT:      -7.5      0.000      0.000
REMARK  6 active torsions:
REMARK  status: ('A' for Active; 'I' for Inactive)
REMARK    1  A    between atoms: C_2  and  C_3 
REMARK    2  A    between atoms: C_7  and  O_8 
REMARK    3  A    between atoms: O_8  and  C_9 
REMARK    4  A    between atoms: C_9  and  C_10 
REMARK       I    between atoms: C_10  and  N_11 
REMARK    5  A    between atoms: N_11  and  N_12 
REMARK    6  A    between atoms: C_13  and  C_14 
ROOT
HETATM    1  C   UNL     1      39.905 -15.009   1.592  1.00  0.00     0.261 C 
HETATM    2  N   UNL     1      39.190 -14.293   2.538  1.00  0.00    -0.246 N 
HETATM    3  O   UNL     1      40.471 -14.527   0.611  1.00  0.00    -0.269 OA
HETATM    4  H   UNL     1      38.707 -14.790   3.279  1.00  0.00     0.192 HD
ENDROOT
BRANCH   1   5
HETATM    5  C   UNL     1      39.872 -16.517   1.821  1.00  0.00     0.280 C 
BRANCH   5   6
HETATM    6  O   UNL     1      41.173 -17.097   1.739  1.00  0.00    -0.341 OA
BRANCH   6   7
HETATM    7  C   UNL     1      41.766 -17.348   2.951  1.00  0.00     0.086 A 
HETATM    8  C   UNL     1      43.146 -17.563   2.981  1.00  0.00     0.044 A 
HETATM    9  C   UNL     1      43.804 -17.807   4.196  1.00  0.00     0.029 A 
HETATM   10 BR   UNL     1      44.183 -17.558   1.390  1.00  0.00    -0.048 Br
HETATM   11  C   UNL     1      43.107 -17.817   5.420  1.00  0.00    -0.049 A 
HETATM   12  C   UNL     1      41.724 -17.581   5.371  1.00  0.00     0.011 A 
HETATM   13  C   UNL     1      41.063 -17.345   4.156  1.00  0.00     0.039 A 
BRANCH  11  14
HETATM   14  C   UNL     1      43.857 -18.078   6.739  1.00  0.00    -0.024 C 
HETATM   15  C   UNL     1      43.695 -19.558   7.153  1.00  0.00     0.019 C 
HETATM   16  C   UNL     1      43.278 -17.175   7.848  1.00  0.00     0.019 C 
HETATM   17  C   UNL     1      45.375 -17.796   6.661  1.00  0.00     0.019 C 
ENDBRANCH  11  14
ENDBRANCH   6   7
ENDBRANCH   5   6
ENDBRANCH   1   5
BRANCH   2  18
HETATM   18  N   UNL     1      39.034 -12.949   2.395  1.00  0.00    -0.184 NA
HETATM   19  C   UNL     1      39.495 -12.127   3.287  1.00  0.00     0.152 C 
BRANCH  19  20
HETATM   20  C   UNL     1      40.287 -12.432   4.464  1.00  0.00     0.011 A 
HETATM   21  C   UNL     1      41.595 -13.021   4.462  1.00  0.00     0.004 A 
HETATM   22  C   UNL     1      41.980 -13.203   5.790  1.00  0.00     0.043 A 
HETATM   23  C   UNL     1      42.492 -13.416   3.445  1.00  0.00     0.014 A 
HETATM   24  C   UNL     1      43.212 -13.762   6.153  1.00  0.00     0.030 A 
HETATM   25  N   UNL     1      40.945 -12.755   6.576  1.00  0.00    -0.364 N 
HETATM   26  C   UNL     1      44.079 -14.146   5.126  1.00  0.00     0.002 A 
HETATM   27  C   UNL     1      43.727 -13.977   3.790  1.00  0.00     0.001 A 
HETATM   28  H   UNL     1      40.938 -12.784   7.586  1.00  0.00     0.165 HD
HETATM   29  C   UNL     1      39.913 -12.312   5.790  1.00  0.00     0.102 A 
ENDBRANCH  19  20
ENDBRANCH   2  18
TORSDOF 6
ENDMDL
MODEL 2
REMARK VINA RESULT:      -7.3      5.064      7.001
REMARK  6 active torsions:
REMARK  status: ('A' for Active; 'I' for Inactive)
REMARK    1  A    between atoms: C_2  and  C_3 
REMARK    2  A    between atoms: C_7  and  O_8 
REMARK    3  A    between atoms: O_8  and  C_9 
REMARK    4  A    between atoms: C_9  and  C_10 
REMARK       I    between atoms: C_10  and  N_11 
REMARK    5  A    between atoms: N_11  and  N_12 
REMARK    6  A    between atoms: C_13  and  C_14 
ROOT
HETATM    1  C   UNL     1      45.009 -13.267   7.767  1.00  0.00     0.261 C 
HETATM    2  N   UNL     1      44.555 -13.022   9.053  1.00  0.00    -0.246 N 
HETATM    3  O   UNL     1      46.164 -13.101   7.375  1.00  0.00    -0.269 OA
HETATM    4  H   UNL     1      43.568 -13.132   9.262  1.00  0.00     0.192 HD
ENDROOT
BRANCH   1   5
HETATM    5  C   UNL     1      43.905 -13.700   6.808  1.00  0.00     0.280 C 
BRANCH   5   6
HETATM    6  O   UNL     1      43.600 -15.089   6.939  1.00  0.00    -0.341 OA
BRANCH   6   7
HETATM    7  C   UNL     1      43.471 -15.760   5.749  1.00  0.00     0.086 A 
HETATM    8  C   UNL     1      43.476 -17.158   5.773  1.00  0.00     0.044 A 
HETATM    9  C   UNL     1      43.330 -17.892   4.587  1.00  0.00     0.029 A 
HETATM   10 BR   UNL     1      43.698 -18.118   7.396  1.00  0.00    -0.048 Br
HETATM   11  C   UNL     1      43.151 -17.254   3.344  1.00  0.00    -0.049 A 
HETATM   12  C   UNL     1      43.131 -15.851   3.343  1.00  0.00     0.011 A 
HETATM   13  C   UNL     1      43.284 -15.114   4.527  1.00  0.00     0.039 A 
BRANCH  11  14
HETATM   14  C   UNL     1      42.985 -18.087   2.059  1.00  0.00    -0.024 C 
HETATM   15  C   UNL     1      43.958 -17.579   0.973  1.00  0.00     0.019 C 
HETATM   16  C   UNL     1      41.536 -17.954   1.545  1.00  0.00     0.019 C 
HETATM   17  C   UNL     1      43.270 -19.594   2.251  1.00  0.00     0.019 C 
ENDBRANCH  11  14
ENDBRANCH   6   7
ENDBRANCH   5   6
ENDBRANCH   1   5
BRANCH   2  18
HETATM   18  N   UNL     1      45.405 -12.516   9.986  1.00  0.00    -0.184 NA
HETATM   19  C   UNL     1      45.109 -11.433  10.639  1.00  0.00     0.152 C 
BRANCH  19  20
HETATM   20  C   UNL     1      43.881 -10.662  10.588  1.00  0.00     0.011 A 
HETATM   21  C   UNL     1      43.276  -9.980  11.696  1.00  0.00     0.004 A 
HETATM   22  C   UNL     1      42.084  -9.413  11.245  1.00  0.00     0.043 A 
HETATM   23  C   UNL     1      43.639  -9.789  13.048  1.00  0.00     0.014 A 
HETATM   24  C   UNL     1      41.235  -8.671  12.075  1.00  0.00     0.030 A 
HETATM   25  N   UNL     1      41.956  -9.746   9.917  1.00  0.00    -0.364 N 
HETATM   26  C   UNL     1      41.617  -8.500  13.409  1.00  0.00     0.002 A 
HETATM   27  C   UNL     1      42.801  -9.050  13.891  1.00  0.00     0.001 A 
HETATM   28  H   UNL     1      41.171  -9.485   9.334  1.00  0.00     0.165 HD
HETATM   29  C   UNL     1      43.017 -10.515   9.518  1.00  0.00     0.102 A 
ENDBRANCH  19  20
ENDBRANCH   2  18
TORSDOF 6
ENDMDL
MODEL 3
REMARK VINA RESULT:      -7.2      3.476      6.992
REMARK  6 active torsions:
REMARK  status: ('A' for Active; 'I' for Inactive)
REMARK    1  A    between atoms: C_2  and  C_3 
REMARK    2  A    between atoms: C_7  and  O_8 
REMARK    3  A    between atoms: O_8  and  C_9 
REMARK    4  A    between atoms: C_9  and  C_10 
REMARK       I    between atoms: C_10  and  N_11 
REMARK    5  A    between atoms: N_11  and  N_12 
REMARK    6  A    between atoms: C_13  and  C_14 
ROOT
HETATM    1  C   UNL     1      43.484 -16.284   6.823  1.00  0.00     0.261 C 
HETATM    2  N   UNL     1      44.385 -17.324   6.987  1.00  0.00    -0.246 N 
HETATM    3  O   UNL     1      42.289 -16.323   7.116  1.00  0.00    -0.269 OA
HETATM    4  H   UNL     1      45.338 -17.214   6.656  1.00  0.00     0.192 HD
ENDROOT
BRANCH   1   5
HETATM    5  C   UNL     1      44.091 -15.059   6.146  1.00  0.00     0.280 C 
BRANCH   5   6
HETATM    6  O   UNL     1      43.104 -14.073   5.846  1.00  0.00    -0.341 OA
BRANCH   6   7
HETATM    7  C   UNL     1      42.602 -14.136   4.569  1.00  0.00     0.086 A 
HETATM    8  C   UNL     1      41.227 -13.967   4.388  1.00  0.00     0.044 A 
HETATM    9  C   UNL     1      40.666 -14.006   3.104  1.00  0.00     0.029 A 
HETATM   10 BR   UNL     1      40.061 -13.700   5.864  1.00  0.00    -0.048 Br
HETATM   11  C   UNL     1      41.465 -14.190   1.958  1.00  0.00    -0.049 A 
HETATM   12  C   UNL     1      42.845 -14.340   2.159  1.00  0.00     0.011 A 
HETATM   13  C   UNL     1      43.408 -14.309   3.444  1.00  0.00     0.039 A 
BRANCH  11  14
HETATM   14  C   UNL     1      40.822 -14.220   0.559  1.00  0.00    -0.024 C 
HETATM   15  C   UNL     1      41.109 -12.895  -0.181  1.00  0.00     0.019 C 
HETATM   16  C   UNL     1      39.297 -14.403   0.698  1.00  0.00     0.019 C 
HETATM   17  C   UNL     1      41.343 -15.362  -0.344  1.00  0.00     0.019 C 
ENDBRANCH  11  14
ENDBRANCH   6   7
ENDBRANCH   5   6
ENDBRANCH   1   5
BRANCH   2  18
HETATM   18  N   UNL     1      43.956 -18.521   7.468  1.00  0.00    -0.184 NA
HETATM   19  C   UNL     1      43.799 -19.539   6.677  1.00  0.00     0.152 C 
BRANCH  19  20
HETATM   20  C   UNL     1      44.113 -19.634   5.263  1.00  0.00     0.011 A 
HETATM   21  C   UNL     1      43.378 -19.010   4.201  1.00  0.00     0.004 A 
HETATM   22  C   UNL     1      43.966 -19.396   2.996  1.00  0.00     0.043 A 
HETATM   23  C   UNL     1      42.263 -18.145   4.154  1.00  0.00     0.014 A 
HETATM   24  C   UNL     1      43.494 -18.966   1.749  1.00  0.00     0.030 A 
HETATM   25  N   UNL     1      45.011 -20.234   3.307  1.00  0.00    -0.364 N 
HETATM   26  C   UNL     1      42.387 -18.113   1.733  1.00  0.00     0.002 A 
HETATM   27  C   UNL     1      41.779 -17.706   2.916  1.00  0.00     0.001 A 
HETATM   28  H   UNL     1      45.606 -20.685   2.625  1.00  0.00     0.165 HD
HETATM   29  C   UNL     1      45.094 -20.403   4.664  1.00  0.00     0.102 A 
ENDBRANCH  19  20
ENDBRANCH   2  18
TORSDOF 6
ENDMDL
MODEL 4
REMARK VINA RESULT:      -7.1      5.574      8.121
REMARK  6 active torsions:
REMARK  status: ('A' for Active; 'I' for Inactive)
REMARK    1  A    between atoms: C_2  and  C_3 
REMARK    2  A    between atoms: C_7  and  O_8 
REMARK    3  A    between atoms: O_8  and  C_9 
REMARK    4  A    between atoms: C_9  and  C_10 
REMARK       I    between atoms: C_10  and  N_11 
REMARK    5  A    between atoms: N_11  and  N_12 
REMARK    6  A    between atoms: C_13  and  C_14 
ROOT
HETATM    1  C   UNL     1      44.961 -13.695   7.440  1.00  0.00     0.261 C 
HETATM    2  N   UNL     1      44.187 -14.844   7.432  1.00  0.00    -0.246 N 
HETATM    3  O   UNL     1      45.772 -13.376   6.571  1.00  0.00    -0.269 OA
HETATM    4  H   UNL     1      43.591 -15.048   8.227  1.00  0.00     0.192 HD
ENDROOT
BRANCH   1   5
HETATM    5  C   UNL     1      44.785 -12.856   8.701  1.00  0.00     0.280 C 
BRANCH   5   6
HETATM    6  O   UNL     1      44.055 -11.656   8.446  1.00  0.00    -0.341 OA
BRANCH   6   7
HETATM    7  C   UNL     1      43.675 -10.967   9.570  1.00  0.00     0.086 A 
HETATM    8  C   UNL     1      42.467 -10.264   9.540  1.00  0.00     0.044 A 
HETATM    9  C   UNL     1      42.025  -9.558  10.668  1.00  0.00     0.029 A 
HETATM   10 BR   UNL     1      41.390 -10.216   7.977  1.00  0.00    -0.048 Br
HETATM   11  C   UNL     1      42.762  -9.552  11.868  1.00  0.00    -0.049 A 
HETATM   12  C   UNL     1      43.963 -10.279  11.884  1.00  0.00     0.011 A 
HETATM   13  C   UNL     1      44.411 -10.980  10.755  1.00  0.00     0.039 A 
BRANCH  11  14
HETATM   14  C   UNL     1      42.247  -8.775  13.094  1.00  0.00    -0.024 C 
HETATM   15  C   UNL     1      40.717  -8.945  13.220  1.00  0.00     0.019 C 
HETATM   16  C   UNL     1      42.579  -7.277  12.929  1.00  0.00     0.019 C 
HETATM   17  C   UNL     1      42.865  -9.239  14.433  1.00  0.00     0.019 C 
ENDBRANCH  11  14
ENDBRANCH   6   7
ENDBRANCH   5   6
ENDBRANCH   1   5
BRANCH   2  18
HETATM   18  N   UNL     1      44.327 -15.748   6.425  1.00  0.00    -0.184 NA
HETATM   19  C   UNL     1      43.318 -16.068   5.674  1.00  0.00     0.152 C 
BRANCH  19  20
HETATM   20  C   UNL     1      41.978 -15.511   5.683  1.00  0.00     0.011 A 
HETATM   21  C   UNL     1      41.625 -14.178   5.284  1.00  0.00     0.004 A 
HETATM   22  C   UNL     1      40.256 -14.021   5.499  1.00  0.00     0.043 A 
HETATM   23  C   UNL     1      42.349 -13.088   4.752  1.00  0.00     0.014 A 
HETATM   24  C   UNL     1      39.575 -12.830   5.215  1.00  0.00     0.030 A 
HETATM   25  N   UNL     1      39.790 -15.204   6.022  1.00  0.00    -0.364 N 
HETATM   26  C   UNL     1      40.317 -11.766   4.693  1.00  0.00     0.002 A 
HETATM   27  C   UNL     1      41.684 -11.891   4.464  1.00  0.00     0.001 A 
HETATM   28  H   UNL     1      38.831 -15.371   6.296  1.00  0.00     0.165 HD
HETATM   29  C   UNL     1      40.820 -16.098   6.160  1.00  0.00     0.102 A 
ENDBRANCH  19  20
ENDBRANCH   2  18
TORSDOF 6
ENDMDL
MODEL 5
REMARK VINA RESULT:      -7.1      3.318      6.672
REMARK  6 active torsions:
REMARK  status: ('A' for Active; 'I' for Inactive)
REMARK    1  A    between atoms: C_2  and  C_3 
REMARK    2  A    between atoms: C_7  and  O_8 
REMARK    3  A    between atoms: O_8  and  C_9 
REMARK    4  A    between atoms: C_9  and  C_10 
REMARK       I    between atoms: C_10  and  N_11 
REMARK    5  A    between atoms: N_11  and  N_12 
REMARK    6  A    between atoms: C_13  and  C_14 
ROOT
HETATM    1  C   UNL     1      44.317 -15.892   7.070  1.00  0.00     0.261 C 
HETATM    2  N   UNL     1      44.667 -16.895   6.179  1.00  0.00    -0.246 N 
HETATM    3  O   UNL     1      43.727 -16.060   8.137  1.00  0.00    -0.269 OA
HETATM    4  H   UNL     1      45.098 -16.647   5.295  1.00  0.00     0.192 HD
ENDROOT
BRANCH   1   5
HETATM    5  C   UNL     1      44.662 -14.492   6.570  1.00  0.00     0.280 C 
BRANCH   5   6
HETATM    6  O   UNL     1      43.514 -13.646   6.525  1.00  0.00    -0.341 OA
BRANCH   6   7
HETATM    7  C   UNL     1      42.990 -13.459   5.270  1.00  0.00     0.086 A 
HETATM    8  C   UNL     1      41.945 -12.544   5.117  1.00  0.00     0.044 A 
HETATM    9  C   UNL     1      41.386 -12.305   3.853  1.00  0.00     0.029 A 
HETATM   10 BR   UNL     1      41.226 -11.607   6.604  1.00  0.00    -0.048 Br
HETATM   11  C   UNL     1      41.870 -12.953   2.700  1.00  0.00    -0.049 A 
HETATM   12  C   UNL     1      42.931 -13.854   2.871  1.00  0.00     0.011 A 
HETATM   13  C   UNL     1      43.487 -14.101   4.136  1.00  0.00     0.039 A 
BRANCH  11  14
HETATM   14  C   UNL     1      41.242 -12.663   1.324  1.00  0.00    -0.024 C 
HETATM   15  C   UNL     1      42.045 -13.380   0.217  1.00  0.00     0.019 C 
HETATM   16  C   UNL     1      41.259 -11.143   1.061  1.00  0.00     0.019 C 
HETATM   17  C   UNL     1      39.775 -13.136   1.195  1.00  0.00     0.019 C 
ENDBRANCH  11  14
ENDBRANCH   6   7
ENDBRANCH   5   6
ENDBRANCH   1   5
BRANCH   2  18
HETATM   18  N   UNL     1      44.314 -18.183   6.438  1.00  0.00    -0.184 NA
HETATM   19  C   UNL     1      43.261 -18.707   5.889  1.00  0.00     0.152 C 
BRANCH  19  20
HETATM   20  C   UNL     1      42.377 -18.119   4.900  1.00  0.00     0.011 A 
HETATM   21  C   UNL     1      42.703 -17.883   3.523  1.00  0.00     0.004 A 
HETATM   22  C   UNL     1      41.609 -17.252   2.931  1.00  0.00     0.043 A 
HETATM   23  C   UNL     1      43.834 -18.153   2.721  1.00  0.00     0.014 A 
HETATM   24  C   UNL     1      41.589 -16.874   1.582  1.00  0.00     0.030 A 
HETATM   25  N   UNL     1      40.655 -17.095   3.909  1.00  0.00    -0.364 N 
HETATM   26  C   UNL     1      42.723 -17.151   0.813  1.00  0.00     0.002 A 
HETATM   27  C   UNL     1      43.831 -17.782   1.372  1.00  0.00     0.001 A 
HETATM   28  H   UNL     1      39.760 -16.646   3.769  1.00  0.00     0.165 HD
HETATM   29  C   UNL     1      41.115 -17.590   5.101  1.00  0.00     0.102 A 
ENDBRANCH  19  20
ENDBRANCH   2  18
TORSDOF 6
ENDMDL
MODEL 6
REMARK VINA RESULT:      -6.9      3.439      5.838
REMARK  6 active torsions:
REMARK  status: ('A' for Active; 'I' for Inactive)
REMARK    1  A    between atoms: C_2  and  C_3 
REMARK    2  A    between atoms: C_7  and  O_8 
REMARK    3  A    between atoms: O_8  and  C_9 
REMARK    4  A    between atoms: C_9  and  C_10 
REMARK       I    between atoms: C_10  and  N_11 
REMARK    5  A    between atoms: N_11  and  N_12 
REMARK    6  A    between atoms: C_13  and  C_14 
ROOT
HETATM    1  C   UNL     1      41.002 -14.101   1.986  1.00  0.00     0.261 C 
HETATM    2  N   UNL     1      40.972 -14.302   0.615  1.00  0.00    -0.246 N 
HETATM    3  O   UNL     1      41.641 -13.222   2.565  1.00  0.00    -0.269 OA
HETATM    4  H   UNL     1      40.462 -15.094   0.239  1.00  0.00     0.192 HD
ENDROOT
BRANCH   1   5
HETATM    5  C   UNL     1      40.213 -15.147   2.768  1.00  0.00     0.280 C 
BRANCH   5   6
HETATM    6  O   UNL     1      40.530 -16.474   2.351  1.00  0.00    -0.341 OA
BRANCH   6   7
HETATM    7  C   UNL     1      41.393 -17.144   3.182  1.00  0.00     0.086 A 
HETATM    8  C   UNL     1      42.616 -17.574   2.660  1.00  0.00     0.044 A 
HETATM    9  C   UNL     1      43.541 -18.248   3.471  1.00  0.00     0.029 A 
HETATM   10 BR   UNL     1      43.069 -17.287   0.838  1.00  0.00    -0.048 Br
HETATM   11  C   UNL     1      43.283 -18.491   4.835  1.00  0.00    -0.049 A 
HETATM   12  C   UNL     1      42.058 -18.036   5.344  1.00  0.00     0.011 A 
HETATM   13  C   UNL     1      41.128 -17.368   4.533  1.00  0.00     0.039 A 
BRANCH  11  14
HETATM   14  C   UNL     1      44.322 -19.225   5.703  1.00  0.00    -0.024 C 
HETATM   15  C   UNL     1      45.280 -18.204   6.354  1.00  0.00     0.019 C 
HETATM   16  C   UNL     1      45.136 -20.194   4.821  1.00  0.00     0.019 C 
HETATM   17  C   UNL     1      43.701 -20.056   6.850  1.00  0.00     0.019 C 
ENDBRANCH  11  14
ENDBRANCH   6   7
ENDBRANCH   5   6
ENDBRANCH   1   5
BRANCH   2  18
HETATM   18  N   UNL     1      41.726 -13.517  -0.200  1.00  0.00    -0.184 NA
HETATM   19  C   UNL     1      41.658 -13.640  -1.491  1.00  0.00     0.152 C 
BRANCH  19  20
HETATM   20  C   UNL     1      40.774 -14.491  -2.266  1.00  0.00     0.011 A 
HETATM   21  C   UNL     1      39.490 -14.111  -2.781  1.00  0.00     0.004 A 
HETATM   22  C   UNL     1      38.941 -15.227  -3.413  1.00  0.00     0.043 A 
HETATM   23  C   UNL     1      38.742 -12.913  -2.770  1.00  0.00     0.014 A 
HETATM   24  C   UNL     1      37.683 -15.208  -4.029  1.00  0.00     0.030 A 
HETATM   25  N   UNL     1      39.846 -16.254  -3.279  1.00  0.00    -0.364 N 
HETATM   26  C   UNL     1      36.964 -14.010  -4.000  1.00  0.00     0.002 A 
HETATM   27  C   UNL     1      37.483 -12.877  -3.381  1.00  0.00     0.001 A 
HETATM   28  H   UNL     1      39.703 -17.193  -3.625  1.00  0.00     0.165 HD
HETATM   29  C   UNL     1      40.940 -15.829  -2.572  1.00  0.00     0.102 A 
ENDBRANCH  19  20
ENDBRANCH   2  18
TORSDOF 6
ENDMDL
MODEL 7
REMARK VINA RESULT:      -6.9      3.981      5.172
REMARK  6 active torsions:
REMARK  status: ('A' for Active; 'I' for Inactive)
REMARK    1  A    between atoms: C_2  and  C_3 
REMARK    2  A    between atoms: C_7  and  O_8 
REMARK    3  A    between atoms: O_8  and  C_9 
REMARK    4  A    between atoms: C_9  and  C_10 
REMARK       I    between atoms: C_10  and  N_11 
REMARK    5  A    between atoms: N_11  and  N_12 
REMARK    6  A    between atoms: C_13  and  C_14 
ROOT
HETATM    1  C   UNL     1      39.538 -12.595   5.988  1.00  0.00     0.261 C 
HETATM    2  N   UNL     1      39.809 -12.496   7.344  1.00  0.00    -0.246 N 
HETATM    3  O   UNL     1      38.592 -12.062   5.409  1.00  0.00    -0.269 OA
HETATM    4  H   UNL     1      40.580 -13.025   7.738  1.00  0.00     0.192 HD
ENDROOT
BRANCH   1   5
HETATM    5  C   UNL     1      40.497 -13.521   5.246  1.00  0.00     0.280 C 
BRANCH   5   6
HETATM    6  O   UNL     1      39.999 -14.857   5.176  1.00  0.00    -0.341 OA
BRANCH   6   7
HETATM    7  C   UNL     1      40.954 -15.832   5.325  1.00  0.00     0.086 A 
HETATM    8  C   UNL     1      41.359 -16.541   4.191  1.00  0.00     0.044 A 
HETATM    9  C   UNL     1      42.344 -17.536   4.286  1.00  0.00     0.029 A 
HETATM   10 BR   UNL     1      40.586 -16.209   2.488  1.00  0.00    -0.048 Br
HETATM   11  C   UNL     1      42.972 -17.835   5.511  1.00  0.00    -0.049 A 
HETATM   12  C   UNL     1      42.564 -17.100   6.634  1.00  0.00     0.011 A 
HETATM   13  C   UNL     1      41.574 -16.109   6.543  1.00  0.00     0.039 A 
BRANCH  11  14
HETATM   14  C   UNL     1      44.056 -18.926   5.582  1.00  0.00    -0.024 C 
HETATM   15  C   UNL     1      45.376 -18.323   6.110  1.00  0.00     0.019 C 
HETATM   16  C   UNL     1      44.292 -19.509   4.174  1.00  0.00     0.019 C 
HETATM   17  C   UNL     1      43.694 -20.105   6.515  1.00  0.00     0.019 C 
ENDBRANCH  11  14
ENDBRANCH   6   7
ENDBRANCH   5   6
ENDBRANCH   1   5
BRANCH   2  18
HETATM   18  N   UNL     1      38.967 -11.799   8.153  1.00  0.00    -0.184 NA
HETATM   19  C   UNL     1      39.425 -11.102   9.148  1.00  0.00     0.152 C 
BRANCH  19  20
HETATM   20  C   UNL     1      40.809 -10.862   9.513  1.00  0.00     0.011 A 
HETATM   21  C   UNL     1      41.327 -10.836  10.851  1.00  0.00     0.004 A 
HETATM   22  C   UNL     1      42.682 -10.514  10.775  1.00  0.00     0.043 A 
HETATM   23  C   UNL     1      40.764 -11.062  12.127  1.00  0.00     0.014 A 
HETATM   24  C   UNL     1      43.500 -10.403  11.905  1.00  0.00     0.030 A 
HETATM   25  N   UNL     1      42.980 -10.336   9.444  1.00  0.00    -0.364 N 
HETATM   26  C   UNL     1      42.916 -10.628  13.155  1.00  0.00     0.002 A 
HETATM   27  C   UNL     1      41.568 -10.954  13.267  1.00  0.00     0.001 A 
HETATM   28  H   UNL     1      43.891 -10.075   9.091  1.00  0.00     0.165 HD
HETATM   29  C   UNL     1      41.857 -10.519   8.680  1.00  0.00     0.102 A 
ENDBRANCH  19  20
ENDBRANCH   2  18
TORSDOF 6
ENDMDL
MODEL 8
REMARK VINA RESULT:      -6.8      3.628      7.486
REMARK  6 active torsions:
REMARK  status: ('A' for Active; 'I' for Inactive)
REMARK    1  A    between atoms: C_2  and  C_3 
REMARK    2  A    between atoms: C_7  and  O_8 
REMARK    3  A    between atoms: O_8  and  C_9 
REMARK    4  A    between atoms: C_9  and  C_10 
REMARK       I    between atoms: C_10  and  N_11 
REMARK    5  A    between atoms: N_11  and  N_12 
REMARK    6  A    between atoms: C_13  and  C_14 
ROOT
HETATM    1  C   UNL     1      43.082 -14.820   5.083  1.00  0.00     0.261 C 
HETATM    2  N   UNL     1      42.959 -16.180   5.317  1.00  0.00    -0.246 N 
HETATM    3  O   UNL     1      43.970 -14.096   5.533  1.00  0.00    -0.269 OA
HETATM    4  H   UNL     1      42.155 -16.678   4.950  1.00  0.00     0.192 HD
ENDROOT
BRANCH   1   5
HETATM    5  C   UNL     1      41.939 -14.243   4.254  1.00  0.00     0.280 C 
BRANCH   5   6
HETATM    6  O   UNL     1      41.458 -15.177   3.287  1.00  0.00    -0.341 OA
BRANCH   6   7
HETATM    7  C   UNL     1      41.511 -14.734   1.989  1.00  0.00     0.086 A 
HETATM    8  C   UNL     1      41.259 -15.651   0.965  1.00  0.00     0.044 A 
HETATM    9  C   UNL     1      41.284 -15.246  -0.378  1.00  0.00     0.029 A 
HETATM   10 BR   UNL     1      40.895 -17.477   1.341  1.00  0.00    -0.048 Br
HETATM   11  C   UNL     1      41.536 -13.908  -0.738  1.00  0.00    -0.049 A 
HETATM   12  C   UNL     1      41.769 -12.999   0.305  1.00  0.00     0.011 A 
HETATM   13  C   UNL     1      41.752 -13.403   1.649  1.00  0.00     0.039 A 
BRANCH  11  14
HETATM   14  C   UNL     1      41.548 -13.491  -2.220  1.00  0.00    -0.024 C 
HETATM   15  C   UNL     1      40.416 -12.476  -2.491  1.00  0.00     0.019 C 
HETATM   16  C   UNL     1      41.336 -14.736  -3.106  1.00  0.00     0.019 C 
HETATM   17  C   UNL     1      42.869 -12.824  -2.671  1.00  0.00     0.019 C 
ENDBRANCH  11  14
ENDBRANCH   6   7
ENDBRANCH   5   6
ENDBRANCH   1   5
BRANCH   2  18
HETATM   18  N   UNL     1      43.842 -16.807   6.140  1.00  0.00    -0.184 NA
HETATM   19  C   UNL     1      44.393 -17.930   5.791  1.00  0.00     0.152 C 
BRANCH  19  20
HETATM   20  C   UNL     1      44.274 -18.635   4.529  1.00  0.00     0.011 A 
HETATM   21  C   UNL     1      44.434 -20.049   4.343  1.00  0.00     0.004 A 
HETATM   22  C   UNL     1      44.300 -20.315   2.980  1.00  0.00     0.043 A 
HETATM   23  C   UNL     1      44.679 -21.132   5.216  1.00  0.00     0.014 A 
HETATM   24  C   UNL     1      44.403 -21.606   2.446  1.00  0.00     0.030 A 
HETATM   25  N   UNL     1      44.080 -19.111   2.353  1.00  0.00    -0.364 N 
HETATM   26  C   UNL     1      44.648 -22.658   3.332  1.00  0.00     0.002 A 
HETATM   27  C   UNL     1      44.785 -22.428   4.698  1.00  0.00     0.001 A 
HETATM   28  H   UNL     1      43.966 -18.998   1.355  1.00  0.00     0.165 HD
HETATM   29  C   UNL     1      44.086 -18.093   3.270  1.00  0.00     0.102 A 
ENDBRANCH  19  20
ENDBRANCH   2  18
TORSDOF 6
ENDMDL
MODEL 9
REMARK VINA RESULT:      -6.8      3.900      5.232
REMARK  6 active torsions:
REMARK  status: ('A' for Active; 'I' for Inactive)
REMARK    1  A    between atoms: C_2  and  C_3 
REMARK    2  A    between atoms: C_7  and  O_8 
REMARK    3  A    between atoms: O_8  and  C_9 
REMARK    4  A    between atoms: C_9  and  C_10 
REMARK       I    between atoms: C_10  and  N_11 
REMARK    5  A    between atoms: N_11  and  N_12 
REMARK    6  A    between atoms: C_13  and  C_14 
ROOT
HETATM    1  C   UNL     1      40.663 -12.783   5.535  1.00  0.00     0.261 C 
HETATM    2  N   UNL     1      41.180 -12.227   6.694  1.00  0.00    -0.246 N 
HETATM    3  O   UNL     1      40.621 -12.230   4.436  1.00  0.00    -0.269 OA
HETATM    4  H   UNL     1      41.113 -12.741   7.566  1.00  0.00     0.192 HD
ENDROOT
BRANCH   1   5
HETATM    5  C   UNL     1      40.050 -14.163   5.748  1.00  0.00     0.280 C 
BRANCH   5   6
HETATM    6  O   UNL     1      40.998 -15.092   6.273  1.00  0.00    -0.341 OA
BRANCH   6   7
HETATM    7  C   UNL     1      41.578 -15.910   5.335  1.00  0.00     0.086 A 
HETATM    8  C   UNL     1      42.789 -16.529   5.654  1.00  0.00     0.044 A 
HETATM    9  C   UNL     1      43.415 -17.387   4.738  1.00  0.00     0.029 A 
HETATM   10 BR   UNL     1      43.646 -16.225   7.322  1.00  0.00    -0.048 Br
HETATM   11  C   UNL     1      42.838 -17.672   3.485  1.00  0.00    -0.049 A 
HETATM   12  C   UNL     1      41.613 -17.054   3.190  1.00  0.00     0.011 A 
HETATM   13  C   UNL     1      40.989 -16.189   4.102  1.00  0.00     0.039 A 
BRANCH  11  14
HETATM   14  C   UNL     1      43.544 -18.625   2.503  1.00  0.00    -0.024 C 
HETATM   15  C   UNL     1      44.591 -19.475   3.255  1.00  0.00     0.019 C 
HETATM   16  C   UNL     1      44.252 -17.801   1.407  1.00  0.00     0.019 C 
HETATM   17  C   UNL     1      42.588 -19.611   1.793  1.00  0.00     0.019 C 
ENDBRANCH  11  14
ENDBRANCH   6   7
ENDBRANCH   5   6
ENDBRANCH   1   5
BRANCH   2  18
HETATM   18  N   UNL     1      41.653 -10.952   6.681  1.00  0.00    -0.184 NA
HETATM   19  C   UNL     1      41.577 -10.203   7.739  1.00  0.00     0.152 C 
BRANCH  19  20
HETATM   20  C   UNL     1      41.107 -10.565   9.063  1.00  0.00     0.011 A 
HETATM   21  C   UNL     1      41.916 -10.637  10.246  1.00  0.00     0.004 A 
HETATM   22  C   UNL     1      41.102 -11.077  11.290  1.00  0.00     0.043 A 
HETATM   23  C   UNL     1      43.273 -10.363  10.525  1.00  0.00     0.014 A 
HETATM   24  C   UNL     1      41.575 -11.261  12.595  1.00  0.00     0.030 A 
HETATM   25  N   UNL     1      39.847 -11.279  10.765  1.00  0.00    -0.364 N 
HETATM   26  C   UNL     1      42.923 -10.985  12.843  1.00  0.00     0.002 A 
HETATM   27  C   UNL     1      43.762 -10.542  11.825  1.00  0.00     0.001 A 
HETATM   28  H   UNL     1      39.054 -11.620  11.292  1.00  0.00     0.165 HD
HETATM   29  C   UNL     1      39.844 -10.998   9.424  1.00  0.00     0.102 A 
ENDBRANCH  19  20
ENDBRANCH   2  18
TORSDOF 6
ENDMDL
MODEL 10
REMARK VINA RESULT:      -6.8      2.430      5.508
REMARK  6 active torsions:
REMARK  status: ('A' for Active; 'I' for Inactive)
REMARK    1  A    between atoms: C_2  and  C_3 
REMARK    2  A    between atoms: C_7  and  O_8 
REMARK    3  A    between atoms: O_8  and  C_9 
REMARK    4  A    between atoms: C_9  and  C_10 
REMARK       I    between atoms: C_10  and  N_11 
REMARK    5  A    between atoms: N_11  and  N_12 
REMARK    6  A    between atoms: C_13  and  C_14 
ROOT
HETATM    1  C   UNL     1      42.501 -17.854   1.550  1.00  0.00     0.261 C 
HETATM    2  N   UNL     1      42.480 -18.507   2.773  1.00  0.00    -0.246 N 
HETATM    3  O   UNL     1      43.516 -17.527   0.935  1.00  0.00    -0.269 OA
HETATM    4  H   UNL     1      41.590 -18.679   3.229  1.00  0.00     0.192 HD
ENDROOT
BRANCH   1   5
HETATM    5  C   UNL     1      41.113 -17.483   1.038  1.00  0.00     0.280 C 
BRANCH   5   6
HETATM    6  O   UNL     1      41.124 -16.252   0.315  1.00  0.00    -0.341 OA
BRANCH   6   7
HETATM    7  C   UNL     1      40.673 -15.168   1.024  1.00  0.00     0.086 A 
HETATM    8  C   UNL     1      40.855 -13.895   0.477  1.00  0.00     0.044 A 
HETATM    9  C   UNL     1      40.397 -12.755   1.153  1.00  0.00     0.029 A 
HETATM   10 BR   UNL     1      41.743 -13.651  -1.185  1.00  0.00    -0.048 Br
HETATM   11  C   UNL     1      39.721 -12.853   2.385  1.00  0.00    -0.049 A 
HETATM   12  C   UNL     1      39.532 -14.140   2.910  1.00  0.00     0.011 A 
HETATM   13  C   UNL     1      39.996 -15.282   2.238  1.00  0.00     0.039 A 
BRANCH  11  14
HETATM   14  C   UNL     1      39.221 -11.584   3.101  1.00  0.00    -0.024 C 
HETATM   15  C   UNL     1      38.927 -11.897   4.584  1.00  0.00     0.019 C 
HETATM   16  C   UNL     1      37.929 -11.086   2.421  1.00  0.00     0.019 C 
HETATM   17  C   UNL     1      40.234 -10.415   3.079  1.00  0.00     0.019 C 
ENDBRANCH  11  14
ENDBRANCH   6   7
ENDBRANCH   5   6
ENDBRANCH   1   5
BRANCH   2  18
HETATM   18  N   UNL     1      43.647 -18.794   3.408  1.00  0.00    -0.184 NA
HETATM   19  C   UNL     1      44.021 -18.119   4.451  1.00  0.00     0.152 C 
BRANCH  19  20
HETATM   20  C   UNL     1      43.294 -17.078   5.155  1.00  0.00     0.011 A 
HETATM   21  C   UNL     1      43.156 -15.717   4.723  1.00  0.00     0.004 A 
HETATM   22  C   UNL     1      42.440 -15.031   5.704  1.00  0.00     0.043 A 
HETATM   23  C   UNL     1      43.575 -15.003   3.578  1.00  0.00     0.014 A 
HETATM   24  C   UNL     1      42.126 -13.671   5.603  1.00  0.00     0.030 A 
HETATM   25  N   UNL     1      42.162 -15.933   6.704  1.00  0.00    -0.364 N 
HETATM   26  C   UNL     1      42.555 -12.988   4.461  1.00  0.00     0.002 A 
HETATM   27  C   UNL     1      43.269 -13.642   3.461  1.00  0.00     0.001 A 
HETATM   28  H   UNL     1      41.667 -15.708   7.557  1.00  0.00     0.165 HD
HETATM   29  C   UNL     1      42.690 -17.159   6.396  1.00  0.00     0.102 A 
ENDBRANCH  19  20
ENDBRANCH   2  18
TORSDOF 6
ENDMDL
