MODEL 1
REMARK VINA RESULT:      -9.2      0.000      0.000
REMARK  7 active torsions:
REMARK  status: ('A' for Active; 'I' for Inactive)
REMARK    1  A    between atoms: C_2  and  C_3 
REMARK    2  A    between atoms: C_3  and  N_4 
REMARK    3  A    between atoms: C_3  and  C_22 
REMARK       I    between atoms: N_4  and  C_5 
REMARK       I    between atoms: C_5  and  N_6 
REMARK    4  A    between atoms: N_6  and  C_7 
REMARK    5  A    between atoms: C_7  and  C_8 
REMARK    6  A    between atoms: C_11  and  N_12 
REMARK       I    between atoms: N_12  and  C_13 
REMARK       I    between atoms: C_13  and  N_14 
REMARK    7  A    between atoms: N_14  and  C_15 
ROOT
HETATM    1  N   UNL     1      43.115 -15.312   6.459  1.00  0.00    -0.331 N 
HETATM    2  C   UNL     1      43.978 -14.253   6.545  1.00  0.00     0.317 C 
HETATM    3  N   UNL     1      44.344 -14.013   7.839  1.00  0.00    -0.339 N 
HETATM    4  O   UNL     1      44.361 -13.599   5.584  1.00  0.00    -0.247 OA
HETATM    5  H   UNL     1      42.622 -15.516   7.314  1.00  0.00     0.165 HD
HETATM    6  H   UNL     1      44.323 -14.805   8.464  1.00  0.00     0.164 HD
ENDROOT
BRANCH   1   7
HETATM    7  C   UNL     1      42.426 -15.648   5.214  1.00  0.00     0.159 C 
BRANCH   7   8
HETATM    8  C   UNL     1      40.885 -15.711   5.390  1.00  0.00     0.008 C 
HETATM    9  C   UNL     1      40.327 -14.337   5.784  1.00  0.00     0.012 C 
HETATM   10  C   UNL     1      40.408 -16.761   6.404  1.00  0.00     0.012 C 
ENDBRANCH   7   8
BRANCH   7  11
HETATM   11  C   UNL     1      42.990 -16.926   4.641  1.00  0.00     0.128 A 
HETATM   12  N   UNL     1      43.840 -17.768   5.199  1.00  0.00    -0.231 NA
HETATM   13  C   UNL     1      43.986 -18.802   4.306  1.00  0.00     0.085 A 
HETATM   14  C   UNL     1      43.206 -18.594   3.174  1.00  0.00     0.062 A 
HETATM   15  C   UNL     1      44.768 -19.961   4.395  1.00  0.00     0.034 A 
HETATM   16  N   UNL     1      42.583 -17.400   3.413  1.00  0.00    -0.341 N 
HETATM   17  C   UNL     1      43.159 -19.485   2.102  1.00  0.00     0.032 A 
HETATM   18  H   UNL     1      41.941 -16.911   2.796  1.00  0.00     0.167 HD
HETATM   19  C   UNL     1      43.945 -20.639   2.209  1.00  0.00     0.002 A 
HETATM   20  C   UNL     1      44.737 -20.876   3.334  1.00  0.00     0.002 A 
ENDBRANCH   7  11
ENDBRANCH   1   7
BRANCH   3  21
HETATM   21  C   UNL     1      45.270 -12.954   8.170  1.00  0.00     0.162 C 
BRANCH  21  22
HETATM   22  C   UNL     1      44.622 -11.981   9.119  1.00  0.00    -0.040 A 
HETATM   23  C   UNL     1      43.422 -11.338   8.799  1.00  0.00     0.011 A 
HETATM   24  C   UNL     1      42.853 -10.409   9.681  1.00  0.00     0.030 A 
HETATM   25  C   UNL     1      43.485 -10.093  10.885  1.00  0.00     0.036 A 
HETATM   26  C   UNL     1      44.665 -10.765  11.221  1.00  0.00     0.030 A 
HETATM   27  C   UNL     1      45.235 -11.691  10.344  1.00  0.00     0.011 A 
BRANCH  25  28
HETATM   28  N   UNL     1      42.997  -9.168  11.825  1.00  0.00    -0.309 N 
HETATM   29  C   UNL     1      41.750  -8.700  12.111  1.00  0.00     0.321 C 
HETATM   30  N   UNL     1      40.771  -8.934  11.195  1.00  0.00    -0.339 N 
HETATM   31  O   UNL     1      41.586  -8.043  13.137  1.00  0.00    -0.247 OA
HETATM   32  H   UNL     1      41.124  -9.010  10.253  1.00  0.00     0.164 HD
HETATM   33  H   UNL     1      43.680  -8.760  12.452  1.00  0.00     0.170 HD
BRANCH  30  34
HETATM   34  C   UNL     1      39.413  -8.411  11.305  1.00  0.00     0.078 C 
HETATM   35  C   UNL     1      38.816  -8.002   9.960  1.00  0.00     0.032 C 
HETATM   36  C   UNL     1      38.496  -9.371  12.059  1.00  0.00     0.032 C 
ENDBRANCH  30  34
ENDBRANCH  25  28
ENDBRANCH  21  22
ENDBRANCH   3  21
TORSDOF 7
ENDMDL
MODEL 2
REMARK VINA RESULT:      -9.0      2.120      3.925
REMARK  7 active torsions:
REMARK  status: ('A' for Active; 'I' for Inactive)
REMARK    1  A    between atoms: C_2  and  C_3 
REMARK    2  A    between atoms: C_3  and  N_4 
REMARK    3  A    between atoms: C_3  and  C_22 
REMARK       I    between atoms: N_4  and  C_5 
REMARK       I    between atoms: C_5  and  N_6 
REMARK    4  A    between atoms: N_6  and  C_7 
REMARK    5  A    between atoms: C_7  and  C_8 
REMARK    6  A    between atoms: C_11  and  N_12 
REMARK       I    between atoms: N_12  and  C_13 
REMARK       I    between atoms: C_13  and  N_14 
REMARK    7  A    between atoms: N_14  and  C_15 
ROOT
HETATM    1  N   UNL     1      42.461 -16.241   5.070  1.00  0.00    -0.331 N 
HETATM    2  C   UNL     1      41.304 -15.560   5.342  1.00  0.00     0.317 C 
HETATM    3  N   UNL     1      41.180 -14.455   4.550  1.00  0.00    -0.339 N 
HETATM    4  O   UNL     1      40.494 -15.897   6.195  1.00  0.00    -0.247 OA
HETATM    5  H   UNL     1      43.174 -15.685   4.627  1.00  0.00     0.165 HD
HETATM    6  H   UNL     1      41.641 -14.492   3.653  1.00  0.00     0.164 HD
ENDROOT
BRANCH   1   7
HETATM    7  C   UNL     1      42.922 -17.346   5.909  1.00  0.00     0.159 C 
BRANCH   7   8
HETATM    8  C   UNL     1      44.012 -16.902   6.923  1.00  0.00     0.008 C 
HETATM    9  C   UNL     1      43.595 -17.251   8.357  1.00  0.00     0.012 C 
HETATM   10  C   UNL     1      44.372 -15.411   6.848  1.00  0.00     0.012 C 
ENDBRANCH   7   8
BRANCH   7  11
HETATM   11  C   UNL     1      43.378 -18.495   5.044  1.00  0.00     0.128 A 
HETATM   12  N   UNL     1      44.004 -19.598   5.412  1.00  0.00    -0.231 NA
HETATM   13  C   UNL     1      44.135 -20.353   4.271  1.00  0.00     0.085 A 
HETATM   14  C   UNL     1      43.576 -19.704   3.178  1.00  0.00     0.062 A 
HETATM   15  C   UNL     1      44.720 -21.613   4.093  1.00  0.00     0.034 A 
HETATM   16  N   UNL     1      43.100 -18.529   3.695  1.00  0.00    -0.341 N 
HETATM   17  C   UNL     1      43.566 -20.239   1.890  1.00  0.00     0.032 A 
HETATM   18  H   UNL     1      42.637 -17.781   3.188  1.00  0.00     0.167 HD
HETATM   19  C   UNL     1      44.154 -21.500   1.730  1.00  0.00     0.002 A 
HETATM   20  C   UNL     1      44.722 -22.179   2.810  1.00  0.00     0.002 A 
ENDBRANCH   7  11
ENDBRANCH   1   7
BRANCH   3  21
HETATM   21  C   UNL     1      40.022 -13.594   4.644  1.00  0.00     0.162 C 
BRANCH  21  22
HETATM   22  C   UNL     1      40.214 -12.594   5.754  1.00  0.00    -0.040 A 
HETATM   23  C   UNL     1      41.310 -11.725   5.774  1.00  0.00     0.011 A 
HETATM   24  C   UNL     1      41.489 -10.826   6.834  1.00  0.00     0.030 A 
HETATM   25  C   UNL     1      40.588 -10.797   7.901  1.00  0.00     0.036 A 
HETATM   26  C   UNL     1      39.473 -11.640   7.862  1.00  0.00     0.030 A 
HETATM   27  C   UNL     1      39.292 -12.537   6.806  1.00  0.00     0.011 A 
BRANCH  25  28
HETATM   28  N   UNL     1      40.692  -9.940   9.011  1.00  0.00    -0.309 N 
HETATM   29  C   UNL     1      41.634  -9.784   9.984  1.00  0.00     0.321 C 
HETATM   30  N   UNL     1      42.558 -10.775  10.121  1.00  0.00    -0.339 N 
HETATM   31  O   UNL     1      41.566  -8.803  10.720  1.00  0.00    -0.247 OA
HETATM   32  H   UNL     1      42.212 -11.678   9.834  1.00  0.00     0.164 HD
HETATM   33  H   UNL     1      39.943  -9.271   9.135  1.00  0.00     0.170 HD
BRANCH  30  34
HETATM   34  C   UNL     1      43.565 -10.806  11.177  1.00  0.00     0.078 C 
HETATM   35  C   UNL     1      43.225 -11.782  12.302  1.00  0.00     0.032 C 
HETATM   36  C   UNL     1      44.964 -11.056  10.619  1.00  0.00     0.032 C 
ENDBRANCH  30  34
ENDBRANCH  25  28
ENDBRANCH  21  22
ENDBRANCH   3  21
TORSDOF 7
ENDMDL
MODEL 3
REMARK VINA RESULT:      -8.7      2.647     10.847
REMARK  7 active torsions:
REMARK  status: ('A' for Active; 'I' for Inactive)
REMARK    1  A    between atoms: C_2  and  C_3 
REMARK    2  A    between atoms: C_3  and  N_4 
REMARK    3  A    between atoms: C_3  and  C_22 
REMARK       I    between atoms: N_4  and  C_5 
REMARK       I    between atoms: C_5  and  N_6 
REMARK    4  A    between atoms: N_6  and  C_7 
REMARK    5  A    between atoms: C_7  and  C_8 
REMARK    6  A    between atoms: C_11  and  N_12 
REMARK       I    between atoms: N_12  and  C_13 
REMARK       I    between atoms: C_13  and  N_14 
REMARK    7  A    between atoms: N_14  and  C_15 
ROOT
HETATM    1  N   UNL     1      42.211 -11.173   9.299  1.00  0.00    -0.331 N 
HETATM    2  C   UNL     1      41.707 -10.653   8.137  1.00  0.00     0.317 C 
HETATM    3  N   UNL     1      40.719 -11.443   7.625  1.00  0.00    -0.339 N 
HETATM    4  O   UNL     1      42.104  -9.616   7.621  1.00  0.00    -0.247 OA
HETATM    5  H   UNL     1      42.058 -12.163   9.410  1.00  0.00     0.165 HD
HETATM    6  H   UNL     1      40.204 -12.003   8.288  1.00  0.00     0.164 HD
ENDROOT
BRANCH   1   7
HETATM    7  C   UNL     1      43.404 -10.622   9.939  1.00  0.00     0.159 C 
BRANCH   7   8
HETATM    8  C   UNL     1      44.539 -11.674  10.078  1.00  0.00     0.008 C 
HETATM    9  C   UNL     1      45.877 -10.992  10.388  1.00  0.00     0.012 C 
HETATM   10  C   UNL     1      44.705 -12.587   8.855  1.00  0.00     0.012 C 
ENDBRANCH   7   8
BRANCH   7  11
HETATM   11  C   UNL     1      43.037  -9.996  11.263  1.00  0.00     0.128 A 
HETATM   12  N   UNL     1      42.657  -8.755  11.505  1.00  0.00    -0.231 NA
HETATM   13  C   UNL     1      42.375  -8.704  12.848  1.00  0.00     0.085 A 
HETATM   14  C   UNL     1      42.582  -9.940  13.447  1.00  0.00     0.062 A 
HETATM   15  C   UNL     1      41.930  -7.630  13.630  1.00  0.00     0.034 A 
HETATM   16  N   UNL     1      42.999 -10.743  12.421  1.00  0.00    -0.341 N 
HETATM   17  C   UNL     1      42.374 -10.179  14.806  1.00  0.00     0.032 A 
HETATM   18  H   UNL     1      43.264 -11.721  12.478  1.00  0.00     0.167 HD
HETATM   19  C   UNL     1      41.927  -9.095  15.572  1.00  0.00     0.002 A 
HETATM   20  C   UNL     1      41.707  -7.841  14.998  1.00  0.00     0.002 A 
ENDBRANCH   7  11
ENDBRANCH   1   7
BRANCH   3  21
HETATM   21  C   UNL     1      40.023 -11.078   6.411  1.00  0.00     0.162 C 
BRANCH  21  22
HETATM   22  C   UNL     1      39.950 -12.264   5.484  1.00  0.00    -0.040 A 
HETATM   23  C   UNL     1      39.974 -13.574   5.971  1.00  0.00     0.011 A 
HETATM   24  C   UNL     1      39.940 -14.663   5.090  1.00  0.00     0.030 A 
HETATM   25  C   UNL     1      39.904 -14.459   3.709  1.00  0.00     0.036 A 
HETATM   26  C   UNL     1      39.841 -13.149   3.225  1.00  0.00     0.030 A 
HETATM   27  C   UNL     1      39.875 -12.061   4.101  1.00  0.00     0.011 A 
BRANCH  25  28
HETATM   28  N   UNL     1      39.880 -15.487   2.750  1.00  0.00    -0.309 N 
HETATM   29  C   UNL     1      40.711 -16.534   2.483  1.00  0.00     0.321 C 
HETATM   30  N   UNL     1      41.951 -16.503   3.045  1.00  0.00    -0.339 N 
HETATM   31  O   UNL     1      40.331 -17.408   1.709  1.00  0.00    -0.247 OA
HETATM   32  H   UNL     1      42.286 -15.565   3.208  1.00  0.00     0.164 HD
HETATM   33  H   UNL     1      39.084 -15.500   2.124  1.00  0.00     0.170 HD
BRANCH  30  34
HETATM   34  C   UNL     1      42.989 -17.492   2.776  1.00  0.00     0.078 C 
HETATM   35  C   UNL     1      43.979 -17.047   1.700  1.00  0.00     0.032 C 
HETATM   36  C   UNL     1      43.705 -17.925   4.053  1.00  0.00     0.032 C 
ENDBRANCH  30  34
ENDBRANCH  25  28
ENDBRANCH  21  22
ENDBRANCH   3  21
TORSDOF 7
ENDMDL
MODEL 4
REMARK VINA RESULT:      -8.6      4.874      8.927
REMARK  7 active torsions:
REMARK  status: ('A' for Active; 'I' for Inactive)
REMARK    1  A    between atoms: C_2  and  C_3 
REMARK    2  A    between atoms: C_3  and  N_4 
REMARK    3  A    between atoms: C_3  and  C_22 
REMARK       I    between atoms: N_4  and  C_5 
REMARK       I    between atoms: C_5  and  N_6 
REMARK    4  A    between atoms: N_6  and  C_7 
REMARK    5  A    between atoms: C_7  and  C_8 
REMARK    6  A    between atoms: C_11  and  N_12 
REMARK       I    between atoms: N_12  and  C_13 
REMARK       I    between atoms: C_13  and  N_14 
REMARK    7  A    between atoms: N_14  and  C_15 
ROOT
HETATM    1  N   UNL     1      42.578 -15.664   5.187  1.00  0.00    -0.331 N 
HETATM    2  C   UNL     1      41.363 -15.040   5.275  1.00  0.00     0.317 C 
HETATM    3  N   UNL     1      41.366 -13.848   4.609  1.00  0.00    -0.339 N 
HETATM    4  O   UNL     1      40.403 -15.491   5.886  1.00  0.00    -0.247 OA
HETATM    5  H   UNL     1      43.347 -15.047   4.978  1.00  0.00     0.165 HD
HETATM    6  H   UNL     1      42.011 -13.768   3.837  1.00  0.00     0.164 HD
ENDROOT
BRANCH   1   7
HETATM    7  C   UNL     1      42.894 -16.856   5.972  1.00  0.00     0.159 C 
BRANCH   7   8
HETATM    8  C   UNL     1      43.949 -16.572   7.076  1.00  0.00     0.008 C 
HETATM    9  C   UNL     1      43.473 -17.110   8.432  1.00  0.00     0.012 C 
HETATM   10  C   UNL     1      44.327 -15.091   7.222  1.00  0.00     0.012 C 
ENDBRANCH   7   8
BRANCH   7  11
HETATM   11  C   UNL     1      43.311 -17.982   5.057  1.00  0.00     0.128 A 
HETATM   12  N   UNL     1      44.129 -18.986   5.314  1.00  0.00    -0.231 NA
HETATM   13  C   UNL     1      44.126 -19.770   4.187  1.00  0.00     0.085 A 
HETATM   14  C   UNL     1      43.287 -19.241   3.214  1.00  0.00     0.062 A 
HETATM   15  C   UNL     1      44.818 -20.960   3.921  1.00  0.00     0.034 A 
HETATM   16  N   UNL     1      42.780 -18.109   3.792  1.00  0.00    -0.341 N 
HETATM   17  C   UNL     1      43.092 -19.832   1.966  1.00  0.00     0.032 A 
HETATM   18  H   UNL     1      42.137 -17.444   3.373  1.00  0.00     0.167 HD
HETATM   19  C   UNL     1      43.789 -21.021   1.718  1.00  0.00     0.002 A 
HETATM   20  C   UNL     1      44.638 -21.578   2.676  1.00  0.00     0.002 A 
ENDBRANCH   7  11
ENDBRANCH   1   7
BRANCH   3  21
HETATM   21  C   UNL     1      40.180 -13.023   4.547  1.00  0.00     0.162 C 
BRANCH  21  22
HETATM   22  C   UNL     1      39.517 -13.176   3.203  1.00  0.00    -0.040 A 
HETATM   23  C   UNL     1      39.356 -14.430   2.607  1.00  0.00     0.011 A 
HETATM   24  C   UNL     1      38.768 -14.547   1.340  1.00  0.00     0.030 A 
HETATM   25  C   UNL     1      38.354 -13.412   0.641  1.00  0.00     0.036 A 
HETATM   26  C   UNL     1      38.482 -12.161   1.254  1.00  0.00     0.030 A 
HETATM   27  C   UNL     1      39.067 -12.041   2.517  1.00  0.00     0.011 A 
BRANCH  25  28
HETATM   28  N   UNL     1      37.766 -13.430  -0.636  1.00  0.00    -0.309 N 
HETATM   29  C   UNL     1      38.191 -13.878  -1.852  1.00  0.00     0.321 C 
HETATM   30  N   UNL     1      39.519 -14.143  -1.989  1.00  0.00    -0.339 N 
HETATM   31  O   UNL     1      37.377 -13.958  -2.769  1.00  0.00    -0.247 OA
HETATM   32  H   UNL     1      40.097 -13.584  -1.379  1.00  0.00     0.164 HD
HETATM   33  H   UNL     1      36.825 -13.063  -0.705  1.00  0.00     0.170 HD
BRANCH  30  34
HETATM   34  C   UNL     1      40.144 -14.530  -3.249  1.00  0.00     0.078 C 
HETATM   35  C   UNL     1      41.564 -13.990  -3.406  1.00  0.00     0.032 C 
HETATM   36  C   UNL     1      40.089 -16.040  -3.469  1.00  0.00     0.032 C 
ENDBRANCH  30  34
ENDBRANCH  25  28
ENDBRANCH  21  22
ENDBRANCH   3  21
TORSDOF 7
ENDMDL
MODEL 5
REMARK VINA RESULT:      -8.5      2.566      4.169
REMARK  7 active torsions:
REMARK  status: ('A' for Active; 'I' for Inactive)
REMARK    1  A    between atoms: C_2  and  C_3 
REMARK    2  A    between atoms: C_3  and  N_4 
REMARK    3  A    between atoms: C_3  and  C_22 
REMARK       I    between atoms: N_4  and  C_5 
REMARK       I    between atoms: C_5  and  N_6 
REMARK    4  A    between atoms: N_6  and  C_7 
REMARK    5  A    between atoms: C_7  and  C_8 
REMARK    6  A    between atoms: C_11  and  N_12 
REMARK       I    between atoms: N_12  and  C_13 
REMARK       I    between atoms: C_13  and  N_14 
REMARK    7  A    between atoms: N_14  and  C_15 
ROOT
HETATM    1  N   UNL     1      41.795 -15.189   3.014  1.00  0.00    -0.331 N 
HETATM    2  C   UNL     1      41.989 -13.840   3.146  1.00  0.00     0.317 C 
HETATM    3  N   UNL     1      40.907 -13.236   3.720  1.00  0.00    -0.339 N 
HETATM    4  O   UNL     1      43.000 -13.253   2.784  1.00  0.00    -0.247 OA
HETATM    5  H   UNL     1      40.828 -15.471   3.016  1.00  0.00     0.165 HD
HETATM    6  H   UNL     1      40.345 -13.810   4.330  1.00  0.00     0.164 HD
ENDROOT
BRANCH   1   7
HETATM    7  C   UNL     1      42.719 -16.032   2.257  1.00  0.00     0.159 C 
BRANCH   7   8
HETATM    8  C   UNL     1      42.109 -16.516   0.913  1.00  0.00     0.008 C 
HETATM    9  C   UNL     1      41.668 -15.322   0.055  1.00  0.00     0.012 C 
HETATM   10  C   UNL     1      40.933 -17.491   1.068  1.00  0.00     0.012 C 
ENDBRANCH   7   8
BRANCH   7  11
HETATM   11  C   UNL     1      43.195 -17.178   3.116  1.00  0.00     0.128 A 
HETATM   12  N   UNL     1      42.988 -17.376   4.404  1.00  0.00    -0.231 NA
HETATM   13  C   UNL     1      43.565 -18.588   4.695  1.00  0.00     0.085 A 
HETATM   14  C   UNL     1      44.138 -19.151   3.562  1.00  0.00     0.062 A 
HETATM   15  C   UNL     1      43.637 -19.278   5.913  1.00  0.00     0.034 A 
HETATM   16  N   UNL     1      43.887 -18.239   2.573  1.00  0.00    -0.341 N 
HETATM   17  C   UNL     1      44.794 -20.382   3.564  1.00  0.00     0.032 A 
HETATM   18  H   UNL     1      44.171 -18.298   1.600  1.00  0.00     0.167 HD
HETATM   19  C   UNL     1      44.855 -21.059   4.789  1.00  0.00     0.002 A 
HETATM   20  C   UNL     1      44.287 -20.519   5.945  1.00  0.00     0.002 A 
ENDBRANCH   7  11
ENDBRANCH   1   7
BRANCH   3  21
HETATM   21  C   UNL     1      40.896 -11.814   3.980  1.00  0.00     0.162 C 
BRANCH  21  22
HETATM   22  C   UNL     1      40.678 -11.561   5.449  1.00  0.00    -0.040 A 
HETATM   23  C   UNL     1      41.456 -10.639   6.155  1.00  0.00     0.011 A 
HETATM   24  C   UNL     1      41.262 -10.444   7.529  1.00  0.00     0.030 A 
HETATM   25  C   UNL     1      40.303 -11.184   8.222  1.00  0.00     0.036 A 
HETATM   26  C   UNL     1      39.500 -12.080   7.509  1.00  0.00     0.030 A 
HETATM   27  C   UNL     1      39.691 -12.276   6.139  1.00  0.00     0.011 A 
BRANCH  25  28
HETATM   28  N   UNL     1      40.045 -11.066   9.600  1.00  0.00    -0.309 N 
HETATM   29  C   UNL     1      40.851 -11.004  10.697  1.00  0.00     0.321 C 
HETATM   30  N   UNL     1      42.152 -11.368  10.536  1.00  0.00    -0.339 N 
HETATM   31  O   UNL     1      40.356 -10.687  11.776  1.00  0.00    -0.247 OA
HETATM   32  H   UNL     1      42.283 -12.045   9.799  1.00  0.00     0.164 HD
HETATM   33  H   UNL     1      39.073 -10.987   9.871  1.00  0.00     0.170 HD
BRANCH  30  34
HETATM   34  C   UNL     1      43.113 -11.454  11.631  1.00  0.00     0.078 C 
HETATM   35  C   UNL     1      44.206 -12.494  11.391  1.00  0.00     0.032 C 
HETATM   36  C   UNL     1      43.703 -10.088  11.974  1.00  0.00     0.032 C 
ENDBRANCH  30  34
ENDBRANCH  25  28
ENDBRANCH  21  22
ENDBRANCH   3  21
TORSDOF 7
ENDMDL
MODEL 6
REMARK VINA RESULT:      -8.5      4.437     10.280
REMARK  7 active torsions:
REMARK  status: ('A' for Active; 'I' for Inactive)
REMARK    1  A    between atoms: C_2  and  C_3 
REMARK    2  A    between atoms: C_3  and  N_4 
REMARK    3  A    between atoms: C_3  and  C_22 
REMARK       I    between atoms: N_4  and  C_5 
REMARK       I    between atoms: C_5  and  N_6 
REMARK    4  A    between atoms: N_6  and  C_7 
REMARK    5  A    between atoms: C_7  and  C_8 
REMARK    6  A    between atoms: C_11  and  N_12 
REMARK       I    between atoms: N_12  and  C_13 
REMARK       I    between atoms: C_13  and  N_14 
REMARK    7  A    between atoms: N_14  and  C_15 
ROOT
HETATM    1  N   UNL     1      42.542 -15.233   6.180  1.00  0.00    -0.331 N 
HETATM    2  C   UNL     1      42.158 -14.356   5.201  1.00  0.00     0.317 C 
HETATM    3  N   UNL     1      40.810 -14.401   4.993  1.00  0.00    -0.339 N 
HETATM    4  O   UNL     1      42.932 -13.635   4.585  1.00  0.00    -0.247 OA
HETATM    5  H   UNL     1      41.892 -15.986   6.340  1.00  0.00     0.165 HD
HETATM    6  H   UNL     1      40.245 -14.684   5.779  1.00  0.00     0.164 HD
ENDROOT
BRANCH   1   7
HETATM    7  C   UNL     1      43.949 -15.517   6.456  1.00  0.00     0.159 C 
BRANCH   7   8
HETATM    8  C   UNL     1      44.149 -16.898   7.139  1.00  0.00     0.008 C 
HETATM    9  C   UNL     1      44.911 -17.856   6.214  1.00  0.00     0.012 C 
HETATM   10  C   UNL     1      42.847 -17.567   7.602  1.00  0.00     0.012 C 
ENDBRANCH   7   8
BRANCH   7  11
HETATM   11  C   UNL     1      44.557 -14.389   7.255  1.00  0.00     0.128 A 
HETATM   12  N   UNL     1      45.653 -13.701   6.995  1.00  0.00    -0.231 NA
HETATM   13  C   UNL     1      45.738 -12.747   7.979  1.00  0.00     0.085 A 
HETATM   14  C   UNL     1      44.671 -12.847   8.864  1.00  0.00     0.062 A 
HETATM   15  C   UNL     1      46.704 -11.752   8.182  1.00  0.00     0.034 A 
HETATM   16  N   UNL     1      43.935 -13.894   8.380  1.00  0.00    -0.341 N 
HETATM   17  C   UNL     1      44.503 -12.004   9.962  1.00  0.00     0.032 A 
HETATM   18  H   UNL     1      43.083 -14.278   8.777  1.00  0.00     0.167 HD
HETATM   19  C   UNL     1      45.476 -11.014  10.148  1.00  0.00     0.002 A 
HETATM   20  C   UNL     1      46.559 -10.887   9.275  1.00  0.00     0.002 A 
ENDBRANCH   7  11
ENDBRANCH   1   7
BRANCH   3  21
HETATM   21  C   UNL     1      40.175 -13.541   4.019  1.00  0.00     0.162 C 
BRANCH  21  22
HETATM   22  C   UNL     1      40.520 -14.000   2.626  1.00  0.00    -0.040 A 
HETATM   23  C   UNL     1      40.383 -15.337   2.242  1.00  0.00     0.011 A 
HETATM   24  C   UNL     1      40.743 -15.750   0.952  1.00  0.00     0.030 A 
HETATM   25  C   UNL     1      41.266 -14.837   0.035  1.00  0.00     0.036 A 
HETATM   26  C   UNL     1      41.368 -13.493   0.407  1.00  0.00     0.030 A 
HETATM   27  C   UNL     1      41.009 -13.078   1.693  1.00  0.00     0.011 A 
BRANCH  25  28
HETATM   28  N   UNL     1      41.665 -15.160  -1.274  1.00  0.00    -0.309 N 
HETATM   29  C   UNL     1      41.030 -15.119  -2.480  1.00  0.00     0.321 C 
HETATM   30  N   UNL     1      39.675 -14.991  -2.466  1.00  0.00    -0.339 N 
HETATM   31  O   UNL     1      41.695 -15.263  -3.503  1.00  0.00    -0.247 OA
HETATM   32  H   UNL     1      39.251 -15.381  -1.637  1.00  0.00     0.164 HD
HETATM   33  H   UNL     1      42.622 -15.469  -1.390  1.00  0.00     0.170 HD
BRANCH  30  34
HETATM   34  C   UNL     1      38.843 -15.035  -3.664  1.00  0.00     0.078 C 
HETATM   35  C   UNL     1      38.828 -16.408  -4.335  1.00  0.00     0.032 C 
HETATM   36  C   UNL     1      37.429 -14.528  -3.391  1.00  0.00     0.032 C 
ENDBRANCH  30  34
ENDBRANCH  25  28
ENDBRANCH  21  22
ENDBRANCH   3  21
TORSDOF 7
ENDMDL
MODEL 7
REMARK VINA RESULT:      -8.4      3.549      4.847
REMARK  7 active torsions:
REMARK  status: ('A' for Active; 'I' for Inactive)
REMARK    1  A    between atoms: C_2  and  C_3 
REMARK    2  A    between atoms: C_3  and  N_4 
REMARK    3  A    between atoms: C_3  and  C_22 
REMARK       I    between atoms: N_4  and  C_5 
REMARK       I    between atoms: C_5  and  N_6 
REMARK    4  A    between atoms: N_6  and  C_7 
REMARK    5  A    between atoms: C_7  and  C_8 
REMARK    6  A    between atoms: C_11  and  N_12 
REMARK       I    between atoms: N_12  and  C_13 
REMARK       I    between atoms: C_13  and  N_14 
REMARK    7  A    between atoms: N_14  and  C_15 
ROOT
HETATM    1  N   UNL     1      39.618 -13.338   2.655  1.00  0.00    -0.331 N 
HETATM    2  C   UNL     1      40.045 -12.118   3.106  1.00  0.00     0.317 C 
HETATM    3  N   UNL     1      39.254 -11.658   4.120  1.00  0.00    -0.339 N 
HETATM    4  O   UNL     1      41.006 -11.515   2.647  1.00  0.00    -0.247 OA
HETATM    5  H   UNL     1      38.653 -13.541   2.859  1.00  0.00     0.165 HD
HETATM    6  H   UNL     1      38.788 -12.358   4.677  1.00  0.00     0.164 HD
ENDROOT
BRANCH   1   7
HETATM    7  C   UNL     1      40.173 -13.955   1.451  1.00  0.00     0.159 C 
BRANCH   7   8
HETATM    8  C   UNL     1      39.073 -14.347   0.428  1.00  0.00     0.008 C 
HETATM    9  C   UNL     1      39.291 -13.625  -0.908  1.00  0.00     0.012 C 
HETATM   10  C   UNL     1      37.639 -14.091   0.915  1.00  0.00     0.012 C 
ENDBRANCH   7   8
BRANCH   7  11
HETATM   11  C   UNL     1      41.049 -15.125   1.827  1.00  0.00     0.128 A 
HETATM   12  N   UNL     1      40.987 -15.880   2.908  1.00  0.00    -0.231 NA
HETATM   13  C   UNL     1      41.951 -16.845   2.748  1.00  0.00     0.085 A 
HETATM   14  C   UNL     1      42.621 -16.684   1.542  1.00  0.00     0.062 A 
HETATM   15  C   UNL     1      42.312 -17.901   3.595  1.00  0.00     0.034 A 
HETATM   16  N   UNL     1      42.028 -15.588   0.975  1.00  0.00    -0.341 N 
HETATM   17  C   UNL     1      43.652 -17.523   1.118  1.00  0.00     0.032 A 
HETATM   18  H   UNL     1      42.266 -15.154   0.088  1.00  0.00     0.167 HD
HETATM   19  C   UNL     1      43.998 -18.574   1.976  1.00  0.00     0.002 A 
HETATM   20  C   UNL     1      43.342 -18.764   3.194  1.00  0.00     0.002 A 
ENDBRANCH   7  11
ENDBRANCH   1   7
BRANCH   3  21
HETATM   21  C   UNL     1      39.530 -10.396   4.769  1.00  0.00     0.162 C 
BRANCH  21  22
HETATM   22  C   UNL     1      39.514 -10.572   6.265  1.00  0.00    -0.040 A 
HETATM   23  C   UNL     1      39.631  -9.481   7.130  1.00  0.00     0.011 A 
HETATM   24  C   UNL     1      39.650  -9.670   8.519  1.00  0.00     0.030 A 
HETATM   25  C   UNL     1      39.574 -10.954   9.062  1.00  0.00     0.036 A 
HETATM   26  C   UNL     1      39.420 -12.041   8.197  1.00  0.00     0.030 A 
HETATM   27  C   UNL     1      39.400 -11.856   6.812  1.00  0.00     0.011 A 
BRANCH  25  28
HETATM   28  N   UNL     1      39.598 -11.241  10.438  1.00  0.00    -0.309 N 
HETATM   29  C   UNL     1      40.596 -11.285  11.365  1.00  0.00     0.321 C 
HETATM   30  N   UNL     1      41.875 -11.312  10.902  1.00  0.00    -0.339 N 
HETATM   31  O   UNL     1      40.295 -11.360  12.554  1.00  0.00    -0.247 OA
HETATM   32  H   UNL     1      41.955 -11.740   9.991  1.00  0.00     0.164 HD
HETATM   33  H   UNL     1      38.705 -11.440  10.872  1.00  0.00     0.170 HD
BRANCH  30  34
HETATM   34  C   UNL     1      43.047 -11.462  11.759  1.00  0.00     0.078 C 
HETATM   35  C   UNL     1      44.152 -12.305  11.125  1.00  0.00     0.032 C 
HETATM   36  C   UNL     1      43.575 -10.112  12.238  1.00  0.00     0.032 C 
ENDBRANCH  30  34
ENDBRANCH  25  28
ENDBRANCH  21  22
ENDBRANCH   3  21
TORSDOF 7
ENDMDL
MODEL 8
REMARK VINA RESULT:      -8.4      4.593     10.953
REMARK  7 active torsions:
REMARK  status: ('A' for Active; 'I' for Inactive)
REMARK    1  A    between atoms: C_2  and  C_3 
REMARK    2  A    between atoms: C_3  and  N_4 
REMARK    3  A    between atoms: C_3  and  C_22 
REMARK       I    between atoms: N_4  and  C_5 
REMARK       I    between atoms: C_5  and  N_6 
REMARK    4  A    between atoms: N_6  and  C_7 
REMARK    5  A    between atoms: C_7  and  C_8 
REMARK    6  A    between atoms: C_11  and  N_12 
REMARK       I    between atoms: N_12  and  C_13 
REMARK       I    between atoms: C_13  and  N_14 
REMARK    7  A    between atoms: N_14  and  C_15 
ROOT
HETATM    1  N   UNL     1      41.627 -12.151   6.307  1.00  0.00    -0.331 N 
HETATM    2  C   UNL     1      40.721 -13.079   5.871  1.00  0.00     0.317 C 
HETATM    3  N   UNL     1      41.322 -14.047   5.118  1.00  0.00    -0.339 N 
HETATM    4  O   UNL     1      39.522 -13.036   6.116  1.00  0.00    -0.247 OA
HETATM    5  H   UNL     1      42.471 -12.106   5.759  1.00  0.00     0.165 HD
HETATM    6  H   UNL     1      42.296 -14.225   5.313  1.00  0.00     0.164 HD
ENDROOT
BRANCH   1   7
HETATM    7  C   UNL     1      41.211 -10.914   6.965  1.00  0.00     0.159 C 
BRANCH   7   8
HETATM    8  C   UNL     1      41.536  -9.655   6.115  1.00  0.00     0.008 C 
HETATM    9  C   UNL     1      40.966  -8.392   6.774  1.00  0.00     0.012 C 
HETATM   10  C   UNL     1      41.048  -9.733   4.661  1.00  0.00     0.012 C 
ENDBRANCH   7   8
BRANCH   7  11
HETATM   11  C   UNL     1      41.807 -10.839   8.350  1.00  0.00     0.128 A 
HETATM   12  N   UNL     1      43.035 -10.502   8.696  1.00  0.00    -0.231 NA
HETATM   13  C   UNL     1      43.058 -10.524  10.069  1.00  0.00     0.085 A 
HETATM   14  C   UNL     1      41.817 -10.879  10.582  1.00  0.00     0.062 A 
HETATM   15  C   UNL     1      44.109 -10.246  10.953  1.00  0.00     0.034 A 
HETATM   16  N   UNL     1      41.040 -11.071   9.471  1.00  0.00    -0.341 N 
HETATM   17  C   UNL     1      41.551 -10.981  11.947  1.00  0.00     0.032 A 
HETATM   18  H   UNL     1      40.067 -11.358   9.448  1.00  0.00     0.167 HD
HETATM   19  C   UNL     1      42.612 -10.698  12.816  1.00  0.00     0.002 A 
HETATM   20  C   UNL     1      43.871 -10.336  12.331  1.00  0.00     0.002 A 
ENDBRANCH   7  11
ENDBRANCH   1   7
BRANCH   3  21
HETATM   21  C   UNL     1      40.562 -15.147   4.569  1.00  0.00     0.162 C 
BRANCH  21  22
HETATM   22  C   UNL     1      40.854 -15.291   3.098  1.00  0.00    -0.040 A 
HETATM   23  C   UNL     1      41.255 -14.198   2.323  1.00  0.00     0.011 A 
HETATM   24  C   UNL     1      41.487 -14.345   0.949  1.00  0.00     0.030 A 
HETATM   25  C   UNL     1      41.302 -15.580   0.325  1.00  0.00     0.036 A 
HETATM   26  C   UNL     1      40.938 -16.680   1.107  1.00  0.00     0.030 A 
HETATM   27  C   UNL     1      40.705 -16.537   2.478  1.00  0.00     0.011 A 
BRANCH  25  28
HETATM   28  N   UNL     1      41.499 -15.820  -1.047  1.00  0.00    -0.309 N 
HETATM   29  C   UNL     1      40.871 -15.374  -2.171  1.00  0.00     0.321 C 
HETATM   30  N   UNL     1      39.657 -14.779  -2.012  1.00  0.00    -0.339 N 
HETATM   31  O   UNL     1      41.393 -15.586  -3.263  1.00  0.00    -0.247 OA
HETATM   32  H   UNL     1      39.158 -15.114  -1.202  1.00  0.00     0.164 HD
HETATM   33  H   UNL     1      42.272 -16.427  -1.291  1.00  0.00     0.170 HD
BRANCH  30  34
HETATM   34  C   UNL     1      38.815 -14.342  -3.121  1.00  0.00     0.078 C 
HETATM   35  C   UNL     1      37.838 -15.417  -3.593  1.00  0.00     0.032 C 
HETATM   36  C   UNL     1      38.099 -13.031  -2.807  1.00  0.00     0.032 C 
ENDBRANCH  30  34
ENDBRANCH  25  28
ENDBRANCH  21  22
ENDBRANCH   3  21
TORSDOF 7
ENDMDL
MODEL 9
REMARK VINA RESULT:      -8.3      2.740      3.875
REMARK  7 active torsions:
REMARK  status: ('A' for Active; 'I' for Inactive)
REMARK    1  A    between atoms: C_2  and  C_3 
REMARK    2  A    between atoms: C_3  and  N_4 
REMARK    3  A    between atoms: C_3  and  C_22 
REMARK       I    between atoms: N_4  and  C_5 
REMARK       I    between atoms: C_5  and  N_6 
REMARK    4  A    between atoms: N_6  and  C_7 
REMARK    5  A    between atoms: C_7  and  C_8 
REMARK    6  A    between atoms: C_11  and  N_12 
REMARK       I    between atoms: N_12  and  C_13 
REMARK       I    between atoms: C_13  and  N_14 
REMARK    7  A    between atoms: N_14  and  C_15 
ROOT
HETATM    1  N   UNL     1      42.245 -15.810   3.213  1.00  0.00    -0.331 N 
HETATM    2  C   UNL     1      42.474 -14.461   3.156  1.00  0.00     0.317 C 
HETATM    3  N   UNL     1      41.906 -13.814   4.216  1.00  0.00    -0.339 N 
HETATM    4  O   UNL     1      43.099 -13.909   2.260  1.00  0.00    -0.247 OA
HETATM    5  H   UNL     1      41.450 -16.072   3.774  1.00  0.00     0.165 HD
HETATM    6  H   UNL     1      41.792 -14.354   5.061  1.00  0.00     0.164 HD
ENDROOT
BRANCH   1   7
HETATM    7  C   UNL     1      42.579 -16.698   2.102  1.00  0.00     0.159 C 
BRANCH   7   8
HETATM    8  C   UNL     1      41.360 -16.974   1.180  1.00  0.00     0.008 C 
HETATM    9  C   UNL     1      41.411 -16.084  -0.069  1.00  0.00     0.012 C 
HETATM   10  C   UNL     1      39.998 -16.806   1.868  1.00  0.00     0.012 C 
ENDBRANCH   7   8
BRANCH   7  11
HETATM   11  C   UNL     1      43.201 -17.970   2.626  1.00  0.00     0.128 A 
HETATM   12  N   UNL     1      43.704 -18.202   3.824  1.00  0.00    -0.231 NA
HETATM   13  C   UNL     1      44.080 -19.523   3.825  1.00  0.00     0.085 A 
HETATM   14  C   UNL     1      43.800 -20.120   2.602  1.00  0.00     0.062 A 
HETATM   15  C   UNL     1      44.667 -20.288   4.841  1.00  0.00     0.034 A 
HETATM   16  N   UNL     1      43.240 -19.115   1.860  1.00  0.00    -0.341 N 
HETATM   17  C   UNL     1      44.077 -21.458   2.320  1.00  0.00     0.032 A 
HETATM   18  H   UNL     1      42.920 -19.170   0.898  1.00  0.00     0.167 HD
HETATM   19  C   UNL     1      44.662 -22.208   3.348  1.00  0.00     0.002 A 
HETATM   20  C   UNL     1      44.953 -21.636   4.588  1.00  0.00     0.002 A 
ENDBRANCH   7  11
ENDBRANCH   1   7
BRANCH   3  21
HETATM   21  C   UNL     1      42.039 -12.384   4.377  1.00  0.00     0.162 C 
BRANCH  21  22
HETATM   22  C   UNL     1      41.222 -11.921   5.555  1.00  0.00    -0.040 A 
HETATM   23  C   UNL     1      40.196 -12.708   6.087  1.00  0.00     0.011 A 
HETATM   24  C   UNL     1      39.424 -12.244   7.161  1.00  0.00     0.030 A 
HETATM   25  C   UNL     1      39.651 -10.978   7.704  1.00  0.00     0.036 A 
HETATM   26  C   UNL     1      40.700 -10.207   7.195  1.00  0.00     0.030 A 
HETATM   27  C   UNL     1      41.472 -10.667   6.125  1.00  0.00     0.011 A 
BRANCH  25  28
HETATM   28  N   UNL     1      38.921 -10.424   8.771  1.00  0.00    -0.309 N 
HETATM   29  C   UNL     1      39.229 -10.156  10.071  1.00  0.00     0.321 C 
HETATM   30  N   UNL     1      40.354 -10.733  10.577  1.00  0.00    -0.339 N 
HETATM   31  O   UNL     1      38.455  -9.469  10.732  1.00  0.00    -0.247 OA
HETATM   32  H   UNL     1      40.582 -11.608  10.129  1.00  0.00     0.164 HD
HETATM   33  H   UNL     1      37.974 -10.131   8.565  1.00  0.00     0.170 HD
BRANCH  30  34
HETATM   34  C   UNL     1      40.763 -10.628  11.973  1.00  0.00     0.078 C 
HETATM   35  C   UNL     1      40.302 -11.809  12.825  1.00  0.00     0.032 C 
HETATM   36  C   UNL     1      42.265 -10.391  12.108  1.00  0.00     0.032 C 
ENDBRANCH  30  34
ENDBRANCH  25  28
ENDBRANCH  21  22
ENDBRANCH   3  21
TORSDOF 7
ENDMDL
MODEL 10
REMARK VINA RESULT:      -8.3      5.413      9.180
REMARK  7 active torsions:
REMARK  status: ('A' for Active; 'I' for Inactive)
REMARK    1  A    between atoms: C_2  and  C_3 
REMARK    2  A    between atoms: C_3  and  N_4 
REMARK    3  A    between atoms: C_3  and  C_22 
REMARK       I    between atoms: N_4  and  C_5 
REMARK       I    between atoms: C_5  and  N_6 
REMARK    4  A    between atoms: N_6  and  C_7 
REMARK    5  A    between atoms: C_7  and  C_8 
REMARK    6  A    between atoms: C_11  and  N_12 
REMARK       I    between atoms: N_12  and  C_13 
REMARK       I    between atoms: C_13  and  N_14 
REMARK    7  A    between atoms: N_14  and  C_15 
ROOT
HETATM    1  N   UNL     1      41.006 -16.696   6.234  1.00  0.00    -0.331 N 
HETATM    2  C   UNL     1      41.162 -15.589   5.445  1.00  0.00     0.317 C 
HETATM    3  N   UNL     1      39.964 -15.155   4.953  1.00  0.00    -0.339 N 
HETATM    4  O   UNL     1      42.241 -15.064   5.203  1.00  0.00    -0.247 OA
HETATM    5  H   UNL     1      40.158 -17.213   6.061  1.00  0.00     0.165 HD
HETATM    6  H   UNL     1      39.148 -15.370   5.508  1.00  0.00     0.164 HD
ENDROOT
BRANCH   1   7
HETATM    7  C   UNL     1      42.150 -17.466   6.720  1.00  0.00     0.159 C 
BRANCH   7   8
HETATM    8  C   UNL     1      43.191 -16.576   7.452  1.00  0.00     0.008 C 
HETATM    9  C   UNL     1      44.476 -16.449   6.624  1.00  0.00     0.012 C 
HETATM   10  C   UNL     1      43.545 -17.054   8.868  1.00  0.00     0.012 C 
ENDBRANCH   7   8
BRANCH   7  11
HETATM   11  C   UNL     1      42.764 -18.252   5.586  1.00  0.00     0.128 A 
HETATM   12  N   UNL     1      43.675 -19.204   5.650  1.00  0.00    -0.231 NA
HETATM   13  C   UNL     1      43.848 -19.645   4.361  1.00  0.00     0.085 A 
HETATM   14  C   UNL     1      43.023 -18.953   3.484  1.00  0.00     0.062 A 
HETATM   15  C   UNL     1      44.694 -20.644   3.861  1.00  0.00     0.034 A 
HETATM   16  N   UNL     1      42.343 -18.077   4.286  1.00  0.00    -0.341 N 
HETATM   17  C   UNL     1      42.990 -19.194   2.110  1.00  0.00     0.032 A 
HETATM   18  H   UNL     1      41.657 -17.388   3.995  1.00  0.00     0.167 HD
HETATM   19  C   UNL     1      43.840 -20.196   1.628  1.00  0.00     0.002 A 
HETATM   20  C   UNL     1      44.679 -20.911   2.485  1.00  0.00     0.002 A 
ENDBRANCH   7  11
ENDBRANCH   1   7
BRANCH   3  21
HETATM   21  C   UNL     1      39.881 -13.982   4.112  1.00  0.00     0.162 C 
BRANCH  21  22
HETATM   22  C   UNL     1      40.294 -14.328   2.705  1.00  0.00    -0.040 A 
HETATM   23  C   UNL     1      40.243 -15.643   2.231  1.00  0.00     0.011 A 
HETATM   24  C   UNL     1      40.666 -15.949   0.931  1.00  0.00     0.030 A 
HETATM   25  C   UNL     1      41.165 -14.951   0.093  1.00  0.00     0.036 A 
HETATM   26  C   UNL     1      41.181 -13.631   0.554  1.00  0.00     0.030 A 
HETATM   27  C   UNL     1      40.760 -13.322   1.850  1.00  0.00     0.011 A 
BRANCH  25  28
HETATM   28  N   UNL     1      41.622 -15.165  -1.220  1.00  0.00    -0.309 N 
HETATM   29  C   UNL     1      41.022 -15.085  -2.441  1.00  0.00     0.321 C 
HETATM   30  N   UNL     1      39.661 -15.039  -2.465  1.00  0.00    -0.339 N 
HETATM   31  O   UNL     1      41.724 -15.122  -3.448  1.00  0.00    -0.247 OA
HETATM   32  H   UNL     1      39.238 -15.505  -1.676  1.00  0.00     0.164 HD
HETATM   33  H   UNL     1      42.599 -15.409  -1.323  1.00  0.00     0.170 HD
BRANCH  30  34
HETATM   34  C   UNL     1      38.869 -15.056  -3.690  1.00  0.00     0.078 C 
HETATM   35  C   UNL     1      38.835 -16.426  -4.365  1.00  0.00     0.032 C 
HETATM   36  C   UNL     1      37.464 -14.505  -3.464  1.00  0.00     0.032 C 
ENDBRANCH  30  34
ENDBRANCH  25  28
ENDBRANCH  21  22
ENDBRANCH   3  21
TORSDOF 7
ENDMDL
