MODEL 1
REMARK VINA RESULT:      -8.2      0.000      0.000
REMARK  8 active torsions:
REMARK  status: ('A' for Active; 'I' for Inactive)
REMARK    1  A    between atoms: C_2  and  C_3 
REMARK    2  A    between atoms: C_6  and  C_7 
REMARK       I    between atoms: C_7  and  N_8 
REMARK    3  A    between atoms: C_12  and  O_13 
REMARK    4  A    between atoms: O_13  and  C_14 
REMARK    5  A    between atoms: C_14  and  C_15 
REMARK    6  A    between atoms: C_15  and  O_16 
REMARK    7  A    between atoms: C_18  and  N_19 
REMARK       I    between atoms: N_19  and  C_20 
REMARK    8  A    between atoms: C_20  and  C_21 
ROOT
HETATM    1  C   UNL     1      41.353 -13.680   0.061  1.00  0.00     0.274 C 
HETATM    2  N   UNL     1      41.484 -14.244   1.340  1.00  0.00    -0.347 N 
HETATM    3  C   UNL     1      40.536 -15.164   1.969  1.00  0.00     0.127 C 
HETATM    4  C   UNL     1      41.249 -16.435   2.421  1.00  0.00     0.037 C 
HETATM    5  C   UNL     1      42.455 -16.146   3.342  1.00  0.00     0.019 C 
HETATM    6  C   UNL     1      42.051 -15.636   4.783  1.00  0.00     0.162 C 
HETATM    7  C   UNL     1      42.915 -16.430   5.819  1.00  0.00     0.148 C 
HETATM    8  C   UNL     1      43.417 -17.596   5.019  1.00  0.00    -0.026 A 
HETATM    9  C   UNL     1      43.203 -17.430   3.652  1.00  0.00    -0.038 A 
HETATM   10  C   UNL     1      44.078 -18.716   5.513  1.00  0.00     0.010 A 
HETATM   11  C   UNL     1      44.537 -19.678   4.613  1.00  0.00     0.001 A 
HETATM   12  C   UNL     1      44.341 -19.508   3.239  1.00  0.00     0.001 A 
HETATM   13  C   UNL     1      43.672 -18.382   2.752  1.00  0.00     0.009 A 
HETATM   14  C   UNL     1      43.396 -15.141   2.638  1.00  0.00     0.037 C 
HETATM   15  C   UNL     1      42.649 -13.897   2.149  1.00  0.00     0.127 C 
HETATM   16  O   UNL     1      42.303 -13.106  -0.477  1.00  0.00    -0.266 OA
ENDROOT
BRANCH   6  17
HETATM   17  O   UNL     1      40.644 -15.867   5.012  1.00  0.00    -0.380 OA
BRANCH  17  18
HETATM   18  C   UNL     1      40.049 -14.887   5.868  1.00  0.00     0.194 C 
BRANCH  18  19
HETATM   19  C   UNL     1      39.824 -13.600   5.081  1.00  0.00     0.193 C 
BRANCH  19  20
HETATM   20  O   UNL     1      39.798 -12.493   5.980  1.00  0.00    -0.394 OA
HETATM   21  C   UNL     1      39.297 -11.319   5.357  1.00  0.00     0.201 C 
ENDBRANCH  19  20
ENDBRANCH  18  19
ENDBRANCH  17  18
ENDBRANCH   6  17
BRANCH   7  22
HETATM   22  N   UNL     1      44.044 -15.698   6.374  1.00  0.00    -0.350 N 
HETATM   23  C   UNL     1      43.979 -14.347   6.605  1.00  0.00     0.221 C 
HETATM   24  O   UNL     1      43.084 -13.637   6.157  1.00  0.00    -0.273 OA
HETATM   25  H   UNL     1      44.733 -16.240   6.878  1.00  0.00     0.163 HD
BRANCH  23  26
HETATM   26  C   UNL     1      45.065 -13.782   7.513  1.00  0.00     0.070 C 
HETATM   27  C   UNL     1      46.255 -13.312   6.679  1.00  0.00     0.019 C 
HETATM   28  C   UNL     1      44.543 -12.670   8.417  1.00  0.00     0.019 C 
ENDBRANCH  23  26
ENDBRANCH   7  22
BRANCH   1  29
HETATM   29  C   UNL     1      40.081 -13.794  -0.671  1.00  0.00     0.154 A 
HETATM   30  N   UNL     1      38.963 -13.123  -0.346  1.00  0.00    -0.123 NA
HETATM   31  O   UNL     1      38.005 -13.493  -1.269  1.00  0.00    -0.217 OA
HETATM   32  C   UNL     1      38.551 -14.339  -2.181  1.00  0.00     0.084 A 
HETATM   33  C   UNL     1      39.870 -14.543  -1.862  1.00  0.00     0.075 A 
BRANCH  32  34
HETATM   34  C   UNL     1      37.661 -14.847  -3.264  1.00  0.00     0.037 C 
HETATM   35  C   UNL     1      38.417 -15.746  -4.242  1.00  0.00     0.016 C 
HETATM   36  C   UNL     1      36.993 -13.686  -4.003  1.00  0.00     0.016 C 
ENDBRANCH  32  34
ENDBRANCH   1  29
TORSDOF 8
ENDMDL
MODEL 2
REMARK VINA RESULT:      -7.9      2.671      8.933
REMARK  8 active torsions:
REMARK  status: ('A' for Active; 'I' for Inactive)
REMARK    1  A    between atoms: C_2  and  C_3 
REMARK    2  A    between atoms: C_6  and  C_7 
REMARK       I    between atoms: C_7  and  N_8 
REMARK    3  A    between atoms: C_12  and  O_13 
REMARK    4  A    between atoms: O_13  and  C_14 
REMARK    5  A    between atoms: C_14  and  C_15 
REMARK    6  A    between atoms: C_15  and  O_16 
REMARK    7  A    between atoms: C_18  and  N_19 
REMARK       I    between atoms: N_19  and  C_20 
REMARK    8  A    between atoms: C_20  and  C_21 
ROOT
HETATM    1  C   UNL     1      42.556 -14.979   3.985  1.00  0.00     0.274 C 
HETATM    2  N   UNL     1      42.119 -14.716   2.677  1.00  0.00    -0.347 N 
HETATM    3  C   UNL     1      41.385 -15.646   1.819  1.00  0.00     0.127 C 
HETATM    4  C   UNL     1      40.096 -15.001   1.317  1.00  0.00     0.037 C 
HETATM    5  C   UNL     1      40.341 -13.650   0.609  1.00  0.00     0.019 C 
HETATM    6  C   UNL     1      41.044 -13.786  -0.801  1.00  0.00     0.162 C 
HETATM    7  C   UNL     1      40.270 -12.860  -1.798  1.00  0.00     0.148 C 
HETATM    8  C   UNL     1      38.977 -12.597  -1.084  1.00  0.00    -0.026 A 
HETATM    9  C   UNL     1      39.020 -12.994   0.251  1.00  0.00    -0.038 A 
HETATM   10  C   UNL     1      37.848 -11.983  -1.616  1.00  0.00     0.010 A 
HETATM   11  C   UNL     1      36.750 -11.757  -0.785  1.00  0.00     0.001 A 
HETATM   12  C   UNL     1      36.795 -12.136   0.561  1.00  0.00     0.001 A 
HETATM   13  C   UNL     1      37.932 -12.757   1.085  1.00  0.00     0.009 A 
HETATM   14  C   UNL     1      41.153 -12.730   1.551  1.00  0.00     0.037 C 
HETATM   15  C   UNL     1      42.415 -13.417   2.080  1.00  0.00     0.127 C 
HETATM   16  O   UNL     1      42.958 -14.068   4.712  1.00  0.00    -0.266 OA
ENDROOT
BRANCH   6  17
HETATM   17  O   UNL     1      40.999 -15.159  -1.244  1.00  0.00    -0.380 OA
BRANCH  17  18
HETATM   18  C   UNL     1      41.193 -15.297  -2.655  1.00  0.00     0.194 C 
BRANCH  18  19
HETATM   19  C   UNL     1      40.157 -16.266  -3.215  1.00  0.00     0.193 C 
BRANCH  19  20
HETATM   20  O   UNL     1      39.458 -15.644  -4.292  1.00  0.00    -0.394 OA
HETATM   21  C   UNL     1      38.135 -15.281  -3.921  1.00  0.00     0.201 C 
ENDBRANCH  19  20
ENDBRANCH  18  19
ENDBRANCH  17  18
ENDBRANCH   6  17
BRANCH   7  22
HETATM   22  N   UNL     1      40.924 -11.596  -2.102  1.00  0.00    -0.350 N 
HETATM   23  C   UNL     1      41.555 -11.385  -3.303  1.00  0.00     0.221 C 
HETATM   24  O   UNL     1      41.814 -12.292  -4.088  1.00  0.00    -0.273 OA
HETATM   25  H   UNL     1      40.627 -10.791  -1.567  1.00  0.00     0.163 HD
BRANCH  23  26
HETATM   26  C   UNL     1      41.865  -9.930  -3.636  1.00  0.00     0.070 C 
HETATM   27  C   UNL     1      42.741  -9.317  -2.545  1.00  0.00     0.019 C 
HETATM   28  C   UNL     1      42.500  -9.775  -5.014  1.00  0.00     0.019 C 
ENDBRANCH  23  26
ENDBRANCH   7  22
BRANCH   1  29
HETATM   29  C   UNL     1      42.510 -16.350   4.519  1.00  0.00     0.154 A 
HETATM   30  N   UNL     1      41.408 -16.921   5.033  1.00  0.00    -0.123 NA
HETATM   31  O   UNL     1      41.771 -18.199   5.410  1.00  0.00    -0.217 OA
HETATM   32  C   UNL     1      43.069 -18.423   5.076  1.00  0.00     0.084 A 
HETATM   33  C   UNL     1      43.576 -17.292   4.486  1.00  0.00     0.075 A 
BRANCH  32  34
HETATM   34  C   UNL     1      43.640 -19.759   5.406  1.00  0.00     0.037 C 
HETATM   35  C   UNL     1      43.757 -19.967   6.916  1.00  0.00     0.016 C 
HETATM   36  C   UNL     1      44.998 -19.949   4.728  1.00  0.00     0.016 C 
ENDBRANCH  32  34
ENDBRANCH   1  29
TORSDOF 8
ENDMDL
MODEL 3
REMARK VINA RESULT:      -7.9      3.103      8.274
REMARK  8 active torsions:
REMARK  status: ('A' for Active; 'I' for Inactive)
REMARK    1  A    between atoms: C_2  and  C_3 
REMARK    2  A    between atoms: C_6  and  C_7 
REMARK       I    between atoms: C_7  and  N_8 
REMARK    3  A    between atoms: C_12  and  O_13 
REMARK    4  A    between atoms: O_13  and  C_14 
REMARK    5  A    between atoms: C_14  and  C_15 
REMARK    6  A    between atoms: C_15  and  O_16 
REMARK    7  A    between atoms: C_18  and  N_19 
REMARK       I    between atoms: N_19  and  C_20 
REMARK    8  A    between atoms: C_20  and  C_21 
ROOT
HETATM    1  C   UNL     1      42.833 -16.211   3.234  1.00  0.00     0.274 C 
HETATM    2  N   UNL     1      42.566 -15.274   2.223  1.00  0.00    -0.347 N 
HETATM    3  C   UNL     1      42.210 -15.588   0.839  1.00  0.00     0.127 C 
HETATM    4  C   UNL     1      40.908 -14.892   0.453  1.00  0.00     0.037 C 
HETATM    5  C   UNL     1      40.953 -13.367   0.695  1.00  0.00     0.019 C 
HETATM    6  C   UNL     1      41.887 -12.587  -0.315  1.00  0.00     0.162 C 
HETATM    7  C   UNL     1      41.096 -11.328  -0.805  1.00  0.00     0.148 C 
HETATM    8  C   UNL     1      39.679 -11.652  -0.434  1.00  0.00    -0.026 A 
HETATM    9  C   UNL     1      39.593 -12.749   0.422  1.00  0.00    -0.038 A 
HETATM   10  C   UNL     1      38.541 -10.949  -0.818  1.00  0.00     0.010 A 
HETATM   11  C   UNL     1      37.301 -11.353  -0.323  1.00  0.00     0.001 A 
HETATM   12  C   UNL     1      37.212 -12.442   0.551  1.00  0.00     0.001 A 
HETATM   13  C   UNL     1      38.359 -13.145   0.927  1.00  0.00     0.009 A 
HETATM   14  C   UNL     1      41.371 -13.102   2.159  1.00  0.00     0.037 C 
HETATM   15  C   UNL     1      42.652 -13.850   2.537  1.00  0.00     0.127 C 
HETATM   16  O   UNL     1      42.895 -15.864   4.415  1.00  0.00    -0.266 OA
ENDROOT
BRANCH   6  17
HETATM   17  O   UNL     1      42.227 -13.439  -1.430  1.00  0.00    -0.380 OA
BRANCH  17  18
HETATM   18  C   UNL     1      42.036 -12.802  -2.697  1.00  0.00     0.194 C 
BRANCH  18  19
HETATM   19  C   UNL     1      41.075 -13.634  -3.541  1.00  0.00     0.193 C 
BRANCH  19  20
HETATM   20  O   UNL     1      41.501 -14.996  -3.541  1.00  0.00    -0.394 OA
HETATM   21  C   UNL     1      40.452 -15.876  -3.164  1.00  0.00     0.201 C 
ENDBRANCH  19  20
ENDBRANCH  18  19
ENDBRANCH  17  18
ENDBRANCH   6  17
BRANCH   7  22
HETATM   22  N   UNL     1      41.487 -10.072  -0.183  1.00  0.00    -0.350 N 
HETATM   23  C   UNL     1      42.428  -9.251  -0.753  1.00  0.00     0.221 C 
HETATM   24  O   UNL     1      43.158  -9.612  -1.672  1.00  0.00    -0.273 OA
HETATM   25  H   UNL     1      40.835  -9.670   0.478  1.00  0.00     0.163 HD
BRANCH  23  26
HETATM   26  C   UNL     1      42.473  -7.827  -0.213  1.00  0.00     0.070 C 
HETATM   27  C   UNL     1      41.302  -7.590   0.740  1.00  0.00     0.019 C 
HETATM   28  C   UNL     1      43.807  -7.500   0.450  1.00  0.00     0.019 C 
ENDBRANCH  23  26
ENDBRANCH   7  22
BRANCH   1  29
HETATM   29  C   UNL     1      43.012 -17.632   2.895  1.00  0.00     0.154 A 
HETATM   30  N   UNL     1      42.130 -18.353   2.184  1.00  0.00    -0.123 NA
HETATM   31  O   UNL     1      42.662 -19.623   2.077  1.00  0.00    -0.217 OA
HETATM   32  C   UNL     1      43.884 -19.659   2.670  1.00  0.00     0.084 A 
HETATM   33  C   UNL     1      44.164 -18.417   3.182  1.00  0.00     0.075 A 
BRANCH  32  34
HETATM   34  C   UNL     1      44.617 -20.956   2.651  1.00  0.00     0.037 C 
HETATM   35  C   UNL     1      43.973 -21.956   1.691  1.00  0.00     0.016 C 
HETATM   36  C   UNL     1      44.712 -21.544   4.060  1.00  0.00     0.016 C 
ENDBRANCH  32  34
ENDBRANCH   1  29
TORSDOF 8
ENDMDL
MODEL 4
REMARK VINA RESULT:      -7.8      2.724      7.786
REMARK  8 active torsions:
REMARK  status: ('A' for Active; 'I' for Inactive)
REMARK    1  A    between atoms: C_2  and  C_3 
REMARK    2  A    between atoms: C_6  and  C_7 
REMARK       I    between atoms: C_7  and  N_8 
REMARK    3  A    between atoms: C_12  and  O_13 
REMARK    4  A    between atoms: O_13  and  C_14 
REMARK    5  A    between atoms: C_14  and  C_15 
REMARK    6  A    between atoms: C_15  and  O_16 
REMARK    7  A    between atoms: C_18  and  N_19 
REMARK       I    between atoms: N_19  and  C_20 
REMARK    8  A    between atoms: C_20  and  C_21 
ROOT
HETATM    1  C   UNL     1      42.182 -16.726   5.289  1.00  0.00     0.274 C 
HETATM    2  N   UNL     1      41.966 -15.589   4.495  1.00  0.00    -0.347 N 
HETATM    3  C   UNL     1      42.431 -15.408   3.119  1.00  0.00     0.127 C 
HETATM    4  C   UNL     1      41.262 -15.045   2.206  1.00  0.00     0.037 C 
HETATM    5  C   UNL     1      40.477 -13.813   2.706  1.00  0.00     0.019 C 
HETATM    6  C   UNL     1      41.262 -12.449   2.554  1.00  0.00     0.162 C 
HETATM    7  C   UNL     1      40.269 -11.403   1.948  1.00  0.00     0.148 C 
HETATM    8  C   UNL     1      39.168 -12.261   1.396  1.00  0.00    -0.026 A 
HETATM    9  C   UNL     1      39.253 -13.579   1.839  1.00  0.00    -0.038 A 
HETATM   10  C   UNL     1      38.123 -11.842   0.578  1.00  0.00     0.010 A 
HETATM   11  C   UNL     1      37.144 -12.766   0.211  1.00  0.00     0.001 A 
HETATM   12  C   UNL     1      37.214 -14.086   0.669  1.00  0.00     0.001 A 
HETATM   13  C   UNL     1      38.270 -14.499   1.485  1.00  0.00     0.009 A 
HETATM   14  C   UNL     1      40.050 -14.050   4.173  1.00  0.00     0.037 C 
HETATM   15  C   UNL     1      41.230 -14.461   5.058  1.00  0.00     0.127 C 
HETATM   16  O   UNL     1      41.562 -16.887   6.343  1.00  0.00    -0.266 OA
ENDROOT
BRANCH   6  17
HETATM   17  O   UNL     1      42.402 -12.630   1.687  1.00  0.00    -0.380 OA
BRANCH  17  18
HETATM   18  C   UNL     1      42.314 -11.862   0.483  1.00  0.00     0.194 C 
BRANCH  18  19
HETATM   19  C   UNL     1      42.357 -12.801  -0.719  1.00  0.00     0.193 C 
BRANCH  19  20
HETATM   20  O   UNL     1      41.030 -13.021  -1.196  1.00  0.00    -0.394 OA
HETATM   21  C   UNL     1      40.780 -14.398  -1.441  1.00  0.00     0.201 C 
ENDBRANCH  19  20
ENDBRANCH  18  19
ENDBRANCH  17  18
ENDBRANCH   6  17
BRANCH   7  22
HETATM   22  N   UNL     1      39.714 -10.452   2.899  1.00  0.00    -0.350 N 
HETATM   23  C   UNL     1      39.589  -9.120   2.592  1.00  0.00     0.221 C 
HETATM   24  O   UNL     1      40.133  -8.606   1.620  1.00  0.00    -0.273 OA
HETATM   25  H   UNL     1      39.136 -10.832   3.637  1.00  0.00     0.163 HD
BRANCH  23  26
HETATM   26  C   UNL     1      38.671  -8.317   3.507  1.00  0.00     0.070 C 
HETATM   27  C   UNL     1      37.594  -9.225   4.098  1.00  0.00     0.019 C 
HETATM   28  C   UNL     1      39.441  -7.582   4.599  1.00  0.00     0.019 C 
ENDBRANCH  23  26
ENDBRANCH   7  22
BRANCH   1  29
HETATM   29  C   UNL     1      43.134 -17.762   4.855  1.00  0.00     0.154 A 
HETATM   30  N   UNL     1      44.329 -17.974   5.432  1.00  0.00    -0.123 NA
HETATM   31  O   UNL     1      44.908 -19.026   4.750  1.00  0.00    -0.217 OA
HETATM   32  C   UNL     1      44.049 -19.486   3.802  1.00  0.00     0.084 A 
HETATM   33  C   UNL     1      42.901 -18.735   3.844  1.00  0.00     0.075 A 
BRANCH  32  34
HETATM   34  C   UNL     1      44.505 -20.629   2.961  1.00  0.00     0.037 C 
HETATM   35  C   UNL     1      43.536 -20.906   1.812  1.00  0.00     0.016 C 
HETATM   36  C   UNL     1      44.704 -21.882   3.814  1.00  0.00     0.016 C 
ENDBRANCH  32  34
ENDBRANCH   1  29
TORSDOF 8
ENDMDL
MODEL 5
REMARK VINA RESULT:      -7.7      2.450      4.884
REMARK  8 active torsions:
REMARK  status: ('A' for Active; 'I' for Inactive)
REMARK    1  A    between atoms: C_2  and  C_3 
REMARK    2  A    between atoms: C_6  and  C_7 
REMARK       I    between atoms: C_7  and  N_8 
REMARK    3  A    between atoms: C_12  and  O_13 
REMARK    4  A    between atoms: O_13  and  C_14 
REMARK    5  A    between atoms: C_14  and  C_15 
REMARK    6  A    between atoms: C_15  and  O_16 
REMARK    7  A    between atoms: C_18  and  N_19 
REMARK       I    between atoms: N_19  and  C_20 
REMARK    8  A    between atoms: C_20  and  C_21 
ROOT
HETATM    1  C   UNL     1      39.164 -14.481   0.873  1.00  0.00     0.274 C 
HETATM    2  N   UNL     1      40.287 -15.020   1.520  1.00  0.00    -0.347 N 
HETATM    3  C   UNL     1      41.683 -14.715   1.203  1.00  0.00     0.127 C 
HETATM    4  C   UNL     1      42.423 -14.250   2.454  1.00  0.00     0.037 C 
HETATM    5  C   UNL     1      42.313 -15.257   3.620  1.00  0.00     0.019 C 
HETATM    6  C   UNL     1      43.141 -16.586   3.398  1.00  0.00     0.162 C 
HETATM    7  C   UNL     1      43.911 -16.884   4.727  1.00  0.00     0.148 C 
HETATM    8  C   UNL     1      43.855 -15.572   5.453  1.00  0.00    -0.026 A 
HETATM    9  C   UNL     1      42.951 -14.685   4.873  1.00  0.00    -0.038 A 
HETATM   10  C   UNL     1      44.557 -15.234   6.607  1.00  0.00     0.010 A 
HETATM   11  C   UNL     1      44.333 -13.987   7.189  1.00  0.00     0.001 A 
HETATM   12  C   UNL     1      43.411 -13.099   6.622  1.00  0.00     0.001 A 
HETATM   13  C   UNL     1      42.716 -13.445   5.461  1.00  0.00     0.009 A 
HETATM   14  C   UNL     1      40.820 -15.566   3.878  1.00  0.00     0.037 C 
HETATM   15  C   UNL     1      40.088 -15.982   2.600  1.00  0.00     0.127 C 
HETATM   16  O   UNL     1      38.036 -14.612   1.353  1.00  0.00    -0.266 OA
ENDROOT
BRANCH   6  17
HETATM   17  O   UNL     1      44.065 -16.413   2.303  1.00  0.00    -0.380 OA
BRANCH  17  18
HETATM   18  C   UNL     1      44.167 -17.572   1.470  1.00  0.00     0.194 C 
BRANCH  18  19
HETATM   19  C   UNL     1      42.817 -18.281   1.424  1.00  0.00     0.193 C 
BRANCH  19  20
HETATM   20  O   UNL     1      42.840 -19.403   2.304  1.00  0.00    -0.394 OA
HETATM   21  C   UNL     1      43.897 -20.298   1.989  1.00  0.00     0.201 C 
ENDBRANCH  19  20
ENDBRANCH  18  19
ENDBRANCH  17  18
ENDBRANCH   6  17
BRANCH   7  22
HETATM   22  N   UNL     1      43.328 -17.926   5.560  1.00  0.00    -0.350 N 
HETATM   23  C   UNL     1      43.990 -19.103   5.805  1.00  0.00     0.221 C 
HETATM   24  O   UNL     1      44.982 -19.454   5.173  1.00  0.00    -0.273 OA
HETATM   25  H   UNL     1      42.601 -17.640   6.202  1.00  0.00     0.163 HD
BRANCH  23  26
HETATM   26  C   UNL     1      43.451 -19.931   6.965  1.00  0.00     0.070 C 
HETATM   27  C   UNL     1      43.792 -21.406   6.760  1.00  0.00     0.019 C 
HETATM   28  C   UNL     1      43.947 -19.427   8.317  1.00  0.00     0.019 C 
ENDBRANCH  23  26
ENDBRANCH   7  22
BRANCH   1  29
HETATM   29  C   UNL     1      39.324 -13.721  -0.377  1.00  0.00     0.154 A 
HETATM   30  N   UNL     1      39.240 -14.264  -1.603  1.00  0.00    -0.123 NA
HETATM   31  O   UNL     1      39.436 -13.232  -2.500  1.00  0.00    -0.217 OA
HETATM   32  C   UNL     1      39.582 -12.061  -1.826  1.00  0.00     0.084 A 
HETATM   33  C   UNL     1      39.495 -12.312  -0.479  1.00  0.00     0.075 A 
BRANCH  32  34
HETATM   34  C   UNL     1      39.803 -10.828  -2.633  1.00  0.00     0.037 C 
HETATM   35  C   UNL     1      40.149 -11.158  -4.085  1.00  0.00     0.016 C 
HETATM   36  C   UNL     1      40.890  -9.957  -2.003  1.00  0.00     0.016 C 
ENDBRANCH  32  34
ENDBRANCH   1  29
TORSDOF 8
ENDMDL
MODEL 6
REMARK VINA RESULT:      -7.5      3.335      7.490
REMARK  8 active torsions:
REMARK  status: ('A' for Active; 'I' for Inactive)
REMARK    1  A    between atoms: C_2  and  C_3 
REMARK    2  A    between atoms: C_6  and  C_7 
REMARK       I    between atoms: C_7  and  N_8 
REMARK    3  A    between atoms: C_12  and  O_13 
REMARK    4  A    between atoms: O_13  and  C_14 
REMARK    5  A    between atoms: C_14  and  C_15 
REMARK    6  A    between atoms: C_15  and  O_16 
REMARK    7  A    between atoms: C_18  and  N_19 
REMARK       I    between atoms: N_19  and  C_20 
REMARK    8  A    between atoms: C_20  and  C_21 
ROOT
HETATM    1  C   UNL     1      40.901 -16.913   2.448  1.00  0.00     0.274 C 
HETATM    2  N   UNL     1      40.910 -15.534   2.708  1.00  0.00    -0.347 N 
HETATM    3  C   UNL     1      42.023 -14.781   3.287  1.00  0.00     0.127 C 
HETATM    4  C   UNL     1      42.396 -13.606   2.387  1.00  0.00     0.037 C 
HETATM    5  C   UNL     1      41.193 -12.689   2.074  1.00  0.00     0.019 C 
HETATM    6  C   UNL     1      40.707 -11.830   3.309  1.00  0.00     0.162 C 
HETATM    7  C   UNL     1      40.486 -10.366   2.801  1.00  0.00     0.148 C 
HETATM    8  C   UNL     1      41.231 -10.343   1.498  1.00  0.00    -0.026 A 
HETATM    9  C   UNL     1      41.590 -11.620   1.072  1.00  0.00    -0.038 A 
HETATM   10  C   UNL     1      41.516  -9.220   0.727  1.00  0.00     0.010 A 
HETATM   11  C   UNL     1      42.163  -9.391  -0.497  1.00  0.00     0.001 A 
HETATM   12  C   UNL     1      42.509 -10.673  -0.938  1.00  0.00     0.001 A 
HETATM   13  C   UNL     1      42.224 -11.794  -0.155  1.00  0.00     0.009 A 
HETATM   14  C   UNL     1      40.041 -13.549   1.504  1.00  0.00     0.037 C 
HETATM   15  C   UNL     1      39.719 -14.748   2.399  1.00  0.00     0.127 C 
HETATM   16  O   UNL     1      40.019 -17.419   1.751  1.00  0.00    -0.266 OA
ENDROOT
BRANCH   6  17
HETATM   17  O   UNL     1      41.702 -11.860   4.354  1.00  0.00    -0.380 OA
BRANCH  17  18
HETATM   18  C   UNL     1      41.134 -11.942   5.664  1.00  0.00     0.194 C 
BRANCH  18  19
HETATM   19  C   UNL     1      39.845 -12.756   5.605  1.00  0.00     0.193 C 
BRANCH  19  20
HETATM   20  O   UNL     1      38.977 -12.346   6.662  1.00  0.00    -0.394 OA
HETATM   21  C   UNL     1      39.631 -11.474   7.572  1.00  0.00     0.201 C 
ENDBRANCH  19  20
ENDBRANCH  18  19
ENDBRANCH  17  18
ENDBRANCH   6  17
BRANCH   7  22
HETATM   22  N   UNL     1      39.098  -9.992   2.574  1.00  0.00    -0.350 N 
HETATM   23  C   UNL     1      38.325  -9.462   3.576  1.00  0.00     0.221 C 
HETATM   24  O   UNL     1      38.659  -9.482   4.757  1.00  0.00    -0.273 OA
HETATM   25  H   UNL     1      38.824  -9.825   1.615  1.00  0.00     0.163 HD
BRANCH  23  26
HETATM   26  C   UNL     1      37.038  -8.781   3.124  1.00  0.00     0.070 C 
HETATM   27  C   UNL     1      36.327  -9.642   2.082  1.00  0.00     0.019 C 
HETATM   28  C   UNL     1      36.118  -8.448   4.294  1.00  0.00     0.019 C 
ENDBRANCH  23  26
ENDBRANCH   7  22
BRANCH   1  29
HETATM   29  C   UNL     1      41.970 -17.773   2.983  1.00  0.00     0.154 A 
HETATM   30  N   UNL     1      42.262 -17.885   4.290  1.00  0.00    -0.123 NA
HETATM   31  O   UNL     1      43.306 -18.784   4.379  1.00  0.00    -0.217 OA
HETATM   32  C   UNL     1      43.610 -19.257   3.141  1.00  0.00     0.084 A 
HETATM   33  C   UNL     1      42.776 -18.667   2.224  1.00  0.00     0.075 A 
BRANCH  32  34
HETATM   34  C   UNL     1      44.719 -20.247   3.039  1.00  0.00     0.037 C 
HETATM   35  C   UNL     1      44.330 -21.446   2.174  1.00  0.00     0.016 C 
HETATM   36  C   UNL     1      45.164 -20.705   4.429  1.00  0.00     0.016 C 
ENDBRANCH  32  34
ENDBRANCH   1  29
TORSDOF 8
ENDMDL
MODEL 7
REMARK VINA RESULT:      -7.4      3.419      7.715
REMARK  8 active torsions:
REMARK  status: ('A' for Active; 'I' for Inactive)
REMARK    1  A    between atoms: C_2  and  C_3 
REMARK    2  A    between atoms: C_6  and  C_7 
REMARK       I    between atoms: C_7  and  N_8 
REMARK    3  A    between atoms: C_12  and  O_13 
REMARK    4  A    between atoms: O_13  and  C_14 
REMARK    5  A    between atoms: C_14  and  C_15 
REMARK    6  A    between atoms: C_15  and  O_16 
REMARK    7  A    between atoms: C_18  and  N_19 
REMARK       I    between atoms: N_19  and  C_20 
REMARK    8  A    between atoms: C_20  and  C_21 
ROOT
HETATM    1  C   UNL     1      41.150 -16.756   2.665  1.00  0.00     0.274 C 
HETATM    2  N   UNL     1      41.058 -15.393   2.989  1.00  0.00    -0.347 N 
HETATM    3  C   UNL     1      42.138 -14.571   3.536  1.00  0.00     0.127 C 
HETATM    4  C   UNL     1      42.353 -13.332   2.672  1.00  0.00     0.037 C 
HETATM    5  C   UNL     1      41.060 -12.511   2.474  1.00  0.00     0.019 C 
HETATM    6  C   UNL     1      40.581 -11.750   3.775  1.00  0.00     0.162 C 
HETATM    7  C   UNL     1      40.206 -10.291   3.351  1.00  0.00     0.148 C 
HETATM    8  C   UNL     1      40.862 -10.148   2.010  1.00  0.00    -0.026 A 
HETATM    9  C   UNL     1      41.301 -11.370   1.503  1.00  0.00    -0.038 A 
HETATM   10  C   UNL     1      41.002  -8.973   1.277  1.00  0.00     0.010 A 
HETATM   11  C   UNL     1      41.583  -9.035   0.010  1.00  0.00     0.001 A 
HETATM   12  C   UNL     1      42.007 -10.262  -0.511  1.00  0.00     0.001 A 
HETATM   13  C   UNL     1      41.868 -11.436   0.234  1.00  0.00     0.009 A 
HETATM   14  C   UNL     1      39.951 -13.443   1.934  1.00  0.00     0.037 C 
HETATM   15  C   UNL     1      39.788 -14.702   2.788  1.00  0.00     0.127 C 
HETATM   16  O   UNL     1      40.271 -17.307   1.998  1.00  0.00    -0.266 OA
ENDROOT
BRANCH   6  17
HETATM   17  O   UNL     1      41.640 -11.737   4.757  1.00  0.00    -0.380 OA
BRANCH  17  18
HETATM   18  C   UNL     1      41.156 -11.820   6.101  1.00  0.00     0.194 C 
BRANCH  18  19
HETATM   19  C   UNL     1      40.034 -12.851   6.171  1.00  0.00     0.193 C 
BRANCH  19  20
HETATM   20  O   UNL     1      38.969 -12.339   6.971  1.00  0.00    -0.394 OA
HETATM   21  C   UNL     1      39.453 -11.558   8.054  1.00  0.00     0.201 C 
ENDBRANCH  19  20
ENDBRANCH  18  19
ENDBRANCH  17  18
ENDBRANCH   6  17
BRANCH   7  22
HETATM   22  N   UNL     1      38.780 -10.030   3.225  1.00  0.00    -0.350 N 
HETATM   23  C   UNL     1      38.051  -9.508   4.264  1.00  0.00     0.221 C 
HETATM   24  O   UNL     1      38.479  -9.445   5.413  1.00  0.00    -0.273 OA
HETATM   25  H   UNL     1      38.417  -9.932   2.286  1.00  0.00     0.163 HD
BRANCH  23  26
HETATM   26  C   UNL     1      36.684  -8.946   3.892  1.00  0.00     0.070 C 
HETATM   27  C   UNL     1      36.222  -7.946   4.950  1.00  0.00     0.019 C 
HETATM   28  C   UNL     1      36.672  -8.328   2.497  1.00  0.00     0.019 C 
ENDBRANCH  23  26
ENDBRANCH   7  22
BRANCH   1  29
HETATM   29  C   UNL     1      42.319 -17.541   3.094  1.00  0.00     0.154 A 
HETATM   30  N   UNL     1      43.421 -17.719   2.346  1.00  0.00    -0.123 NA
HETATM   31  O   UNL     1      44.280 -18.497   3.098  1.00  0.00    -0.217 OA
HETATM   32  C   UNL     1      43.727 -18.744   4.314  1.00  0.00     0.084 A 
HETATM   33  C   UNL     1      42.495 -18.140   4.372  1.00  0.00     0.075 A 
BRANCH  32  34
HETATM   34  C   UNL     1      44.515 -19.573   5.270  1.00  0.00     0.037 C 
HETATM   35  C   UNL     1      44.991 -20.876   4.627  1.00  0.00     0.016 C 
HETATM   36  C   UNL     1      43.705 -19.858   6.534  1.00  0.00     0.016 C 
ENDBRANCH  32  34
ENDBRANCH   1  29
TORSDOF 8
ENDMDL
MODEL 8
REMARK VINA RESULT:      -7.2      2.887      8.930
REMARK  8 active torsions:
REMARK  status: ('A' for Active; 'I' for Inactive)
REMARK    1  A    between atoms: C_2  and  C_3 
REMARK    2  A    between atoms: C_6  and  C_7 
REMARK       I    between atoms: C_7  and  N_8 
REMARK    3  A    between atoms: C_12  and  O_13 
REMARK    4  A    between atoms: O_13  and  C_14 
REMARK    5  A    between atoms: C_14  and  C_15 
REMARK    6  A    between atoms: C_15  and  O_16 
REMARK    7  A    between atoms: C_18  and  N_19 
REMARK       I    between atoms: N_19  and  C_20 
REMARK    8  A    between atoms: C_20  and  C_21 
ROOT
HETATM    1  C   UNL     1      41.694 -13.444   4.659  1.00  0.00     0.274 C 
HETATM    2  N   UNL     1      41.277 -13.467   3.319  1.00  0.00    -0.347 N 
HETATM    3  C   UNL     1      40.502 -14.533   2.684  1.00  0.00     0.127 C 
HETATM    4  C   UNL     1      39.249 -13.961   2.027  1.00  0.00     0.037 C 
HETATM    5  C   UNL     1      39.564 -12.820   1.034  1.00  0.00     0.019 C 
HETATM    6  C   UNL     1      40.265 -13.307  -0.296  1.00  0.00     0.162 C 
HETATM    7  C   UNL     1      39.543 -12.598  -1.491  1.00  0.00     0.148 C 
HETATM    8  C   UNL     1      38.261 -12.119  -0.876  1.00  0.00    -0.026 A 
HETATM    9  C   UNL     1      38.278 -12.202   0.515  1.00  0.00    -0.038 A 
HETATM   10  C   UNL     1      37.165 -11.591  -1.552  1.00  0.00     0.010 A 
HETATM   11  C   UNL     1      36.076 -11.130  -0.812  1.00  0.00     0.001 A 
HETATM   12  C   UNL     1      36.096 -11.193   0.586  1.00  0.00     0.001 A 
HETATM   13  C   UNL     1      37.199 -11.730   1.256  1.00  0.00     0.009 A 
HETATM   14  C   UNL     1      40.415 -11.749   1.754  1.00  0.00     0.037 C 
HETATM   15  C   UNL     1      41.639 -12.354   2.446  1.00  0.00     0.127 C 
HETATM   16  O   UNL     1      42.137 -12.411   5.165  1.00  0.00    -0.266 OA
ENDROOT
BRANCH   6  17
HETATM   17  O   UNL     1      40.155 -14.742  -0.416  1.00  0.00    -0.380 OA
BRANCH  17  18
HETATM   18  C   UNL     1      41.389 -15.368  -0.776  1.00  0.00     0.194 C 
BRANCH  18  19
HETATM   19  C   UNL     1      41.636 -16.563   0.139  1.00  0.00     0.193 C 
BRANCH  19  20
HETATM   20  O   UNL     1      42.858 -16.372   0.850  1.00  0.00    -0.394 OA
HETATM   21  C   UNL     1      43.576 -17.589   0.998  1.00  0.00     0.201 C 
ENDBRANCH  19  20
ENDBRANCH  18  19
ENDBRANCH  17  18
ENDBRANCH   6  17
BRANCH   7  22
HETATM   22  N   UNL     1      40.259 -11.469  -2.065  1.00  0.00    -0.350 N 
HETATM   23  C   UNL     1      41.180 -11.639  -3.068  1.00  0.00     0.221 C 
HETATM   24  O   UNL     1      41.628 -12.737  -3.382  1.00  0.00    -0.273 OA
HETATM   25  H   UNL     1      39.838 -10.557  -1.947  1.00  0.00     0.163 HD
BRANCH  23  26
HETATM   26  C   UNL     1      41.574 -10.373  -3.821  1.00  0.00     0.070 C 
HETATM   27  C   UNL     1      42.479  -9.504  -2.950  1.00  0.00     0.019 C 
HETATM   28  C   UNL     1      42.221 -10.678  -5.168  1.00  0.00     0.019 C 
ENDBRANCH  23  26
ENDBRANCH   7  22
BRANCH   1  29
HETATM   29  C   UNL     1      41.578 -14.654   5.490  1.00  0.00     0.154 A 
HETATM   30  N   UNL     1      40.413 -15.151   5.937  1.00  0.00    -0.123 NA
HETATM   31  O   UNL     1      40.725 -16.283   6.663  1.00  0.00    -0.217 OA
HETATM   32  C   UNL     1      42.065 -16.504   6.613  1.00  0.00     0.084 A 
HETATM   33  C   UNL     1      42.649 -15.514   5.861  1.00  0.00     0.075 A 
BRANCH  32  34
HETATM   34  C   UNL     1      42.592 -17.691   7.343  1.00  0.00     0.037 C 
HETATM   35  C   UNL     1      43.497 -17.283   8.506  1.00  0.00     0.016 C 
HETATM   36  C   UNL     1      43.329 -18.630   6.388  1.00  0.00     0.016 C 
ENDBRANCH  32  34
ENDBRANCH   1  29
TORSDOF 8
ENDMDL
MODEL 9
REMARK VINA RESULT:      -7.1      3.028      8.142
REMARK  8 active torsions:
REMARK  status: ('A' for Active; 'I' for Inactive)
REMARK    1  A    between atoms: C_2  and  C_3 
REMARK    2  A    between atoms: C_6  and  C_7 
REMARK       I    between atoms: C_7  and  N_8 
REMARK    3  A    between atoms: C_12  and  O_13 
REMARK    4  A    between atoms: O_13  and  C_14 
REMARK    5  A    between atoms: C_14  and  C_15 
REMARK    6  A    between atoms: C_15  and  O_16 
REMARK    7  A    between atoms: C_18  and  N_19 
REMARK       I    between atoms: N_19  and  C_20 
REMARK    8  A    between atoms: C_20  and  C_21 
ROOT
HETATM    1  C   UNL     1      40.959 -16.953   2.334  1.00  0.00     0.274 C 
HETATM    2  N   UNL     1      40.629 -15.589   2.346  1.00  0.00    -0.347 N 
HETATM    3  C   UNL     1      41.233 -14.572   3.207  1.00  0.00     0.127 C 
HETATM    4  C   UNL     1      41.772 -13.416   2.368  1.00  0.00     0.037 C 
HETATM    5  C   UNL     1      40.702 -12.807   1.436  1.00  0.00     0.019 C 
HETATM    6  C   UNL     1      39.588 -11.981   2.196  1.00  0.00     0.162 C 
HETATM    7  C   UNL     1      39.382 -10.642   1.412  1.00  0.00     0.148 C 
HETATM    8  C   UNL     1      40.612 -10.558   0.557  1.00  0.00    -0.026 A 
HETATM    9  C   UNL     1      41.324 -11.756   0.534  1.00  0.00    -0.038 A 
HETATM   10  C   UNL     1      41.024  -9.462  -0.195  1.00  0.00     0.010 A 
HETATM   11  C   UNL     1      42.164  -9.581  -0.990  1.00  0.00     0.001 A 
HETATM   12  C   UNL     1      42.871 -10.788  -1.032  1.00  0.00     0.001 A 
HETATM   13  C   UNL     1      42.453 -11.881  -0.269  1.00  0.00     0.009 A 
HETATM   14  C   UNL     1      40.076 -13.935   0.584  1.00  0.00     0.037 C 
HETATM   15  C   UNL     1      39.589 -15.104   1.443  1.00  0.00     0.127 C 
HETATM   16  O   UNL     1      40.570 -17.689   1.424  1.00  0.00    -0.266 OA
ENDROOT
BRANCH   6  17
HETATM   17  O   UNL     1      40.008 -11.717   3.552  1.00  0.00    -0.380 OA
BRANCH  17  18
HETATM   18  C   UNL     1      38.932 -11.778   4.492  1.00  0.00     0.194 C 
BRANCH  18  19
HETATM   19  C   UNL     1      39.379 -12.561   5.722  1.00  0.00     0.193 C 
BRANCH  19  20
HETATM   20  O   UNL     1      39.062 -11.819   6.898  1.00  0.00    -0.394 OA
HETATM   21  C   UNL     1      40.125 -10.956   7.278  1.00  0.00     0.201 C 
ENDBRANCH  19  20
ENDBRANCH  18  19
ENDBRANCH  17  18
ENDBRANCH   6  17
BRANCH   7  22
HETATM   22  N   UNL     1      38.198 -10.595   0.568  1.00  0.00    -0.350 N 
HETATM   23  C   UNL     1      36.979 -10.204   1.063  1.00  0.00     0.221 C 
HETATM   24  O   UNL     1      36.751 -10.097   2.264  1.00  0.00    -0.273 OA
HETATM   25  H   UNL     1      38.354 -10.536  -0.430  1.00  0.00     0.163 HD
BRANCH  23  26
HETATM   26  C   UNL     1      35.929  -9.846   0.017  1.00  0.00     0.070 C 
HETATM   27  C   UNL     1      36.503 -10.028  -1.387  1.00  0.00     0.019 C 
HETATM   28  C   UNL     1      34.638 -10.636   0.199  1.00  0.00     0.019 C 
ENDBRANCH  23  26
ENDBRANCH   7  22
BRANCH   1  29
HETATM   29  C   UNL     1      41.803 -17.520   3.399  1.00  0.00     0.154 A 
HETATM   30  N   UNL     1      41.373 -17.770   4.646  1.00  0.00    -0.123 NA
HETATM   31  O   UNL     1      42.449 -18.300   5.330  1.00  0.00    -0.217 OA
HETATM   32  C   UNL     1      43.510 -18.422   4.489  1.00  0.00     0.084 A 
HETATM   33  C   UNL     1      43.146 -17.964   3.247  1.00  0.00     0.075 A 
BRANCH  32  34
HETATM   34  C   UNL     1      44.771 -18.981   5.054  1.00  0.00     0.037 C 
HETATM   35  C   UNL     1      44.660 -20.485   5.305  1.00  0.00     0.016 C 
HETATM   36  C   UNL     1      45.161 -18.246   6.337  1.00  0.00     0.016 C 
ENDBRANCH  32  34
ENDBRANCH   1  29
TORSDOF 8
ENDMDL
MODEL 10
REMARK VINA RESULT:      -6.9      2.992      8.244
REMARK  8 active torsions:
REMARK  status: ('A' for Active; 'I' for Inactive)
REMARK    1  A    between atoms: C_2  and  C_3 
REMARK    2  A    between atoms: C_6  and  C_7 
REMARK       I    between atoms: C_7  and  N_8 
REMARK    3  A    between atoms: C_12  and  O_13 
REMARK    4  A    between atoms: O_13  and  C_14 
REMARK    5  A    between atoms: C_14  and  C_15 
REMARK    6  A    between atoms: C_15  and  O_16 
REMARK    7  A    between atoms: C_18  and  N_19 
REMARK       I    between atoms: N_19  and  C_20 
REMARK    8  A    between atoms: C_20  and  C_21 
ROOT
HETATM    1  C   UNL     1      41.549 -17.206   1.966  1.00  0.00     0.274 C 
HETATM    2  N   UNL     1      41.138 -15.863   1.965  1.00  0.00    -0.347 N 
HETATM    3  C   UNL     1      41.751 -14.782   2.738  1.00  0.00     0.127 C 
HETATM    4  C   UNL     1      42.142 -13.628   1.820  1.00  0.00     0.037 C 
HETATM    5  C   UNL     1      40.959 -13.116   0.969  1.00  0.00     0.019 C 
HETATM    6  C   UNL     1      39.866 -12.331   1.799  1.00  0.00     0.162 C 
HETATM    7  C   UNL     1      39.511 -11.035   0.996  1.00  0.00     0.148 C 
HETATM    8  C   UNL     1      40.655 -10.909   0.033  1.00  0.00    -0.026 A 
HETATM    9  C   UNL     1      41.434 -12.064  -0.017  1.00  0.00    -0.038 A 
HETATM   10  C   UNL     1      40.931  -9.819  -0.786  1.00  0.00     0.010 A 
HETATM   11  C   UNL     1      42.003  -9.899  -1.675  1.00  0.00     0.001 A 
HETATM   12  C   UNL     1      42.777 -11.062  -1.742  1.00  0.00     0.001 A 
HETATM   13  C   UNL     1      42.496 -12.151  -0.913  1.00  0.00     0.009 A 
HETATM   14  C   UNL     1      40.333 -14.309   0.210  1.00  0.00     0.037 C 
HETATM   15  C   UNL     1      39.995 -15.473   1.145  1.00  0.00     0.127 C 
HETATM   16  O   UNL     1      41.129 -17.995   1.117  1.00  0.00    -0.266 OA
ENDROOT
BRANCH   6  17
HETATM   17  O   UNL     1      40.386 -11.994   3.103  1.00  0.00    -0.380 OA
BRANCH  17  18
HETATM   18  C   UNL     1      39.358 -11.768   4.072  1.00  0.00     0.194 C 
BRANCH  18  19
HETATM   19  C   UNL     1      39.811 -12.310   5.425  1.00  0.00     0.193 C 
BRANCH  19  20
HETATM   20  O   UNL     1      39.371 -13.660   5.566  1.00  0.00    -0.394 OA
HETATM   21  C   UNL     1      40.430 -14.519   5.964  1.00  0.00     0.201 C 
ENDBRANCH  19  20
ENDBRANCH  18  19
ENDBRANCH  17  18
ENDBRANCH   6  17
BRANCH   7  22
HETATM   22  N   UNL     1      38.258 -11.088   0.259  1.00  0.00    -0.350 N 
HETATM   23  C   UNL     1      37.078 -10.665   0.819  1.00  0.00     0.221 C 
HETATM   24  O   UNL     1      36.952 -10.441   2.019  1.00  0.00    -0.273 OA
HETATM   25  H   UNL     1      38.325 -11.127  -0.749  1.00  0.00     0.163 HD
BRANCH  23  26
HETATM   26  C   UNL     1      35.934 -10.427  -0.160  1.00  0.00     0.070 C 
HETATM   27  C   UNL     1      34.596 -10.727   0.513  1.00  0.00     0.019 C 
HETATM   28  C   UNL     1      35.959  -9.020  -0.749  1.00  0.00     0.019 C 
ENDBRANCH  23  26
ENDBRANCH   7  22
BRANCH   1  29
HETATM   29  C   UNL     1      42.516 -17.683   2.968  1.00  0.00     0.154 A 
HETATM   30  N   UNL     1      43.830 -17.835   2.733  1.00  0.00    -0.123 NA
HETATM   31  O   UNL     1      44.387 -18.287   3.913  1.00  0.00    -0.217 OA
HETATM   32  C   UNL     1      43.429 -18.355   4.874  1.00  0.00     0.084 A 
HETATM   33  C   UNL     1      42.230 -17.960   4.334  1.00  0.00     0.075 A 
BRANCH  32  34
HETATM   34  C   UNL     1      43.846 -18.824   6.226  1.00  0.00     0.037 C 
HETATM   35  C   UNL     1      45.120 -18.124   6.698  1.00  0.00     0.016 C 
HETATM   36  C   UNL     1      44.027 -20.343   6.239  1.00  0.00     0.016 C 
ENDBRANCH  32  34
ENDBRANCH   1  29
TORSDOF 8
ENDMDL
