MODEL 1
REMARK VINA RESULT:      -9.0      0.000      0.000
REMARK  2 active torsions:
REMARK  status: ('A' for Active; 'I' for Inactive)
REMARK    1  A    between atoms: C_3  and  C_4 
REMARK    2  A    between atoms: N_10  and  C_11 
ROOT
HETATM    1  C   UNL     1      41.554 -14.569  -0.017  1.00  0.00     0.049 A 
HETATM    2  N   UNL     1      42.414 -15.649  -0.021  1.00  0.00    -0.344 N 
HETATM    3  C   UNL     1      42.471 -16.535   1.017  1.00  0.00     0.119 A 
HETATM    4  C   UNL     1      41.699 -16.374   2.105  1.00  0.00     0.123 A 
HETATM    5  C   UNL     1      41.936 -17.536   2.977  1.00  0.00     0.280 A 
HETATM    6  O   UNL     1      41.389 -17.731   4.047  1.00  0.00    -0.265 OA
HETATM    7  N   UNL     1      42.877 -18.323   2.295  1.00  0.00    -0.236 N 
HETATM    8  N   UNL     1      43.238 -17.684   1.088  1.00  0.00    -0.179 NA
HETATM    9  C   UNL     1      40.777 -15.241   2.203  1.00  0.00     0.193 A 
HETATM   10  O   UNL     1      40.055 -15.027   3.168  1.00  0.00    -0.287 OA
HETATM   11  C   UNL     1      40.740 -14.321   1.026  1.00  0.00     0.086 A 
HETATM   12  H   UNL     1      43.022 -15.792  -0.819  1.00  0.00     0.167 HD
HETATM   13  H   UNL     1      43.067 -18.272   0.272  1.00  0.00     0.155 HD
ENDROOT
BRANCH   1  14
HETATM   14  C   UNL     1      41.545 -13.679  -1.199  1.00  0.00     0.012 A 
HETATM   15  C   UNL     1      41.996 -12.355  -1.048  1.00  0.00     0.015 A 
HETATM   16  C   UNL     1      42.008 -11.471  -2.131  1.00  0.00     0.001 A 
HETATM   17  C   UNL     1      41.576 -11.896  -3.383  1.00  0.00     0.002 A 
HETATM   18  C   UNL     1      41.130 -13.206  -3.555  1.00  0.00     0.025 A 
HETATM   19  C   UNL     1      41.112 -14.094  -2.473  1.00  0.00     0.046 A 
HETATM   20 CL   UNL     1      40.528 -15.695  -2.775  1.00  0.00    -0.083 Cl
ENDBRANCH   1  14
BRANCH   7  21
HETATM   21  C   UNL     1      43.474 -19.546   2.669  1.00  0.00     0.055 A 
HETATM   22  C   UNL     1      44.167 -19.676   3.882  1.00  0.00     0.034 A 
HETATM   23  C   UNL     1      44.743 -20.895   4.255  1.00  0.00     0.044 A 
HETATM   24  C   UNL     1      44.632 -21.993   3.415  1.00  0.00     0.116 A 
HETATM   25  F   UNL     1      45.181 -23.161   3.772  1.00  0.00    -0.206 F 
HETATM   26  C   UNL     1      43.959 -21.893   2.205  1.00  0.00     0.044 A 
HETATM   27  C   UNL     1      43.384 -20.674   1.834  1.00  0.00     0.034 A 
ENDBRANCH   7  21
TORSDOF 2
ENDMDL
MODEL 2
REMARK VINA RESULT:      -8.8      3.680      8.231
REMARK  2 active torsions:
REMARK  status: ('A' for Active; 'I' for Inactive)
REMARK    1  A    between atoms: C_3  and  C_4 
REMARK    2  A    between atoms: N_10  and  C_11 
ROOT
HETATM    1  C   UNL     1      42.574 -18.076   2.309  1.00  0.00     0.049 A 
HETATM    2  N   UNL     1      42.568 -17.638   0.999  1.00  0.00    -0.344 N 
HETATM    3  C   UNL     1      41.928 -16.493   0.620  1.00  0.00     0.119 A 
HETATM    4  C   UNL     1      41.252 -15.751   1.514  1.00  0.00     0.123 A 
HETATM    5  C   UNL     1      40.768 -14.556   0.805  1.00  0.00     0.280 A 
HETATM    6  O   UNL     1      40.128 -13.653   1.310  1.00  0.00    -0.265 OA
HETATM    7  N   UNL     1      41.222 -14.703  -0.516  1.00  0.00    -0.236 N 
HETATM    8  N   UNL     1      41.916 -15.926  -0.641  1.00  0.00    -0.179 NA
HETATM    9  C   UNL     1      41.186 -16.157   2.920  1.00  0.00     0.193 A 
HETATM   10  O   UNL     1      40.579 -15.537   3.783  1.00  0.00    -0.287 OA
HETATM   11  C   UNL     1      41.926 -17.403   3.279  1.00  0.00     0.086 A 
HETATM   12  H   UNL     1      43.055 -18.182   0.296  1.00  0.00     0.167 HD
HETATM   13  H   UNL     1      42.871 -15.797  -0.979  1.00  0.00     0.155 HD
ENDROOT
BRANCH   1  14
HETATM   14  C   UNL     1      43.318 -19.314   2.628  1.00  0.00     0.012 A 
HETATM   15  C   UNL     1      43.207 -20.411   1.753  1.00  0.00     0.015 A 
HETATM   16  C   UNL     1      43.887 -21.605   2.007  1.00  0.00     0.001 A 
HETATM   17  C   UNL     1      44.693 -21.723   3.134  1.00  0.00     0.002 A 
HETATM   18  C   UNL     1      44.821 -20.647   4.011  1.00  0.00     0.025 A 
HETATM   19  C   UNL     1      44.139 -19.449   3.764  1.00  0.00     0.046 A 
HETATM   20 CL   UNL     1      44.344 -18.172   4.914  1.00  0.00    -0.083 Cl
ENDBRANCH   1  14
BRANCH   7  21
HETATM   21  C   UNL     1      41.041 -13.859  -1.633  1.00  0.00     0.055 A 
HETATM   22  C   UNL     1      39.776 -13.681  -2.212  1.00  0.00     0.034 A 
HETATM   23  C   UNL     1      39.599 -12.831  -3.310  1.00  0.00     0.044 A 
HETATM   24  C   UNL     1      40.690 -12.155  -3.838  1.00  0.00     0.116 A 
HETATM   25  F   UNL     1      40.522 -11.340  -4.886  1.00  0.00    -0.206 F 
HETATM   26  C   UNL     1      41.955 -12.317  -3.291  1.00  0.00     0.044 A 
HETATM   27  C   UNL     1      42.130 -13.167  -2.194  1.00  0.00     0.034 A 
ENDBRANCH   7  21
TORSDOF 2
ENDMDL
MODEL 3
REMARK VINA RESULT:      -8.8      3.946      8.280
REMARK  2 active torsions:
REMARK  status: ('A' for Active; 'I' for Inactive)
REMARK    1  A    between atoms: C_3  and  C_4 
REMARK    2  A    between atoms: N_10  and  C_11 
ROOT
HETATM    1  C   UNL     1      43.318 -18.190   2.370  1.00  0.00     0.049 A 
HETATM    2  N   UNL     1      42.373 -18.057   1.371  1.00  0.00    -0.344 N 
HETATM    3  C   UNL     1      41.916 -16.836   0.962  1.00  0.00     0.119 A 
HETATM    4  C   UNL     1      42.358 -15.705   1.537  1.00  0.00     0.123 A 
HETATM    5  C   UNL     1      41.746 -14.583   0.809  1.00  0.00     0.280 A 
HETATM    6  O   UNL     1      41.936 -13.405   1.048  1.00  0.00    -0.265 OA
HETATM    7  N   UNL     1      40.952 -15.179  -0.185  1.00  0.00    -0.236 N 
HETATM    8  N   UNL     1      41.030 -16.584  -0.069  1.00  0.00    -0.179 NA
HETATM    9  C   UNL     1      43.343 -15.756   2.621  1.00  0.00     0.193 A 
HETATM   10  O   UNL     1      43.779 -14.768   3.197  1.00  0.00    -0.287 OA
HETATM   11  C   UNL     1      43.824 -17.116   3.008  1.00  0.00     0.086 A 
HETATM   12  H   UNL     1      42.006 -18.890   0.927  1.00  0.00     0.167 HD
HETATM   13  H   UNL     1      41.356 -17.026  -0.930  1.00  0.00     0.155 HD
ENDROOT
BRANCH   1  14
HETATM   14  C   UNL     1      43.771 -19.552   2.727  1.00  0.00     0.012 A 
HETATM   15  C   UNL     1      43.588 -20.588   1.792  1.00  0.00     0.015 A 
HETATM   16  C   UNL     1      43.996 -21.894   2.078  1.00  0.00     0.001 A 
HETATM   17  C   UNL     1      44.599 -22.186   3.297  1.00  0.00     0.002 A 
HETATM   18  C   UNL     1      44.795 -21.172   4.234  1.00  0.00     0.025 A 
HETATM   19  C   UNL     1      44.384 -19.863   3.955  1.00  0.00     0.046 A 
HETATM   20 CL   UNL     1      44.653 -18.672   5.183  1.00  0.00    -0.083 Cl
ENDBRANCH   1  14
BRANCH   7  21
HETATM   21  C   UNL     1      40.132 -14.581  -1.166  1.00  0.00     0.055 A 
HETATM   22  C   UNL     1      40.447 -14.671  -2.530  1.00  0.00     0.034 A 
HETATM   23  C   UNL     1      39.622 -14.089  -3.500  1.00  0.00     0.044 A 
HETATM   24  C   UNL     1      38.477 -13.411  -3.109  1.00  0.00     0.116 A 
HETATM   25  F   UNL     1      37.686 -12.857  -4.037  1.00  0.00    -0.206 F 
HETATM   26  C   UNL     1      38.143 -13.299  -1.767  1.00  0.00     0.044 A 
HETATM   27  C   UNL     1      38.969 -13.880  -0.800  1.00  0.00     0.034 A 
ENDBRANCH   7  21
TORSDOF 2
ENDMDL
MODEL 4
REMARK VINA RESULT:      -8.6      5.689      8.733
REMARK  2 active torsions:
REMARK  status: ('A' for Active; 'I' for Inactive)
REMARK    1  A    between atoms: C_3  and  C_4 
REMARK    2  A    between atoms: N_10  and  C_11 
ROOT
HETATM    1  C   UNL     1      43.683 -18.601   4.704  1.00  0.00     0.049 A 
HETATM    2  N   UNL     1      44.550 -17.857   5.479  1.00  0.00    -0.344 N 
HETATM    3  C   UNL     1      44.273 -16.569   5.845  1.00  0.00     0.119 A 
HETATM    4  C   UNL     1      43.144 -15.964   5.440  1.00  0.00     0.123 A 
HETATM    5  C   UNL     1      43.114 -14.639   6.078  1.00  0.00     0.280 A 
HETATM    6  O   UNL     1      42.223 -13.819   5.948  1.00  0.00    -0.265 OA
HETATM    7  N   UNL     1      44.289 -14.571   6.843  1.00  0.00    -0.236 N 
HETATM    8  N   UNL     1      45.031 -15.761   6.672  1.00  0.00    -0.179 NA
HETATM    9  C   UNL     1      42.181 -16.673   4.594  1.00  0.00     0.193 A 
HETATM   10  O   UNL     1      41.141 -16.178   4.179  1.00  0.00    -0.287 OA
HETATM   11  C   UNL     1      42.525 -18.085   4.248  1.00  0.00     0.086 A 
HETATM   12  H   UNL     1      45.418 -18.277   5.789  1.00  0.00     0.167 HD
HETATM   13  H   UNL     1      45.213 -16.234   7.558  1.00  0.00     0.155 HD
ENDROOT
BRANCH   1  14
HETATM   14  C   UNL     1      44.056 -19.995   4.381  1.00  0.00     0.012 A 
HETATM   15  C   UNL     1      44.409 -20.859   5.435  1.00  0.00     0.015 A 
HETATM   16  C   UNL     1      44.771 -22.186   5.187  1.00  0.00     0.001 A 
HETATM   17  C   UNL     1      44.780 -22.675   3.884  1.00  0.00     0.002 A 
HETATM   18  C   UNL     1      44.429 -21.837   2.826  1.00  0.00     0.025 A 
HETATM   19  C   UNL     1      44.070 -20.506   3.069  1.00  0.00     0.046 A 
HETATM   20 CL   UNL     1      43.663 -19.535   1.694  1.00  0.00    -0.083 Cl
ENDBRANCH   1  14
BRANCH   7  21
HETATM   21  C   UNL     1      44.781 -13.525   7.654  1.00  0.00     0.055 A 
HETATM   22  C   UNL     1      44.023 -13.013   8.718  1.00  0.00     0.034 A 
HETATM   23  C   UNL     1      44.522 -11.987   9.529  1.00  0.00     0.044 A 
HETATM   24  C   UNL     1      45.783 -11.465   9.278  1.00  0.00     0.116 A 
HETATM   25  F   UNL     1      46.262 -10.486  10.055  1.00  0.00    -0.206 F 
HETATM   26  C   UNL     1      46.552 -11.946   8.228  1.00  0.00     0.044 A 
HETATM   27  C   UNL     1      46.052 -12.972   7.419  1.00  0.00     0.034 A 
ENDBRANCH   7  21
TORSDOF 2
ENDMDL
MODEL 5
REMARK VINA RESULT:      -8.4      4.719      8.254
REMARK  2 active torsions:
REMARK  status: ('A' for Active; 'I' for Inactive)
REMARK    1  A    between atoms: C_3  and  C_4 
REMARK    2  A    between atoms: N_10  and  C_11 
ROOT
HETATM    1  C   UNL     1      43.180 -18.237   2.785  1.00  0.00     0.049 A 
HETATM    2  N   UNL     1      42.934 -17.564   3.966  1.00  0.00    -0.344 N 
HETATM    3  C   UNL     1      42.451 -16.286   3.986  1.00  0.00     0.119 A 
HETATM    4  C   UNL     1      42.216 -15.619   2.843  1.00  0.00     0.123 A 
HETATM    5  C   UNL     1      41.621 -14.326   3.214  1.00  0.00     0.280 A 
HETATM    6  O   UNL     1      41.265 -13.467   2.428  1.00  0.00    -0.265 OA
HETATM    7  N   UNL     1      41.555 -14.339   4.617  1.00  0.00    -0.236 N 
HETATM    8  N   UNL     1      42.103 -15.547   5.101  1.00  0.00    -0.179 NA
HETATM    9  C   UNL     1      42.473 -16.250   1.546  1.00  0.00     0.193 A 
HETATM   10  O   UNL     1      42.294 -15.697   0.469  1.00  0.00    -0.287 OA
HETATM   11  C   UNL     1      42.976 -17.656   1.588  1.00  0.00     0.086 A 
HETATM   12  H   UNL     1      43.115 -18.032   4.846  1.00  0.00     0.167 HD
HETATM   13  H   UNL     1      41.442 -16.069   5.678  1.00  0.00     0.155 HD
ENDROOT
BRANCH   1  14
HETATM   14  C   UNL     1      43.678 -19.628   2.864  1.00  0.00     0.012 A 
HETATM   15  C   UNL     1      43.359 -20.517   1.821  1.00  0.00     0.015 A 
HETATM   16  C   UNL     1      43.802 -21.842   1.845  1.00  0.00     0.001 A 
HETATM   17  C   UNL     1      44.575 -22.300   2.907  1.00  0.00     0.002 A 
HETATM   18  C   UNL     1      44.906 -21.434   3.948  1.00  0.00     0.025 A 
HETATM   19  C   UNL     1      44.462 -20.107   3.931  1.00  0.00     0.046 A 
HETATM   20 CL   UNL     1      44.907 -19.108   5.273  1.00  0.00    -0.083 Cl
ENDBRANCH   1  14
BRANCH   7  21
HETATM   21  C   UNL     1      41.082 -13.353   5.509  1.00  0.00     0.055 A 
HETATM   22  C   UNL     1      41.906 -12.298   5.930  1.00  0.00     0.034 A 
HETATM   23  C   UNL     1      41.427 -11.315   6.803  1.00  0.00     0.044 A 
HETATM   24  C   UNL     1      40.120 -11.382   7.262  1.00  0.00     0.116 A 
HETATM   25  F   UNL     1      39.660 -10.440   8.095  1.00  0.00    -0.206 F 
HETATM   26  C   UNL     1      39.283 -12.417   6.869  1.00  0.00     0.044 A 
HETATM   27  C   UNL     1      39.764 -13.400   5.997  1.00  0.00     0.034 A 
ENDBRANCH   7  21
TORSDOF 2
ENDMDL
MODEL 6
REMARK VINA RESULT:      -8.1      3.845      4.570
REMARK  2 active torsions:
REMARK  status: ('A' for Active; 'I' for Inactive)
REMARK    1  A    between atoms: C_3  and  C_4 
REMARK    2  A    between atoms: N_10  and  C_11 
ROOT
HETATM    1  C   UNL     1      41.820 -13.984   4.815  1.00  0.00     0.049 A 
HETATM    2  N   UNL     1      41.886 -15.182   4.130  1.00  0.00    -0.344 N 
HETATM    3  C   UNL     1      42.744 -16.181   4.494  1.00  0.00     0.119 A 
HETATM    4  C   UNL     1      43.583 -16.025   5.531  1.00  0.00     0.123 A 
HETATM    5  C   UNL     1      44.290 -17.304   5.708  1.00  0.00     0.280 A 
HETATM    6  O   UNL     1      45.119 -17.532   6.570  1.00  0.00    -0.265 OA
HETATM    7  N   UNL     1      43.782 -18.147   4.707  1.00  0.00    -0.236 N 
HETATM    8  N   UNL     1      42.842 -17.438   3.927  1.00  0.00    -0.179 NA
HETATM    9  C   UNL     1      43.598 -14.777   6.297  1.00  0.00     0.193 A 
HETATM   10  O   UNL     1      44.344 -14.564   7.244  1.00  0.00    -0.287 OA
HETATM   11  C   UNL     1      42.620 -13.732   5.869  1.00  0.00     0.086 A 
HETATM   12  H   UNL     1      41.277 -15.326   3.332  1.00  0.00     0.167 HD
HETATM   13  H   UNL     1      41.928 -17.892   3.915  1.00  0.00     0.155 HD
ENDROOT
BRANCH   1  14
HETATM   14  C   UNL     1      40.841 -12.973   4.362  1.00  0.00     0.012 A 
HETATM   15  C   UNL     1      39.772 -12.643   5.216  1.00  0.00     0.015 A 
HETATM   16  C   UNL     1      38.817 -11.694   4.839  1.00  0.00     0.001 A 
HETATM   17  C   UNL     1      38.916 -11.056   3.607  1.00  0.00     0.002 A 
HETATM   18  C   UNL     1      39.971 -11.365   2.748  1.00  0.00     0.025 A 
HETATM   19  C   UNL     1      40.927 -12.317   3.120  1.00  0.00     0.046 A 
HETATM   20 CL   UNL     1      42.193 -12.648   1.986  1.00  0.00    -0.083 Cl
ENDBRANCH   1  14
BRANCH   7  21
HETATM   21  C   UNL     1      44.109 -19.486   4.402  1.00  0.00     0.055 A 
HETATM   22  C   UNL     1      44.402 -20.412   5.414  1.00  0.00     0.034 A 
HETATM   23  C   UNL     1      44.710 -21.742   5.106  1.00  0.00     0.044 A 
HETATM   24  C   UNL     1      44.729 -22.154   3.782  1.00  0.00     0.116 A 
HETATM   25  F   UNL     1      45.020 -23.427   3.487  1.00  0.00    -0.206 F 
HETATM   26  C   UNL     1      44.450 -21.259   2.759  1.00  0.00     0.044 A 
HETATM   27  C   UNL     1      44.143 -19.930   3.068  1.00  0.00     0.034 A 
ENDBRANCH   7  21
TORSDOF 2
ENDMDL
MODEL 7
REMARK VINA RESULT:      -7.9      4.428      8.511
REMARK  2 active torsions:
REMARK  status: ('A' for Active; 'I' for Inactive)
REMARK    1  A    between atoms: C_3  and  C_4 
REMARK    2  A    between atoms: N_10  and  C_11 
ROOT
HETATM    1  C   UNL     1      43.827 -18.516   4.660  1.00  0.00     0.049 A 
HETATM    2  N   UNL     1      42.938 -17.823   3.861  1.00  0.00    -0.344 N 
HETATM    3  C   UNL     1      42.604 -16.521   4.106  1.00  0.00     0.119 A 
HETATM    4  C   UNL     1      43.117 -15.864   5.160  1.00  0.00     0.123 A 
HETATM    5  C   UNL     1      42.632 -14.477   5.079  1.00  0.00     0.280 A 
HETATM    6  O   UNL     1      42.912 -13.590   5.865  1.00  0.00    -0.265 OA
HETATM    7  N   UNL     1      41.832 -14.432   3.926  1.00  0.00    -0.236 N 
HETATM    8  N   UNL     1      41.785 -15.715   3.337  1.00  0.00    -0.179 NA
HETATM    9  C   UNL     1      44.048 -16.531   6.073  1.00  0.00     0.193 A 
HETATM   10  O   UNL     1      44.543 -15.996   7.057  1.00  0.00    -0.287 OA
HETATM   11  C   UNL     1      44.395 -17.945   5.739  1.00  0.00     0.086 A 
HETATM   12  H   UNL     1      42.520 -18.294   3.067  1.00  0.00     0.167 HD
HETATM   13  H   UNL     1      42.107 -15.708   2.369  1.00  0.00     0.155 HD
ENDROOT
BRANCH   1  14
HETATM   14  C   UNL     1      44.147 -19.914   4.300  1.00  0.00     0.012 A 
HETATM   15  C   UNL     1      44.521 -20.804   5.324  1.00  0.00     0.015 A 
HETATM   16  C   UNL     1      44.835 -22.136   5.040  1.00  0.00     0.001 A 
HETATM   17  C   UNL     1      44.775 -22.603   3.731  1.00  0.00     0.002 A 
HETATM   18  C   UNL     1      44.402 -21.739   2.702  1.00  0.00     0.025 A 
HETATM   19  C   UNL     1      44.090 -20.403   2.981  1.00  0.00     0.046 A 
HETATM   20 CL   UNL     1      43.652 -19.399   1.640  1.00  0.00    -0.083 Cl
ENDBRANCH   1  14
BRANCH   7  21
HETATM   21  C   UNL     1      41.106 -13.357   3.370  1.00  0.00     0.055 A 
HETATM   22  C   UNL     1      41.703 -12.472   2.459  1.00  0.00     0.034 A 
HETATM   23  C   UNL     1      40.974 -11.416   1.899  1.00  0.00     0.044 A 
HETATM   24  C   UNL     1      39.644 -11.238   2.249  1.00  0.00     0.116 A 
HETATM   25  F   UNL     1      38.946 -10.231   1.711  1.00  0.00    -0.206 F 
HETATM   26  C   UNL     1      39.029 -12.093   3.153  1.00  0.00     0.044 A 
HETATM   27  C   UNL     1      39.759 -13.147   3.712  1.00  0.00     0.034 A 
ENDBRANCH   7  21
TORSDOF 2
ENDMDL
MODEL 8
REMARK VINA RESULT:      -7.9      6.001      8.914
REMARK  2 active torsions:
REMARK  status: ('A' for Active; 'I' for Inactive)
REMARK    1  A    between atoms: C_3  and  C_4 
REMARK    2  A    between atoms: N_10  and  C_11 
ROOT
HETATM    1  C   UNL     1      43.165 -16.038   3.667  1.00  0.00     0.049 A 
HETATM    2  N   UNL     1      42.833 -15.574   4.925  1.00  0.00    -0.344 N 
HETATM    3  C   UNL     1      42.436 -14.284   5.141  1.00  0.00     0.119 A 
HETATM    4  C   UNL     1      42.375 -13.402   4.129  1.00  0.00     0.123 A 
HETATM    5  C   UNL     1      41.830 -12.152   4.680  1.00  0.00     0.280 A 
HETATM    6  O   UNL     1      41.621 -11.137   4.041  1.00  0.00    -0.265 OA
HETATM    7  N   UNL     1      41.606 -12.416   6.041  1.00  0.00    -0.236 N 
HETATM    8  N   UNL     1      42.016 -13.735   6.337  1.00  0.00    -0.179 NA
HETATM    9  C   UNL     1      42.733 -13.805   2.767  1.00  0.00     0.193 A 
HETATM   10  O   UNL     1      42.712 -13.051   1.803  1.00  0.00    -0.287 OA
HETATM   11  C   UNL     1      43.134 -15.232   2.588  1.00  0.00     0.086 A 
HETATM   12  H   UNL     1      42.884 -16.208   5.713  1.00  0.00     0.167 HD
HETATM   13  H   UNL     1      41.262 -14.294   6.737  1.00  0.00     0.155 HD
ENDROOT
BRANCH   1  14
HETATM   14  C   UNL     1      43.557 -17.458   3.527  1.00  0.00     0.012 A 
HETATM   15  C   UNL     1      43.350 -18.094   2.289  1.00  0.00     0.015 A 
HETATM   16  C   UNL     1      43.701 -19.434   2.102  1.00  0.00     0.001 A 
HETATM   17  C   UNL     1      44.270 -20.158   3.144  1.00  0.00     0.002 A 
HETATM   18  C   UNL     1      44.490 -19.545   4.377  1.00  0.00     0.025 A 
HETATM   19  C   UNL     1      44.136 -18.204   4.571  1.00  0.00     0.046 A 
HETATM   20 CL   UNL     1      44.429 -17.529   6.138  1.00  0.00    -0.083 Cl
ENDBRANCH   1  14
BRANCH   7  21
HETATM   21  C   UNL     1      41.103 -11.572   7.055  1.00  0.00     0.055 A 
HETATM   22  C   UNL     1      39.757 -11.630   7.446  1.00  0.00     0.034 A 
HETATM   23  C   UNL     1      39.266 -10.802   8.463  1.00  0.00     0.044 A 
HETATM   24  C   UNL     1      40.121  -9.909   9.093  1.00  0.00     0.116 A 
HETATM   25  F   UNL     1      39.653  -9.120  10.068  1.00  0.00    -0.206 F 
HETATM   26  C   UNL     1      41.455  -9.825   8.723  1.00  0.00     0.044 A 
HETATM   27  C   UNL     1      41.944 -10.653   7.707  1.00  0.00     0.034 A 
ENDBRANCH   7  21
TORSDOF 2
ENDMDL
MODEL 9
REMARK VINA RESULT:      -7.8      5.300      8.854
REMARK  2 active torsions:
REMARK  status: ('A' for Active; 'I' for Inactive)
REMARK    1  A    between atoms: C_3  and  C_4 
REMARK    2  A    between atoms: N_10  and  C_11 
ROOT
HETATM    1  C   UNL     1      42.485 -17.360   4.275  1.00  0.00     0.049 A 
HETATM    2  N   UNL     1      42.657 -16.349   5.200  1.00  0.00    -0.344 N 
HETATM    3  C   UNL     1      41.916 -15.201   5.166  1.00  0.00     0.119 A 
HETATM    4  C   UNL     1      40.997 -15.001   4.206  1.00  0.00     0.123 A 
HETATM    5  C   UNL     1      40.326 -13.728   4.512  1.00  0.00     0.280 A 
HETATM    6  O   UNL     1      39.423 -13.238   3.859  1.00  0.00    -0.265 OA
HETATM    7  N   UNL     1      40.939 -13.260   5.685  1.00  0.00    -0.236 N 
HETATM    8  N   UNL     1      41.955 -14.161   6.076  1.00  0.00    -0.179 NA
HETATM    9  C   UNL     1      40.768 -16.012   3.171  1.00  0.00     0.193 A 
HETATM   10  O   UNL     1      39.958 -15.889   2.262  1.00  0.00    -0.287 OA
HETATM   11  C   UNL     1      41.589 -17.256   3.275  1.00  0.00     0.086 A 
HETATM   12  H   UNL     1      43.353 -16.460   5.928  1.00  0.00     0.167 HD
HETATM   13  H   UNL     1      41.815 -14.515   7.022  1.00  0.00     0.155 HD
ENDROOT
BRANCH   1  14
HETATM   14  C   UNL     1      43.315 -18.578   4.409  1.00  0.00     0.012 A 
HETATM   15  C   UNL     1      43.437 -19.172   5.679  1.00  0.00     0.015 A 
HETATM   16  C   UNL     1      44.209 -20.323   5.863  1.00  0.00     0.001 A 
HETATM   17  C   UNL     1      44.866 -20.902   4.782  1.00  0.00     0.002 A 
HETATM   18  C   UNL     1      44.754 -20.332   3.514  1.00  0.00     0.025 A 
HETATM   19  C   UNL     1      43.985 -19.177   3.326  1.00  0.00     0.046 A 
HETATM   20 CL   UNL     1      43.914 -18.529   1.722  1.00  0.00    -0.083 Cl
ENDBRANCH   1  14
BRANCH   7  21
HETATM   21  C   UNL     1      40.700 -12.080   6.422  1.00  0.00     0.055 A 
HETATM   22  C   UNL     1      39.584 -11.964   7.266  1.00  0.00     0.034 A 
HETATM   23  C   UNL     1      39.360 -10.797   8.006  1.00  0.00     0.044 A 
HETATM   24  C   UNL     1      40.250  -9.739   7.905  1.00  0.00     0.116 A 
HETATM   25  F   UNL     1      40.038  -8.624   8.615  1.00  0.00    -0.206 F 
HETATM   26  C   UNL     1      41.358  -9.822   7.074  1.00  0.00     0.044 A 
HETATM   27  C   UNL     1      41.581 -10.988   6.334  1.00  0.00     0.034 A 
ENDBRANCH   7  21
TORSDOF 2
ENDMDL
MODEL 10
REMARK VINA RESULT:      -7.8      5.186      8.519
REMARK  2 active torsions:
REMARK  status: ('A' for Active; 'I' for Inactive)
REMARK    1  A    between atoms: C_3  and  C_4 
REMARK    2  A    between atoms: N_10  and  C_11 
ROOT
HETATM    1  C   UNL     1      42.260 -17.163   3.160  1.00  0.00     0.049 A 
HETATM    2  N   UNL     1      42.758 -16.094   3.879  1.00  0.00    -0.344 N 
HETATM    3  C   UNL     1      42.081 -14.913   3.987  1.00  0.00     0.119 A 
HETATM    4  C   UNL     1      40.899 -14.736   3.372  1.00  0.00     0.123 A 
HETATM    5  C   UNL     1      40.404 -13.408   3.764  1.00  0.00     0.280 A 
HETATM    6  O   UNL     1      39.348 -12.920   3.405  1.00  0.00    -0.265 OA
HETATM    7  N   UNL     1      41.387 -12.886   4.620  1.00  0.00    -0.236 N 
HETATM    8  N   UNL     1      42.450 -13.809   4.733  1.00  0.00    -0.179 NA
HETATM    9  C   UNL     1      40.310 -15.810   2.568  1.00  0.00     0.193 A 
HETATM   10  O   UNL     1      39.245 -15.713   1.972  1.00  0.00    -0.287 OA
HETATM   11  C   UNL     1      41.084 -17.086   2.508  1.00  0.00     0.086 A 
HETATM   12  H   UNL     1      43.655 -16.188   4.343  1.00  0.00     0.167 HD
HETATM   13  H   UNL     1      42.625 -14.081   5.701  1.00  0.00     0.155 HD
ENDROOT
BRANCH   1  14
HETATM   14  C   UNL     1      43.053 -18.411   3.123  1.00  0.00     0.012 A 
HETATM   15  C   UNL     1      42.983 -19.219   1.973  1.00  0.00     0.015 A 
HETATM   16  C   UNL     1      43.711 -20.409   1.884  1.00  0.00     0.001 A 
HETATM   17  C   UNL     1      44.525 -20.809   2.938  1.00  0.00     0.002 A 
HETATM   18  C   UNL     1      44.613 -20.020   4.085  1.00  0.00     0.025 A 
HETATM   19  C   UNL     1      43.883 -18.829   4.180  1.00  0.00     0.046 A 
HETATM   20 CL   UNL     1      44.041 -17.922   5.646  1.00  0.00    -0.083 Cl
ENDBRANCH   1  14
BRANCH   7  21
HETATM   21  C   UNL     1      41.440 -11.641   5.284  1.00  0.00     0.055 A 
HETATM   22  C   UNL     1      41.323 -10.435   4.576  1.00  0.00     0.034 A 
HETATM   23  C   UNL     1      41.361  -9.204   5.241  1.00  0.00     0.044 A 
HETATM   24  C   UNL     1      41.519  -9.172   6.619  1.00  0.00     0.116 A 
HETATM   25  F   UNL     1      41.552  -7.995   7.255  1.00  0.00    -0.206 F 
HETATM   26  C   UNL     1      41.645 -10.348   7.344  1.00  0.00     0.044 A 
HETATM   27  C   UNL     1      41.607 -11.577   6.678  1.00  0.00     0.034 A 
ENDBRANCH   7  21
TORSDOF 2
ENDMDL
