MODEL 1
REMARK VINA RESULT:      -7.2      0.000      0.000
REMARK  8 active torsions:
REMARK  status: ('A' for Active; 'I' for Inactive)
REMARK    1  A    between atoms: C_3  and  N_4 
REMARK       I    between atoms: N_4  and  C_5 
REMARK    2  A    between atoms: C_5  and  C_6 
REMARK    3  A    between atoms: C_6  and  C_7 
REMARK    4  A    between atoms: C_7  and  C_8 
REMARK    5  A    between atoms: C_8  and  O_9 
REMARK    6  A    between atoms: O_9  and  C_10 
REMARK    7  A    between atoms: C_18  and  C_19 
REMARK    8  A    between atoms: C_22  and  O_23 
ROOT
HETATM    1  N   UNL     1      42.925 -18.889   1.898  1.00  0.00    -0.327 N 
HETATM    2  C   UNL     1      43.459 -17.743   1.327  1.00  0.00     0.222 C 
HETATM    3  O   UNL     1      44.614 -17.350   1.431  1.00  0.00    -0.273 OA
HETATM    4  H   UNL     1      42.117 -19.267   1.420  1.00  0.00     0.169 HD
ENDROOT
BRANCH   1   5
HETATM    5  C   UNL     1      43.594 -19.781   2.770  1.00  0.00     0.041 A 
HETATM    6  C   UNL     1      44.006 -21.079   2.443  1.00  0.00    -0.033 A 
HETATM    7  C   UNL     1      43.944 -21.682   1.068  1.00  0.00     0.050 C 
HETATM    8  C   UNL     1      44.565 -21.876   3.457  1.00  0.00     0.046 A 
HETATM    9  C   UNL     1      44.775 -21.379   4.743  1.00  0.00     0.072 A 
HETATM   10  C   UNL     1      44.478 -20.050   5.068  1.00  0.00    -0.019 A 
HETATM   11  C   UNL     1      43.889 -19.269   4.053  1.00  0.00     0.040 A 
BRANCH   9  12
HETATM   12  O   UNL     1      45.301 -22.275   5.630  1.00  0.00    -0.360 OA
HETATM   13  H   UNL     1      44.584 -22.741   6.084  1.00  0.00     0.217 HD
ENDBRANCH   9  12
BRANCH  10  14
HETATM   14  C   UNL     1      44.787 -19.474   6.446  1.00  0.00     0.013 C 
HETATM   15  C   UNL     1      45.287 -18.027   6.332  1.00  0.00     0.015 C 
HETATM   16  C   UNL     1      43.634 -19.517   7.460  1.00  0.00     0.015 C 
ENDBRANCH  10  14
ENDBRANCH   1   5
BRANCH   2  17
HETATM   17  C   UNL     1      42.443 -17.029   0.448  1.00  0.00     0.105 C 
BRANCH  17  18
HETATM   18  C   UNL     1      40.993 -17.279   0.859  1.00  0.00     0.036 C 
BRANCH  18  19
HETATM   19  C   UNL     1      40.516 -16.377   1.997  1.00  0.00     0.176 C 
BRANCH  19  20
HETATM   20  O   UNL     1      40.697 -17.099   3.221  1.00  0.00    -0.350 OA
BRANCH  20  21
HETATM   21  C   UNL     1      41.440 -16.492   4.191  1.00  0.00     0.086 A 
HETATM   22  C   UNL     1      42.368 -15.470   4.025  1.00  0.00     0.152 A 
HETATM   23  N   UNL     1      43.066 -14.902   5.041  1.00  0.00    -0.270 NA
HETATM   24  C   UNL     1      42.833 -15.384   6.280  1.00  0.00     0.116 A 
HETATM   25  C   UNL     1      41.935 -16.402   6.551  1.00  0.00     0.022 A 
HETATM   26  C   UNL     1      41.230 -16.958   5.486  1.00  0.00     0.039 A 
ENDBRANCH  20  21
ENDBRANCH  19  20
ENDBRANCH  18  19
ENDBRANCH  17  18
ENDBRANCH   2  17
TORSDOF 8
ENDMDL
MODEL 2
REMARK VINA RESULT:      -6.8      2.272      4.829
REMARK  8 active torsions:
REMARK  status: ('A' for Active; 'I' for Inactive)
REMARK    1  A    between atoms: C_3  and  N_4 
REMARK       I    between atoms: N_4  and  C_5 
REMARK    2  A    between atoms: C_5  and  C_6 
REMARK    3  A    between atoms: C_6  and  C_7 
REMARK    4  A    between atoms: C_7  and  C_8 
REMARK    5  A    between atoms: C_8  and  O_9 
REMARK    6  A    between atoms: O_9  and  C_10 
REMARK    7  A    between atoms: C_18  and  C_19 
REMARK    8  A    between atoms: C_22  and  O_23 
ROOT
HETATM    1  N   UNL     1      42.435 -15.294   5.696  1.00  0.00    -0.327 N 
HETATM    2  C   UNL     1      42.990 -14.035   5.516  1.00  0.00     0.222 C 
HETATM    3  O   UNL     1      44.126 -13.789   5.131  1.00  0.00    -0.273 OA
HETATM    4  H   UNL     1      41.427 -15.329   5.633  1.00  0.00     0.169 HD
ENDROOT
BRANCH   1   5
HETATM    5  C   UNL     1      43.103 -16.533   5.543  1.00  0.00     0.041 A 
HETATM    6  C   UNL     1      43.580 -17.334   6.588  1.00  0.00    -0.033 A 
HETATM    7  C   UNL     1      43.326 -17.085   8.048  1.00  0.00     0.050 C 
HETATM    8  C   UNL     1      44.315 -18.486   6.263  1.00  0.00     0.046 A 
HETATM    9  C   UNL     1      44.515 -18.875   4.938  1.00  0.00     0.072 A 
HETATM   10  C   UNL     1      43.952 -18.157   3.876  1.00  0.00    -0.019 A 
HETATM   11  C   UNL     1      43.244 -16.985   4.212  1.00  0.00     0.040 A 
BRANCH   9  12
HETATM   12  O   UNL     1      45.271 -20.001   4.774  1.00  0.00    -0.360 OA
HETATM   13  H   UNL     1      45.145 -20.590   5.532  1.00  0.00     0.217 HD
ENDBRANCH   9  12
BRANCH  10  14
HETATM   14  C   UNL     1      44.091 -18.624   2.430  1.00  0.00     0.013 C 
HETATM   15  C   UNL     1      42.898 -19.501   2.026  1.00  0.00     0.015 C 
HETATM   16  C   UNL     1      44.263 -17.513   1.384  1.00  0.00     0.015 C 
ENDBRANCH  10  14
ENDBRANCH   1   5
BRANCH   2  17
HETATM   17  C   UNL     1      41.973 -12.933   5.774  1.00  0.00     0.105 C 
BRANCH  17  18
HETATM   18  C   UNL     1      40.528 -13.428   5.808  1.00  0.00     0.036 C 
BRANCH  18  19
HETATM   19  C   UNL     1      39.847 -13.421   4.439  1.00  0.00     0.176 C 
BRANCH  19  20
HETATM   20  O   UNL     1      39.916 -14.753   3.919  1.00  0.00    -0.350 OA
BRANCH  20  21
HETATM   21  C   UNL     1      40.479 -14.906   2.687  1.00  0.00     0.086 A 
HETATM   22  C   UNL     1      41.187 -13.955   1.960  1.00  0.00     0.152 A 
HETATM   23  N   UNL     1      41.733 -14.180   0.738  1.00  0.00    -0.270 NA
HETATM   24  C   UNL     1      41.555 -15.410   0.212  1.00  0.00     0.116 A 
HETATM   25  C   UNL     1      40.862 -16.425   0.850  1.00  0.00     0.022 A 
HETATM   26  C   UNL     1      40.320 -16.163   2.107  1.00  0.00     0.039 A 
ENDBRANCH  20  21
ENDBRANCH  19  20
ENDBRANCH  18  19
ENDBRANCH  17  18
ENDBRANCH   2  17
TORSDOF 8
ENDMDL
MODEL 3
REMARK VINA RESULT:      -6.6      5.013      7.257
REMARK  8 active torsions:
REMARK  status: ('A' for Active; 'I' for Inactive)
REMARK    1  A    between atoms: C_3  and  N_4 
REMARK       I    between atoms: N_4  and  C_5 
REMARK    2  A    between atoms: C_5  and  C_6 
REMARK    3  A    between atoms: C_6  and  C_7 
REMARK    4  A    between atoms: C_7  and  C_8 
REMARK    5  A    between atoms: C_8  and  O_9 
REMARK    6  A    between atoms: O_9  and  C_10 
REMARK    7  A    between atoms: C_18  and  C_19 
REMARK    8  A    between atoms: C_22  and  O_23 
ROOT
HETATM    1  N   UNL     1      43.715 -14.522   6.984  1.00  0.00    -0.327 N 
HETATM    2  C   UNL     1      44.848 -13.763   7.239  1.00  0.00     0.222 C 
HETATM    3  O   UNL     1      45.847 -13.688   6.534  1.00  0.00    -0.273 OA
HETATM    4  H   UNL     1      42.869 -14.187   7.425  1.00  0.00     0.169 HD
ENDROOT
BRANCH   1   5
HETATM    5  C   UNL     1      43.529 -15.411   5.897  1.00  0.00     0.041 A 
HETATM    6  C   UNL     1      43.229 -15.035   4.582  1.00  0.00    -0.033 A 
HETATM    7  C   UNL     1      43.207 -13.620   4.075  1.00  0.00     0.050 C 
HETATM    8  C   UNL     1      42.970 -16.046   3.642  1.00  0.00     0.046 A 
HETATM    9  C   UNL     1      43.074 -17.396   3.976  1.00  0.00     0.072 A 
HETATM   10  C   UNL     1      43.484 -17.802   5.252  1.00  0.00    -0.019 A 
HETATM   11  C   UNL     1      43.709 -16.780   6.196  1.00  0.00     0.040 A 
BRANCH   9  12
HETATM   12  O   UNL     1      42.768 -18.266   2.967  1.00  0.00    -0.360 OA
HETATM   13  H   UNL     1      42.151 -18.937   3.294  1.00  0.00     0.217 HD
ENDBRANCH   9  12
BRANCH  10  14
HETATM   14  C   UNL     1      43.686 -19.274   5.598  1.00  0.00     0.013 C 
HETATM   15  C   UNL     1      44.959 -19.819   4.936  1.00  0.00     0.015 C 
HETATM   16  C   UNL     1      43.730 -19.605   7.098  1.00  0.00     0.015 C 
ENDBRANCH  10  14
ENDBRANCH   1   5
BRANCH   2  17
HETATM   17  C   UNL     1      44.690 -12.927   8.500  1.00  0.00     0.105 C 
BRANCH  17  18
HETATM   18  C   UNL     1      45.856 -11.974   8.755  1.00  0.00     0.036 C 
BRANCH  18  19
HETATM   19  C   UNL     1      45.591 -10.970   9.877  1.00  0.00     0.176 C 
BRANCH  19  20
HETATM   20  O   UNL     1      44.272 -10.448   9.682  1.00  0.00    -0.350 OA
BRANCH  20  21
HETATM   21  C   UNL     1      43.402 -10.564  10.725  1.00  0.00     0.086 A 
HETATM   22  C   UNL     1      42.101 -11.053  10.685  1.00  0.00     0.152 A 
HETATM   23  N   UNL     1      41.290 -11.152  11.769  1.00  0.00    -0.270 NA
HETATM   24  C   UNL     1      41.799 -10.734  12.947  1.00  0.00     0.116 A 
HETATM   25  C   UNL     1      43.079 -10.226  13.093  1.00  0.00     0.022 A 
HETATM   26  C   UNL     1      43.887 -10.144  11.961  1.00  0.00     0.039 A 
ENDBRANCH  20  21
ENDBRANCH  19  20
ENDBRANCH  18  19
ENDBRANCH  17  18
ENDBRANCH   2  17
TORSDOF 8
ENDMDL
MODEL 4
REMARK VINA RESULT:      -6.5      4.472      7.256
REMARK  8 active torsions:
REMARK  status: ('A' for Active; 'I' for Inactive)
REMARK    1  A    between atoms: C_3  and  N_4 
REMARK       I    between atoms: N_4  and  C_5 
REMARK    2  A    between atoms: C_5  and  C_6 
REMARK    3  A    between atoms: C_6  and  C_7 
REMARK    4  A    between atoms: C_7  and  C_8 
REMARK    5  A    between atoms: C_8  and  O_9 
REMARK    6  A    between atoms: O_9  and  C_10 
REMARK    7  A    between atoms: C_18  and  C_19 
REMARK    8  A    between atoms: C_22  and  O_23 
ROOT
HETATM    1  N   UNL     1      42.845 -15.061   6.025  1.00  0.00    -0.327 N 
HETATM    2  C   UNL     1      43.970 -14.248   6.037  1.00  0.00     0.222 C 
HETATM    3  O   UNL     1      44.488 -13.710   5.067  1.00  0.00    -0.273 OA
HETATM    4  H   UNL     1      42.336 -15.097   6.898  1.00  0.00     0.169 HD
ENDROOT
BRANCH   1   5
HETATM    5  C   UNL     1      42.130 -15.484   4.880  1.00  0.00     0.041 A 
HETATM    6  C   UNL     1      40.933 -14.923   4.416  1.00  0.00    -0.033 A 
HETATM    7  C   UNL     1      40.294 -13.681   4.970  1.00  0.00     0.050 C 
HETATM    8  C   UNL     1      40.293 -15.529   3.323  1.00  0.00     0.046 A 
HETATM    9  C   UNL     1      40.855 -16.620   2.660  1.00  0.00     0.072 A 
HETATM   10  C   UNL     1      42.106 -17.130   3.029  1.00  0.00    -0.019 A 
HETATM   11  C   UNL     1      42.725 -16.536   4.147  1.00  0.00     0.040 A 
BRANCH   9  12
HETATM   12  O   UNL     1      40.107 -17.120   1.632  1.00  0.00    -0.360 OA
HETATM   13  H   UNL     1      39.167 -17.060   1.855  1.00  0.00     0.217 HD
ENDBRANCH   9  12
BRANCH  10  14
HETATM   14  C   UNL     1      42.769 -18.265   2.254  1.00  0.00     0.013 C 
HETATM   15  C   UNL     1      43.592 -17.714   1.081  1.00  0.00     0.015 C 
HETATM   16  C   UNL     1      43.657 -19.206   3.080  1.00  0.00     0.015 C 
ENDBRANCH  10  14
ENDBRANCH   1   5
BRANCH   2  17
HETATM   17  C   UNL     1      44.472 -14.008   7.453  1.00  0.00     0.105 C 
BRANCH  17  18
HETATM   18  C   UNL     1      45.710 -13.116   7.521  1.00  0.00     0.036 C 
BRANCH  18  19
HETATM   19  C   UNL     1      45.807 -12.302   8.812  1.00  0.00     0.176 C 
BRANCH  19  20
HETATM   20  O   UNL     1      44.937 -12.914   9.770  1.00  0.00    -0.350 OA
BRANCH  20  21
HETATM   21  C   UNL     1      44.325 -12.087  10.665  1.00  0.00     0.086 A 
HETATM   22  C   UNL     1      43.656 -12.452  11.828  1.00  0.00     0.152 A 
HETATM   23  N   UNL     1      43.077 -11.571  12.683  1.00  0.00    -0.270 NA
HETATM   24  C   UNL     1      43.162 -10.264  12.356  1.00  0.00     0.116 A 
HETATM   25  C   UNL     1      43.800  -9.797  11.220  1.00  0.00     0.022 A 
HETATM   26  C   UNL     1      44.390 -10.728  10.367  1.00  0.00     0.039 A 
ENDBRANCH  20  21
ENDBRANCH  19  20
ENDBRANCH  18  19
ENDBRANCH  17  18
ENDBRANCH   2  17
TORSDOF 8
ENDMDL
MODEL 5
REMARK VINA RESULT:      -6.5      3.014      4.815
REMARK  8 active torsions:
REMARK  status: ('A' for Active; 'I' for Inactive)
REMARK    1  A    between atoms: C_3  and  N_4 
REMARK       I    between atoms: N_4  and  C_5 
REMARK    2  A    between atoms: C_5  and  C_6 
REMARK    3  A    between atoms: C_6  and  C_7 
REMARK    4  A    between atoms: C_7  and  C_8 
REMARK    5  A    between atoms: C_8  and  O_9 
REMARK    6  A    between atoms: O_9  and  C_10 
REMARK    7  A    between atoms: C_18  and  C_19 
REMARK    8  A    between atoms: C_22  and  O_23 
ROOT
HETATM    1  N   UNL     1      41.500 -16.920   3.370  1.00  0.00    -0.327 N 
HETATM    2  C   UNL     1      41.608 -15.539   3.436  1.00  0.00     0.222 C 
HETATM    3  O   UNL     1      42.641 -14.897   3.580  1.00  0.00    -0.273 OA
HETATM    4  H   UNL     1      40.685 -17.261   2.876  1.00  0.00     0.169 HD
ENDROOT
BRANCH   1   5
HETATM    5  C   UNL     1      42.553 -17.853   3.531  1.00  0.00     0.041 A 
HETATM    6  C   UNL     1      43.335 -18.382   2.497  1.00  0.00    -0.033 A 
HETATM    7  C   UNL     1      43.286 -17.931   1.064  1.00  0.00     0.050 C 
HETATM    8  C   UNL     1      44.272 -19.379   2.813  1.00  0.00     0.046 A 
HETATM    9  C   UNL     1      44.481 -19.793   4.129  1.00  0.00     0.072 A 
HETATM   10  C   UNL     1      43.796 -19.201   5.197  1.00  0.00    -0.019 A 
HETATM   11  C   UNL     1      42.834 -18.225   4.865  1.00  0.00     0.040 A 
BRANCH   9  12
HETATM   12  O   UNL     1      45.405 -20.789   4.282  1.00  0.00    -0.360 OA
HETATM   13  H   UNL     1      44.959 -21.608   4.540  1.00  0.00     0.217 HD
ENDBRANCH   9  12
BRANCH  10  14
HETATM   14  C   UNL     1      44.082 -19.586   6.645  1.00  0.00     0.013 C 
HETATM   15  C   UNL     1      43.568 -18.506   7.606  1.00  0.00     0.015 C 
HETATM   16  C   UNL     1      43.532 -20.948   7.094  1.00  0.00     0.015 C 
ENDBRANCH  10  14
ENDBRANCH   1   5
BRANCH   2  17
HETATM   17  C   UNL     1      40.264 -14.860   3.219  1.00  0.00     0.105 C 
BRANCH  17  18
HETATM   18  C   UNL     1      39.467 -15.439   2.051  1.00  0.00     0.036 C 
BRANCH  18  19
HETATM   19  C   UNL     1      38.844 -14.373   1.149  1.00  0.00     0.176 C 
BRANCH  19  20
HETATM   20  O   UNL     1      39.874 -13.894   0.278  1.00  0.00    -0.350 OA
BRANCH  20  21
HETATM   21  C   UNL     1      39.829 -14.312  -1.020  1.00  0.00     0.086 A 
HETATM   22  C   UNL     1      38.854 -14.016  -1.966  1.00  0.00     0.152 A 
HETATM   23  N   UNL     1      38.877 -14.458  -3.249  1.00  0.00    -0.270 NA
HETATM   24  C   UNL     1      39.918 -15.241  -3.601  1.00  0.00     0.116 A 
HETATM   25  C   UNL     1      40.937 -15.599  -2.735  1.00  0.00     0.022 A 
HETATM   26  C   UNL     1      40.886 -15.122  -1.426  1.00  0.00     0.039 A 
ENDBRANCH  20  21
ENDBRANCH  19  20
ENDBRANCH  18  19
ENDBRANCH  17  18
ENDBRANCH   2  17
TORSDOF 8
ENDMDL
MODEL 6
REMARK VINA RESULT:      -6.4      2.319      5.873
REMARK  8 active torsions:
REMARK  status: ('A' for Active; 'I' for Inactive)
REMARK    1  A    between atoms: C_3  and  N_4 
REMARK       I    between atoms: N_4  and  C_5 
REMARK    2  A    between atoms: C_5  and  C_6 
REMARK    3  A    between atoms: C_6  and  C_7 
REMARK    4  A    between atoms: C_7  and  C_8 
REMARK    5  A    between atoms: C_8  and  O_9 
REMARK    6  A    between atoms: O_9  and  C_10 
REMARK    7  A    between atoms: C_18  and  C_19 
REMARK    8  A    between atoms: C_22  and  O_23 
ROOT
HETATM    1  N   UNL     1      42.306 -14.922   5.004  1.00  0.00    -0.327 N 
HETATM    2  C   UNL     1      43.363 -14.023   5.037  1.00  0.00     0.222 C 
HETATM    3  O   UNL     1      43.973 -13.583   4.070  1.00  0.00    -0.273 OA
HETATM    4  H   UNL     1      41.685 -14.879   5.801  1.00  0.00     0.169 HD
ENDROOT
BRANCH   1   5
HETATM    5  C   UNL     1      41.783 -15.559   3.853  1.00  0.00     0.041 A 
HETATM    6  C   UNL     1      40.538 -15.289   3.271  1.00  0.00    -0.033 A 
HETATM    7  C   UNL     1      39.620 -14.173   3.680  1.00  0.00     0.050 C 
HETATM    8  C   UNL     1      40.121 -16.085   2.191  1.00  0.00     0.046 A 
HETATM    9  C   UNL     1      40.943 -17.077   1.655  1.00  0.00     0.072 A 
HETATM   10  C   UNL     1      42.238 -17.292   2.143  1.00  0.00    -0.019 A 
HETATM   11  C   UNL     1      42.634 -16.510   3.247  1.00  0.00     0.040 A 
BRANCH   9  12
HETATM   12  O   UNL     1      40.395 -17.788   0.625  1.00  0.00    -0.360 OA
HETATM   13  H   UNL     1      39.925 -18.558   0.977  1.00  0.00     0.217 HD
ENDBRANCH   9  12
BRANCH  10  14
HETATM   14  C   UNL     1      43.175 -18.313   1.505  1.00  0.00     0.013 C 
HETATM   15  C   UNL     1      44.620 -17.796   1.499  1.00  0.00     0.015 C 
HETATM   16  C   UNL     1      43.156 -19.716   2.131  1.00  0.00     0.015 C 
ENDBRANCH  10  14
ENDBRANCH   1   5
BRANCH   2  17
HETATM   17  C   UNL     1      43.650 -13.547   6.453  1.00  0.00     0.105 C 
BRANCH  17  18
HETATM   18  C   UNL     1      44.578 -14.475   7.234  1.00  0.00     0.036 C 
BRANCH  18  19
HETATM   19  C   UNL     1      44.017 -15.885   7.423  1.00  0.00     0.176 C 
BRANCH  19  20
HETATM   20  O   UNL     1      44.624 -16.723   6.433  1.00  0.00    -0.350 OA
BRANCH  20  21
HETATM   21  C   UNL     1      44.389 -18.063   6.531  1.00  0.00     0.086 A 
HETATM   22  C   UNL     1      43.860 -18.747   7.620  1.00  0.00     0.152 A 
HETATM   23  N   UNL     1      43.640 -20.086   7.645  1.00  0.00    -0.270 NA
HETATM   24  C   UNL     1      43.974 -20.776   6.534  1.00  0.00     0.116 A 
HETATM   25  C   UNL     1      44.511 -20.191   5.400  1.00  0.00     0.022 A 
HETATM   26  C   UNL     1      44.717 -18.813   5.405  1.00  0.00     0.039 A 
ENDBRANCH  20  21
ENDBRANCH  19  20
ENDBRANCH  18  19
ENDBRANCH  17  18
ENDBRANCH   2  17
TORSDOF 8
ENDMDL
MODEL 7
REMARK VINA RESULT:      -6.4      1.930      4.392
REMARK  8 active torsions:
REMARK  status: ('A' for Active; 'I' for Inactive)
REMARK    1  A    between atoms: C_3  and  N_4 
REMARK       I    between atoms: N_4  and  C_5 
REMARK    2  A    between atoms: C_5  and  C_6 
REMARK    3  A    between atoms: C_6  and  C_7 
REMARK    4  A    between atoms: C_7  and  C_8 
REMARK    5  A    between atoms: C_8  and  O_9 
REMARK    6  A    between atoms: O_9  and  C_10 
REMARK    7  A    between atoms: C_18  and  C_19 
REMARK    8  A    between atoms: C_22  and  O_23 
ROOT
HETATM    1  N   UNL     1      43.489 -18.442   6.343  1.00  0.00    -0.327 N 
HETATM    2  C   UNL     1      44.396 -17.484   6.772  1.00  0.00     0.222 C 
HETATM    3  O   UNL     1      45.613 -17.525   6.643  1.00  0.00    -0.273 OA
HETATM    4  H   UNL     1      42.554 -18.098   6.171  1.00  0.00     0.169 HD
ENDROOT
BRANCH   1   5
HETATM    5  C   UNL     1      43.804 -19.685   5.744  1.00  0.00     0.041 A 
HETATM    6  C   UNL     1      43.955 -20.900   6.423  1.00  0.00    -0.033 A 
HETATM    7  C   UNL     1      43.654 -21.114   7.880  1.00  0.00     0.050 C 
HETATM    8  C   UNL     1      44.373 -22.025   5.694  1.00  0.00     0.046 A 
HETATM    9  C   UNL     1      44.572 -21.968   4.314  1.00  0.00     0.072 A 
HETATM   10  C   UNL     1      44.320 -20.796   3.590  1.00  0.00    -0.019 A 
HETATM   11  C   UNL     1      43.931 -19.665   4.337  1.00  0.00     0.040 A 
BRANCH   9  12
HETATM   12  O   UNL     1      45.005 -23.131   3.743  1.00  0.00    -0.360 OA
HETATM   13  H   UNL     1      44.966 -23.846   4.395  1.00  0.00     0.217 HD
ENDBRANCH   9  12
BRANCH  10  14
HETATM   14  C   UNL     1      44.449 -20.750   2.071  1.00  0.00     0.013 C 
HETATM   15  C   UNL     1      43.655 -21.892   1.422  1.00  0.00     0.015 C 
HETATM   16  C   UNL     1      44.039 -19.426   1.408  1.00  0.00     0.015 C 
ENDBRANCH  10  14
ENDBRANCH   1   5
BRANCH   2  17
HETATM   17  C   UNL     1      43.692 -16.276   7.372  1.00  0.00     0.105 C 
BRANCH  17  18
HETATM   18  C   UNL     1      43.184 -15.282   6.330  1.00  0.00     0.036 C 
BRANCH  18  19
HETATM   19  C   UNL     1      41.685 -15.401   6.051  1.00  0.00     0.176 C 
BRANCH  19  20
HETATM   20  O   UNL     1      41.498 -16.538   5.201  1.00  0.00    -0.350 OA
BRANCH  20  21
HETATM   21  C   UNL     1      41.111 -16.291   3.917  1.00  0.00     0.086 A 
HETATM   22  C   UNL     1      41.295 -17.112   2.810  1.00  0.00     0.152 A 
HETATM   23  N   UNL     1      40.872 -16.808   1.557  1.00  0.00    -0.270 NA
HETATM   24  C   UNL     1      40.243 -15.624   1.400  1.00  0.00     0.116 A 
HETATM   25  C   UNL     1      40.014 -14.733   2.436  1.00  0.00     0.022 A 
HETATM   26  C   UNL     1      40.456 -15.080   3.711  1.00  0.00     0.039 A 
ENDBRANCH  20  21
ENDBRANCH  19  20
ENDBRANCH  18  19
ENDBRANCH  17  18
ENDBRANCH   2  17
TORSDOF 8
ENDMDL
MODEL 8
REMARK VINA RESULT:      -6.4      3.007      5.002
REMARK  8 active torsions:
REMARK  status: ('A' for Active; 'I' for Inactive)
REMARK    1  A    between atoms: C_3  and  N_4 
REMARK       I    between atoms: N_4  and  C_5 
REMARK    2  A    between atoms: C_5  and  C_6 
REMARK    3  A    between atoms: C_6  and  C_7 
REMARK    4  A    between atoms: C_7  and  C_8 
REMARK    5  A    between atoms: C_8  and  O_9 
REMARK    6  A    between atoms: O_9  and  C_10 
REMARK    7  A    between atoms: C_18  and  C_19 
REMARK    8  A    between atoms: C_22  and  O_23 
ROOT
HETATM    1  N   UNL     1      42.078 -16.331   3.197  1.00  0.00    -0.327 N 
HETATM    2  C   UNL     1      40.860 -16.328   2.532  1.00  0.00     0.222 C 
HETATM    3  O   UNL     1      40.294 -17.299   2.047  1.00  0.00    -0.273 OA
HETATM    4  H   UNL     1      42.210 -15.570   3.850  1.00  0.00     0.169 HD
ENDROOT
BRANCH   1   5
HETATM    5  C   UNL     1      42.933 -17.446   3.374  1.00  0.00     0.041 A 
HETATM    6  C   UNL     1      43.597 -18.132   2.349  1.00  0.00    -0.033 A 
HETATM    7  C   UNL     1      43.634 -17.702   0.909  1.00  0.00     0.050 C 
HETATM    8  C   UNL     1      44.326 -19.285   2.682  1.00  0.00     0.046 A 
HETATM    9  C   UNL     1      44.454 -19.711   4.004  1.00  0.00     0.072 A 
HETATM   10  C   UNL     1      43.897 -18.982   5.062  1.00  0.00    -0.019 A 
HETATM   11  C   UNL     1      43.140 -17.844   4.713  1.00  0.00     0.040 A 
BRANCH   9  12
HETATM   12  O   UNL     1      45.169 -20.863   4.174  1.00  0.00    -0.360 OA
HETATM   13  H   UNL     1      46.066 -20.648   4.467  1.00  0.00     0.217 HD
ENDBRANCH   9  12
BRANCH  10  14
HETATM   14  C   UNL     1      44.107 -19.392   6.516  1.00  0.00     0.013 C 
HETATM   15  C   UNL     1      43.524 -18.338   7.467  1.00  0.00     0.015 C 
HETATM   16  C   UNL     1      43.550 -20.769   6.907  1.00  0.00     0.015 C 
ENDBRANCH  10  14
ENDBRANCH   1   5
BRANCH   2  17
HETATM   17  C   UNL     1      40.224 -14.946   2.537  1.00  0.00     0.105 C 
BRANCH  17  18
HETATM   18  C   UNL     1      38.895 -14.881   1.787  1.00  0.00     0.036 C 
BRANCH  18  19
HETATM   19  C   UNL     1      38.864 -13.817   0.689  1.00  0.00     0.176 C 
BRANCH  19  20
HETATM   20  O   UNL     1      40.068 -13.954  -0.073  1.00  0.00    -0.350 OA
BRANCH  20  21
HETATM   21  C   UNL     1      39.944 -14.441  -1.341  1.00  0.00     0.086 A 
HETATM   22  C   UNL     1      40.879 -15.185  -2.052  1.00  0.00     0.152 A 
HETATM   23  N   UNL     1      40.684 -15.651  -3.312  1.00  0.00    -0.270 NA
HETATM   24  C   UNL     1      39.504 -15.350  -3.893  1.00  0.00     0.116 A 
HETATM   25  C   UNL     1      38.509 -14.613  -3.274  1.00  0.00     0.022 A 
HETATM   26  C   UNL     1      38.739 -14.156  -1.978  1.00  0.00     0.039 A 
ENDBRANCH  20  21
ENDBRANCH  19  20
ENDBRANCH  18  19
ENDBRANCH  17  18
ENDBRANCH   2  17
TORSDOF 8
ENDMDL
MODEL 9
REMARK VINA RESULT:      -6.2      4.049      6.201
REMARK  8 active torsions:
REMARK  status: ('A' for Active; 'I' for Inactive)
REMARK    1  A    between atoms: C_3  and  N_4 
REMARK       I    between atoms: N_4  and  C_5 
REMARK    2  A    between atoms: C_5  and  C_6 
REMARK    3  A    between atoms: C_6  and  C_7 
REMARK    4  A    between atoms: C_7  and  C_8 
REMARK    5  A    between atoms: C_8  and  O_9 
REMARK    6  A    between atoms: O_9  and  C_10 
REMARK    7  A    between atoms: C_18  and  C_19 
REMARK    8  A    between atoms: C_22  and  O_23 
ROOT
HETATM    1  N   UNL     1      42.845 -14.894   5.285  1.00  0.00    -0.327 N 
HETATM    2  C   UNL     1      41.549 -14.507   5.590  1.00  0.00     0.222 C 
HETATM    3  O   UNL     1      40.628 -15.244   5.918  1.00  0.00    -0.273 OA
HETATM    4  H   UNL     1      43.547 -14.178   5.418  1.00  0.00     0.169 HD
ENDROOT
BRANCH   1   5
HETATM    5  C   UNL     1      43.330 -16.223   5.221  1.00  0.00     0.041 A 
HETATM    6  C   UNL     1      43.677 -17.015   6.322  1.00  0.00    -0.033 A 
HETATM    7  C   UNL     1      43.445 -16.640   7.759  1.00  0.00     0.050 C 
HETATM    8  C   UNL     1      44.243 -18.278   6.083  1.00  0.00     0.046 A 
HETATM    9  C   UNL     1      44.398 -18.775   4.789  1.00  0.00     0.072 A 
HETATM   10  C   UNL     1      43.956 -18.054   3.674  1.00  0.00    -0.019 A 
HETATM   11  C   UNL     1      43.419 -16.774   3.923  1.00  0.00     0.040 A 
BRANCH   9  12
HETATM   12  O   UNL     1      44.987 -20.006   4.709  1.00  0.00    -0.360 OA
HETATM   13  H   UNL     1      45.937 -19.901   4.553  1.00  0.00     0.217 HD
ENDBRANCH   9  12
BRANCH  10  14
HETATM   14  C   UNL     1      44.041 -18.628   2.263  1.00  0.00     0.013 C 
HETATM   15  C   UNL     1      43.034 -19.771   2.079  1.00  0.00     0.015 C 
HETATM   16  C   UNL     1      43.853 -17.618   1.121  1.00  0.00     0.015 C 
ENDBRANCH  10  14
ENDBRANCH   1   5
BRANCH   2  17
HETATM   17  C   UNL     1      41.394 -12.994   5.559  1.00  0.00     0.105 C 
BRANCH  17  18
HETATM   18  C   UNL     1      42.241 -12.269   6.604  1.00  0.00     0.036 C 
BRANCH  18  19
HETATM   19  C   UNL     1      41.533 -11.074   7.242  1.00  0.00     0.176 C 
BRANCH  19  20
HETATM   20  O   UNL     1      42.516 -10.337   7.978  1.00  0.00    -0.350 OA
BRANCH  20  21
HETATM   21  C   UNL     1      42.721 -10.707   9.275  1.00  0.00     0.086 A 
HETATM   22  C   UNL     1      41.765 -10.825  10.278  1.00  0.00     0.152 A 
HETATM   23  N   UNL     1      42.039 -11.211  11.550  1.00  0.00    -0.270 NA
HETATM   24  C   UNL     1      43.330 -11.483  11.836  1.00  0.00     0.116 A 
HETATM   25  C   UNL     1      44.357 -11.391  10.912  1.00  0.00     0.022 A 
HETATM   26  C   UNL     1      44.040 -10.998   9.614  1.00  0.00     0.039 A 
ENDBRANCH  20  21
ENDBRANCH  19  20
ENDBRANCH  18  19
ENDBRANCH  17  18
ENDBRANCH   2  17
TORSDOF 8
ENDMDL
MODEL 10
REMARK VINA RESULT:      -6.1      3.071      4.774
REMARK  8 active torsions:
REMARK  status: ('A' for Active; 'I' for Inactive)
REMARK    1  A    between atoms: C_3  and  N_4 
REMARK       I    between atoms: N_4  and  C_5 
REMARK    2  A    between atoms: C_5  and  C_6 
REMARK    3  A    between atoms: C_6  and  C_7 
REMARK    4  A    between atoms: C_7  and  C_8 
REMARK    5  A    between atoms: C_8  and  O_9 
REMARK    6  A    between atoms: O_9  and  C_10 
REMARK    7  A    between atoms: C_18  and  C_19 
REMARK    8  A    between atoms: C_22  and  O_23 
ROOT
HETATM    1  N   UNL     1      40.932 -16.486   3.845  1.00  0.00    -0.327 N 
HETATM    2  C   UNL     1      41.137 -15.124   4.015  1.00  0.00     0.222 C 
HETATM    3  O   UNL     1      42.177 -14.513   3.802  1.00  0.00    -0.273 OA
HETATM    4  H   UNL     1      39.970 -16.756   3.685  1.00  0.00     0.169 HD
ENDROOT
BRANCH   1   5
HETATM    5  C   UNL     1      41.907 -17.439   3.465  1.00  0.00     0.041 A 
HETATM    6  C   UNL     1      42.129 -17.899   2.161  1.00  0.00    -0.033 A 
HETATM    7  C   UNL     1      41.473 -17.342   0.929  1.00  0.00     0.050 C 
HETATM    8  C   UNL     1      43.067 -18.927   1.967  1.00  0.00     0.046 A 
HETATM    9  C   UNL     1      43.816 -19.440   3.026  1.00  0.00     0.072 A 
HETATM   10  C   UNL     1      43.698 -18.921   4.321  1.00  0.00    -0.019 A 
HETATM   11  C   UNL     1      42.732 -17.912   4.510  1.00  0.00     0.040 A 
BRANCH   9  12
HETATM   12  O   UNL     1      44.669 -20.454   2.692  1.00  0.00    -0.360 OA
HETATM   13  H   UNL     1      45.344 -20.550   3.380  1.00  0.00     0.217 HD
ENDBRANCH   9  12
BRANCH  10  14
HETATM   14  C   UNL     1      44.578 -19.415   5.465  1.00  0.00     0.013 C 
HETATM   15  C   UNL     1      45.121 -18.235   6.282  1.00  0.00     0.015 C 
HETATM   16  C   UNL     1      43.920 -20.418   6.425  1.00  0.00     0.015 C 
ENDBRANCH  10  14
ENDBRANCH   1   5
BRANCH   2  17
HETATM   17  C   UNL     1      39.858 -14.413   4.432  1.00  0.00     0.105 C 
BRANCH  17  18
HETATM   18  C   UNL     1      39.911 -12.898   4.247  1.00  0.00     0.036 C 
BRANCH  18  19
HETATM   19  C   UNL     1      39.738 -12.453   2.795  1.00  0.00     0.176 C 
BRANCH  19  20
HETATM   20  O   UNL     1      38.756 -13.309   2.199  1.00  0.00    -0.350 OA
BRANCH  20  21
HETATM   21  C   UNL     1      38.915 -13.603   0.877  1.00  0.00     0.086 A 
HETATM   22  C   UNL     1      37.921 -13.697  -0.090  1.00  0.00     0.152 A 
HETATM   23  N   UNL     1      38.152 -13.984  -1.397  1.00  0.00    -0.270 NA
HETATM   24  C   UNL     1      39.437 -14.197  -1.752  1.00  0.00     0.116 A 
HETATM   25  C   UNL     1      40.499 -14.132  -0.866  1.00  0.00     0.022 A 
HETATM   26  C   UNL     1      40.227 -13.829   0.466  1.00  0.00     0.039 A 
ENDBRANCH  20  21
ENDBRANCH  19  20
ENDBRANCH  18  19
ENDBRANCH  17  18
ENDBRANCH   2  17
TORSDOF 8
ENDMDL
