MODEL 1
REMARK VINA RESULT:      -8.1      0.000      0.000
REMARK  6 active torsions:
REMARK  status: ('A' for Active; 'I' for Inactive)
REMARK    1  A    between atoms: C_8  and  N_9 
REMARK       I    between atoms: N_9  and  C_10 
REMARK    2  A    between atoms: C_10  and  C_11 
REMARK    3  A    between atoms: C_11  and  N_12 
REMARK    4  A    between atoms: N_12  and  C_13 
REMARK    5  A    between atoms: C_13  and  C_14 
REMARK    6  A    between atoms: C_15  and  C_16 
ROOT
HETATM    1  N   UNL     1      41.654 -18.246   1.833  1.00  0.00     0.100 N 
HETATM    2  H   UNL     1      41.146 -19.026   1.410  1.00  0.00     0.317 HD
ENDROOT
BRANCH   1   3
HETATM    3  C   UNL     1      41.209 -17.003   1.157  1.00  0.00     0.372 C 
BRANCH   3   4
HETATM    4  C   UNL     1      40.389 -16.127   2.116  1.00  0.00     0.250 C 
HETATM    5  N   UNL     1      41.097 -15.780   3.247  1.00  0.00    -0.322 N 
HETATM    6  H   UNL     1      42.060 -16.109   3.262  1.00  0.00     0.169 HD
HETATM    7  O   UNL     1      39.246 -15.790   1.826  1.00  0.00    -0.271 OA
BRANCH   5   8
HETATM    8  C   UNL     1      40.652 -15.072   4.348  1.00  0.00     0.085 A 
HETATM    9  C   UNL     1      40.672 -15.621   5.616  1.00  0.00     0.052 A 
HETATM   10  C   UNL     1      41.115 -16.940   6.127  1.00  0.00     0.072 C 
HETATM   11  N   UNL     1      40.159 -14.667   6.446  1.00  0.00    -0.280 N 
HETATM   12  H   UNL     1      40.022 -14.717   7.450  1.00  0.00     0.189 HD
HETATM   13  N   UNL     1      39.798 -13.544   5.820  1.00  0.00    -0.177 NA
HETATM   14  C   UNL     1      40.094 -13.771   4.531  1.00  0.00     0.079 A 
HETATM   15  C   UNL     1      39.801 -12.696   3.551  1.00  0.00     0.075 C 
ENDBRANCH   5   8
ENDBRANCH   3   4
ENDBRANCH   1   3
BRANCH   1  16
HETATM   16  C   UNL     1      43.096 -18.518   1.683  1.00  0.00     0.250 C 
HETATM   17  C   UNL     1      43.807 -17.363   0.956  1.00  0.00     0.048 C 
BRANCH  16  18
HETATM   18  C   UNL     1      43.743 -19.000   2.981  1.00  0.00    -0.011 A 
HETATM   19  C   UNL     1      44.120 -20.360   3.154  1.00  0.00     0.056 A 
HETATM   20  C   UNL     1      44.697 -20.761   4.378  1.00  0.00     0.017 A 
HETATM   21  C   UNL     1      44.903 -19.854   5.415  1.00  0.00     0.001 A 
HETATM   22  C   UNL     1      44.528 -18.528   5.252  1.00  0.00     0.001 A 
HETATM   23  C   UNL     1      43.953 -18.108   4.052  1.00  0.00     0.010 A 
BRANCH  19  24
HETATM   24  C   UNL     1      43.902 -21.415   2.086  1.00  0.00     0.418 C 
HETATM   25  F   UNL     1      44.591 -21.175   0.934  1.00  0.00    -0.166 F 
HETATM   26  F   UNL     1      44.308 -22.660   2.480  1.00  0.00    -0.166 F 
HETATM   27  F   UNL     1      42.596 -21.566   1.727  1.00  0.00    -0.166 F 
ENDBRANCH  19  24
ENDBRANCH  16  18
ENDBRANCH   1  16
TORSDOF 6
ENDMDL
MODEL 2
REMARK VINA RESULT:      -7.8      2.451      3.639
REMARK  6 active torsions:
REMARK  status: ('A' for Active; 'I' for Inactive)
REMARK    1  A    between atoms: C_8  and  N_9 
REMARK       I    between atoms: N_9  and  C_10 
REMARK    2  A    between atoms: C_10  and  C_11 
REMARK    3  A    between atoms: C_11  and  N_12 
REMARK    4  A    between atoms: N_12  and  C_13 
REMARK    5  A    between atoms: C_13  and  C_14 
REMARK    6  A    between atoms: C_15  and  C_16 
ROOT
HETATM    1  N   UNL     1      42.799 -18.504   6.378  1.00  0.00     0.100 N 
HETATM    2  H   UNL     1      42.019 -18.771   5.772  1.00  0.00     0.317 HD
ENDROOT
BRANCH   1   3
HETATM    3  C   UNL     1      42.443 -17.219   7.026  1.00  0.00     0.372 C 
BRANCH   3   4
HETATM    4  C   UNL     1      41.805 -16.257   6.013  1.00  0.00     0.250 C 
HETATM    5  N   UNL     1      42.337 -14.988   6.087  1.00  0.00    -0.322 N 
HETATM    6  H   UNL     1      43.095 -14.884   6.758  1.00  0.00     0.169 HD
HETATM    7  O   UNL     1      40.943 -16.654   5.236  1.00  0.00    -0.271 OA
BRANCH   5   8
HETATM    8  C   UNL     1      41.951 -13.859   5.386  1.00  0.00     0.085 A 
HETATM    9  C   UNL     1      42.678 -13.397   4.305  1.00  0.00     0.052 A 
HETATM   10  C   UNL     1      43.911 -13.890   3.647  1.00  0.00     0.072 C 
HETATM   11  N   UNL     1      42.030 -12.279   3.868  1.00  0.00    -0.280 N 
HETATM   12  H   UNL     1      42.277 -11.675   3.091  1.00  0.00     0.189 HD
HETATM   13  N   UNL     1      40.945 -11.969   4.582  1.00  0.00    -0.177 NA
HETATM   14  C   UNL     1      40.877 -12.929   5.518  1.00  0.00     0.079 A 
HETATM   15  C   UNL     1      39.763 -12.868   6.496  1.00  0.00     0.075 C 
ENDBRANCH   5   8
ENDBRANCH   3   4
ENDBRANCH   1   3
BRANCH   1  16
HETATM   16  C   UNL     1      44.011 -18.430   5.540  1.00  0.00     0.250 C 
HETATM   17  C   UNL     1      45.220 -17.939   6.356  1.00  0.00     0.048 C 
BRANCH  16  18
HETATM   18  C   UNL     1      44.228 -19.690   4.703  1.00  0.00    -0.011 A 
HETATM   19  C   UNL     1      44.007 -19.686   3.298  1.00  0.00     0.056 A 
HETATM   20  C   UNL     1      44.202 -20.879   2.570  1.00  0.00     0.017 A 
HETATM   21  C   UNL     1      44.605 -22.054   3.198  1.00  0.00     0.001 A 
HETATM   22  C   UNL     1      44.812 -22.063   4.571  1.00  0.00     0.001 A 
HETATM   23  C   UNL     1      44.623 -20.897   5.312  1.00  0.00     0.010 A 
BRANCH  19  24
HETATM   24  C   UNL     1      43.539 -18.455   2.543  1.00  0.00     0.418 C 
HETATM   25  F   UNL     1      44.314 -17.355   2.761  1.00  0.00    -0.166 F 
HETATM   26  F   UNL     1      43.554 -18.627   1.187  1.00  0.00    -0.166 F 
HETATM   27  F   UNL     1      42.260 -18.088   2.839  1.00  0.00    -0.166 F 
ENDBRANCH  19  24
ENDBRANCH  16  18
ENDBRANCH   1  16
TORSDOF 6
ENDMDL
MODEL 3
REMARK VINA RESULT:      -7.6      2.166      3.517
REMARK  6 active torsions:
REMARK  status: ('A' for Active; 'I' for Inactive)
REMARK    1  A    between atoms: C_8  and  N_9 
REMARK       I    between atoms: N_9  and  C_10 
REMARK    2  A    between atoms: C_10  and  C_11 
REMARK    3  A    between atoms: C_11  and  N_12 
REMARK    4  A    between atoms: N_12  and  C_13 
REMARK    5  A    between atoms: C_13  and  C_14 
REMARK    6  A    between atoms: C_15  and  C_16 
ROOT
HETATM    1  N   UNL     1      42.690 -18.248   5.775  1.00  0.00     0.100 N 
HETATM    2  H   UNL     1      42.080 -18.195   4.957  1.00  0.00     0.317 HD
ENDROOT
BRANCH   1   3
HETATM    3  C   UNL     1      42.491 -17.009   6.564  1.00  0.00     0.372 C 
BRANCH   3   4
HETATM    4  C   UNL     1      42.238 -15.809   5.638  1.00  0.00     0.250 C 
HETATM    5  N   UNL     1      40.912 -15.694   5.280  1.00  0.00    -0.322 N 
HETATM    6  H   UNL     1      40.295 -16.378   5.711  1.00  0.00     0.169 HD
HETATM    7  O   UNL     1      43.160 -15.066   5.319  1.00  0.00    -0.271 OA
BRANCH   5   8
HETATM    8  C   UNL     1      40.342 -14.787   4.405  1.00  0.00     0.085 A 
HETATM    9  C   UNL     1      40.000 -13.510   4.809  1.00  0.00     0.052 A 
HETATM   10  C   UNL     1      40.121 -12.808   6.109  1.00  0.00     0.072 C 
HETATM   11  N   UNL     1      39.461 -12.902   3.713  1.00  0.00    -0.280 N 
HETATM   12  H   UNL     1      39.098 -11.958   3.635  1.00  0.00     0.189 HD
HETATM   13  N   UNL     1      39.416 -13.681   2.630  1.00  0.00    -0.177 NA
HETATM   14  C   UNL     1      39.955 -14.843   3.032  1.00  0.00     0.079 A 
HETATM   15  C   UNL     1      40.047 -15.946   2.044  1.00  0.00     0.075 C 
ENDBRANCH   5   8
ENDBRANCH   3   4
ENDBRANCH   1   3
BRANCH   1  16
HETATM   16  C   UNL     1      44.072 -18.428   5.292  1.00  0.00     0.250 C 
HETATM   17  C   UNL     1      45.093 -18.126   6.402  1.00  0.00     0.048 C 
BRANCH  16  18
HETATM   18  C   UNL     1      44.266 -19.742   4.535  1.00  0.00    -0.011 A 
HETATM   19  C   UNL     1      44.043 -19.822   3.133  1.00  0.00     0.056 A 
HETATM   20  C   UNL     1      44.218 -21.062   2.481  1.00  0.00     0.017 A 
HETATM   21  C   UNL     1      44.601 -22.202   3.182  1.00  0.00     0.001 A 
HETATM   22  C   UNL     1      44.810 -22.128   4.552  1.00  0.00     0.001 A 
HETATM   23  C   UNL     1      44.642 -20.915   5.219  1.00  0.00     0.010 A 
BRANCH  19  24
HETATM   24  C   UNL     1      43.596 -18.633   2.302  1.00  0.00     0.418 C 
HETATM   25  F   UNL     1      44.373 -17.526   2.472  1.00  0.00    -0.166 F 
HETATM   26  F   UNL     1      43.633 -18.881   0.958  1.00  0.00    -0.166 F 
HETATM   27  F   UNL     1      42.314 -18.244   2.555  1.00  0.00    -0.166 F 
ENDBRANCH  19  24
ENDBRANCH  16  18
ENDBRANCH   1  16
TORSDOF 6
ENDMDL
MODEL 4
REMARK VINA RESULT:      -7.4      4.766      5.745
REMARK  6 active torsions:
REMARK  status: ('A' for Active; 'I' for Inactive)
REMARK    1  A    between atoms: C_8  and  N_9 
REMARK       I    between atoms: N_9  and  C_10 
REMARK    2  A    between atoms: C_10  and  C_11 
REMARK    3  A    between atoms: C_11  and  N_12 
REMARK    4  A    between atoms: N_12  and  C_13 
REMARK    5  A    between atoms: C_13  and  C_14 
REMARK    6  A    between atoms: C_15  and  C_16 
ROOT
HETATM    1  N   UNL     1      43.020 -15.727   5.740  1.00  0.00     0.100 N 
HETATM    2  H   UNL     1      43.765 -15.662   5.042  1.00  0.00     0.317 HD
ENDROOT
BRANCH   1   3
HETATM    3  C   UNL     1      43.636 -15.529   7.074  1.00  0.00     0.372 C 
BRANCH   3   4
HETATM    4  C   UNL     1      44.402 -14.198   7.127  1.00  0.00     0.250 C 
HETATM    5  N   UNL     1      44.464 -13.679   8.402  1.00  0.00    -0.322 N 
HETATM    6  H   UNL     1      44.042 -14.264   9.119  1.00  0.00     0.169 HD
HETATM    7  O   UNL     1      44.899 -13.727   6.110  1.00  0.00    -0.271 OA
BRANCH   5   8
HETATM    8  C   UNL     1      45.001 -12.469   8.804  1.00  0.00     0.085 A 
HETATM    9  C   UNL     1      44.309 -11.614   9.641  1.00  0.00     0.052 A 
HETATM   10  C   UNL     1      42.977 -11.706  10.282  1.00  0.00     0.072 C 
HETATM   11  N   UNL     1      45.117 -10.529   9.820  1.00  0.00    -0.280 N 
HETATM   12  H   UNL     1      44.938  -9.699  10.374  1.00  0.00     0.189 HD
HETATM   13  N   UNL     1      46.276 -10.604   9.160  1.00  0.00    -0.177 NA
HETATM   14  C   UNL     1      46.226 -11.789   8.532  1.00  0.00     0.079 A 
HETATM   15  C   UNL     1      47.384 -12.179   7.690  1.00  0.00     0.075 C 
ENDBRANCH   5   8
ENDBRANCH   3   4
ENDBRANCH   1   3
BRANCH   1  16
HETATM   16  C   UNL     1      42.368 -17.041   5.577  1.00  0.00     0.250 C 
HETATM   17  C   UNL     1      40.873 -16.967   5.932  1.00  0.00     0.048 C 
BRANCH  16  18
HETATM   18  C   UNL     1      42.715 -17.711   4.248  1.00  0.00    -0.011 A 
HETATM   19  C   UNL     1      43.680 -18.753   4.179  1.00  0.00     0.056 A 
HETATM   20  C   UNL     1      43.980 -19.328   2.926  1.00  0.00     0.017 A 
HETATM   21  C   UNL     1      43.352 -18.896   1.760  1.00  0.00     0.001 A 
HETATM   22  C   UNL     1      42.417 -17.872   1.823  1.00  0.00     0.001 A 
HETATM   23  C   UNL     1      42.105 -17.286   3.050  1.00  0.00     0.010 A 
BRANCH  19  24
HETATM   24  C   UNL     1      44.429 -19.261   5.398  1.00  0.00     0.418 C 
HETATM   25  F   UNL     1      45.210 -18.315   5.991  1.00  0.00    -0.166 F 
HETATM   26  F   UNL     1      43.595 -19.694   6.390  1.00  0.00    -0.166 F 
HETATM   27  F   UNL     1      45.244 -20.321   5.132  1.00  0.00    -0.166 F 
ENDBRANCH  19  24
ENDBRANCH  16  18
ENDBRANCH   1  16
TORSDOF 6
ENDMDL
MODEL 5
REMARK VINA RESULT:      -7.2      2.839      4.235
REMARK  6 active torsions:
REMARK  status: ('A' for Active; 'I' for Inactive)
REMARK    1  A    between atoms: C_8  and  N_9 
REMARK       I    between atoms: N_9  and  C_10 
REMARK    2  A    between atoms: C_10  and  C_11 
REMARK    3  A    between atoms: C_11  and  N_12 
REMARK    4  A    between atoms: N_12  and  C_13 
REMARK    5  A    between atoms: C_13  and  C_14 
REMARK    6  A    between atoms: C_15  and  C_16 
ROOT
HETATM    1  N   UNL     1      40.801 -16.826   3.470  1.00  0.00     0.100 N 
HETATM    2  H   UNL     1      40.541 -17.632   4.043  1.00  0.00     0.317 HD
ENDROOT
BRANCH   1   3
HETATM    3  C   UNL     1      40.244 -17.042   2.113  1.00  0.00     0.372 C 
BRANCH   3   4
HETATM    4  C   UNL     1      40.143 -15.713   1.349  1.00  0.00     0.250 C 
HETATM    5  N   UNL     1      40.983 -15.670   0.258  1.00  0.00    -0.322 N 
HETATM    6  H   UNL     1      41.506 -16.527   0.090  1.00  0.00     0.169 HD
HETATM    7  O   UNL     1      39.358 -14.844   1.714  1.00  0.00    -0.271 OA
BRANCH   5   8
HETATM    8  C   UNL     1      41.209 -14.611  -0.603  1.00  0.00     0.085 A 
HETATM    9  C   UNL     1      41.045 -14.743  -1.970  1.00  0.00     0.052 A 
HETATM   10  C   UNL     1      40.632 -15.885  -2.820  1.00  0.00     0.072 C 
HETATM   11  N   UNL     1      41.358 -13.528  -2.505  1.00  0.00    -0.280 N 
HETATM   12  H   UNL     1      41.351 -13.252  -3.480  1.00  0.00     0.189 HD
HETATM   13  N   UNL     1      41.721 -12.616  -1.599  1.00  0.00    -0.177 NA
HETATM   14  C   UNL     1      41.634 -13.260  -0.424  1.00  0.00     0.079 A 
HETATM   15  C   UNL     1      41.985 -12.511   0.807  1.00  0.00     0.075 C 
ENDBRANCH   5   8
ENDBRANCH   3   4
ENDBRANCH   1   3
BRANCH   1  16
HETATM   16  C   UNL     1      42.272 -16.714   3.495  1.00  0.00     0.250 C 
HETATM   17  C   UNL     1      42.716 -15.251   3.668  1.00  0.00     0.048 C 
BRANCH  16  18
HETATM   18  C   UNL     1      42.925 -17.733   4.430  1.00  0.00    -0.011 A 
HETATM   19  C   UNL     1      43.647 -18.845   3.916  1.00  0.00     0.056 A 
HETATM   20  C   UNL     1      44.216 -19.769   4.818  1.00  0.00     0.017 A 
HETATM   21  C   UNL     1      44.084 -19.613   6.196  1.00  0.00     0.001 A 
HETATM   22  C   UNL     1      43.371 -18.534   6.700  1.00  0.00     0.001 A 
HETATM   23  C   UNL     1      42.798 -17.608   5.828  1.00  0.00     0.010 A 
BRANCH  19  24
HETATM   24  C   UNL     1      43.811 -19.102   2.429  1.00  0.00     0.418 C 
HETATM   25  F   UNL     1      44.422 -18.081   1.764  1.00  0.00    -0.166 F 
HETATM   26  F   UNL     1      44.582 -20.199   2.163  1.00  0.00    -0.166 F 
HETATM   27  F   UNL     1      42.633 -19.331   1.783  1.00  0.00    -0.166 F 
ENDBRANCH  19  24
ENDBRANCH  16  18
ENDBRANCH   1  16
TORSDOF 6
ENDMDL
MODEL 6
REMARK VINA RESULT:      -7.2      4.254      5.670
REMARK  6 active torsions:
REMARK  status: ('A' for Active; 'I' for Inactive)
REMARK    1  A    between atoms: C_8  and  N_9 
REMARK       I    between atoms: N_9  and  C_10 
REMARK    2  A    between atoms: C_10  and  C_11 
REMARK    3  A    between atoms: C_11  and  N_12 
REMARK    4  A    between atoms: N_12  and  C_13 
REMARK    5  A    between atoms: C_13  and  C_14 
REMARK    6  A    between atoms: C_15  and  C_16 
ROOT
HETATM    1  N   UNL     1      42.643 -16.749   1.092  1.00  0.00     0.100 N 
HETATM    2  H   UNL     1      43.053 -15.813   1.108  1.00  0.00     0.317 HD
ENDROOT
BRANCH   1   3
HETATM    3  C   UNL     1      41.397 -16.680   0.292  1.00  0.00     0.372 C 
BRANCH   3   4
HETATM    4  C   UNL     1      41.224 -15.283  -0.325  1.00  0.00     0.250 C 
HETATM    5  N   UNL     1      40.691 -15.333  -1.595  1.00  0.00    -0.322 N 
HETATM    6  H   UNL     1      40.449 -16.267  -1.918  1.00  0.00     0.169 HD
HETATM    7  O   UNL     1      41.524 -14.280   0.314  1.00  0.00    -0.271 OA
BRANCH   5   8
HETATM    8  C   UNL     1      40.474 -14.284  -2.470  1.00  0.00     0.085 A 
HETATM    9  C   UNL     1      39.240 -14.078  -3.059  1.00  0.00     0.052 A 
HETATM   10  C   UNL     1      37.951 -14.801  -2.954  1.00  0.00     0.072 C 
HETATM   11  N   UNL     1      39.384 -12.982  -3.859  1.00  0.00    -0.280 N 
HETATM   12  H   UNL     1      38.687 -12.538  -4.445  1.00  0.00     0.189 HD
HETATM   13  N   UNL     1      40.614 -12.462  -3.845  1.00  0.00    -0.177 NA
HETATM   14  C   UNL     1      41.299 -13.245  -2.997  1.00  0.00     0.079 A 
HETATM   15  C   UNL     1      42.730 -12.931  -2.762  1.00  0.00     0.075 C 
ENDBRANCH   5   8
ENDBRANCH   3   4
ENDBRANCH   1   3
BRANCH   1  16
HETATM   16  C   UNL     1      42.428 -17.167   2.490  1.00  0.00     0.250 C 
HETATM   17  C   UNL     1      40.933 -17.146   2.852  1.00  0.00     0.048 C 
BRANCH  16  18
HETATM   18  C   UNL     1      43.191 -18.442   2.849  1.00  0.00    -0.011 A 
HETATM   19  C   UNL     1      43.805 -18.597   4.122  1.00  0.00     0.056 A 
HETATM   20  C   UNL     1      44.516 -19.784   4.400  1.00  0.00     0.017 A 
HETATM   21  C   UNL     1      44.627 -20.802   3.456  1.00  0.00     0.001 A 
HETATM   22  C   UNL     1      44.036 -20.649   2.209  1.00  0.00     0.001 A 
HETATM   23  C   UNL     1      43.331 -19.483   1.910  1.00  0.00     0.010 A 
BRANCH  19  24
HETATM   24  C   UNL     1      43.756 -17.524   5.194  1.00  0.00     0.418 C 
HETATM   25  F   UNL     1      43.851 -16.257   4.703  1.00  0.00    -0.166 F 
HETATM   26  F   UNL     1      42.586 -17.535   5.901  1.00  0.00    -0.166 F 
HETATM   27  F   UNL     1      44.737 -17.647   6.133  1.00  0.00    -0.166 F 
ENDBRANCH  19  24
ENDBRANCH  16  18
ENDBRANCH   1  16
TORSDOF 6
ENDMDL
MODEL 7
REMARK VINA RESULT:      -7.1      1.889      2.405
REMARK  6 active torsions:
REMARK  status: ('A' for Active; 'I' for Inactive)
REMARK    1  A    between atoms: C_8  and  N_9 
REMARK       I    between atoms: N_9  and  C_10 
REMARK    2  A    between atoms: C_10  and  C_11 
REMARK    3  A    between atoms: C_11  and  N_12 
REMARK    4  A    between atoms: N_12  and  C_13 
REMARK    5  A    between atoms: C_13  and  C_14 
REMARK    6  A    between atoms: C_15  and  C_16 
ROOT
HETATM    1  N   UNL     1      41.996 -18.252   1.753  1.00  0.00     0.100 N 
HETATM    2  H   UNL     1      41.557 -19.071   1.325  1.00  0.00     0.317 HD
ENDROOT
BRANCH   1   3
HETATM    3  C   UNL     1      41.692 -17.081   0.895  1.00  0.00     0.372 C 
BRANCH   3   4
HETATM    4  C   UNL     1      40.584 -16.221   1.522  1.00  0.00     0.250 C 
HETATM    5  N   UNL     1      40.742 -14.880   1.245  1.00  0.00    -0.322 N 
HETATM    6  H   UNL     1      41.528 -14.661   0.638  1.00  0.00     0.169 HD
HETATM    7  O   UNL     1      39.678 -16.744   2.161  1.00  0.00    -0.271 OA
BRANCH   5   8
HETATM    8  C   UNL     1      39.984 -13.819   1.708  1.00  0.00     0.085 A 
HETATM    9  C   UNL     1      40.517 -12.865   2.553  1.00  0.00     0.052 A 
HETATM   10  C   UNL     1      41.866 -12.693   3.141  1.00  0.00     0.072 C 
HETATM   11  N   UNL     1      39.505 -11.988   2.815  1.00  0.00    -0.280 N 
HETATM   12  H   UNL     1      39.529 -11.159   3.398  1.00  0.00     0.189 HD
HETATM   13  N   UNL     1      38.353 -12.298   2.215  1.00  0.00    -0.177 NA
HETATM   14  C   UNL     1      38.625 -13.418   1.528  1.00  0.00     0.079 A 
HETATM   15  C   UNL     1      37.529 -14.036   0.742  1.00  0.00     0.075 C 
ENDBRANCH   5   8
ENDBRANCH   3   4
ENDBRANCH   1   3
BRANCH   1  16
HETATM   16  C   UNL     1      43.438 -18.534   1.882  1.00  0.00     0.250 C 
HETATM   17  C   UNL     1      44.281 -17.423   1.235  1.00  0.00     0.048 C 
BRANCH  16  18
HETATM   18  C   UNL     1      43.834 -18.943   3.301  1.00  0.00    -0.011 A 
HETATM   19  C   UNL     1      44.207 -20.281   3.603  1.00  0.00     0.056 A 
HETATM   20  C   UNL     1      44.547 -20.615   4.932  1.00  0.00     0.017 A 
HETATM   21  C   UNL     1      44.522 -19.663   5.948  1.00  0.00     0.001 A 
HETATM   22  C   UNL     1      44.149 -18.358   5.657  1.00  0.00     0.001 A 
HETATM   23  C   UNL     1      43.807 -18.004   4.352  1.00  0.00     0.010 A 
BRANCH  19  24
HETATM   24  C   UNL     1      44.231 -21.383   2.560  1.00  0.00     0.418 C 
HETATM   25  F   UNL     1      43.130 -21.398   1.757  1.00  0.00    -0.166 F 
HETATM   26  F   UNL     1      45.287 -21.274   1.698  1.00  0.00    -0.166 F 
HETATM   27  F   UNL     1      44.336 -22.634   3.091  1.00  0.00    -0.166 F 
ENDBRANCH  19  24
ENDBRANCH  16  18
ENDBRANCH   1  16
TORSDOF 6
ENDMDL
MODEL 8
REMARK VINA RESULT:      -7.1      4.033      5.575
REMARK  6 active torsions:
REMARK  status: ('A' for Active; 'I' for Inactive)
REMARK    1  A    between atoms: C_8  and  N_9 
REMARK       I    between atoms: N_9  and  C_10 
REMARK    2  A    between atoms: C_10  and  C_11 
REMARK    3  A    between atoms: C_11  and  N_12 
REMARK    4  A    between atoms: N_12  and  C_13 
REMARK    5  A    between atoms: C_13  and  C_14 
REMARK    6  A    between atoms: C_15  and  C_16 
ROOT
HETATM    1  N   UNL     1      42.704 -16.202   1.686  1.00  0.00     0.100 N 
HETATM    2  H   UNL     1      43.585 -16.111   2.198  1.00  0.00     0.317 HD
ENDROOT
BRANCH   1   3
HETATM    3  C   UNL     1      41.963 -14.927   1.840  1.00  0.00     0.372 C 
BRANCH   3   4
HETATM    4  C   UNL     1      41.234 -14.561   0.538  1.00  0.00     0.250 C 
HETATM    5  N   UNL     1      42.102 -14.377  -0.516  1.00  0.00    -0.322 N 
HETATM    6  H   UNL     1      43.080 -14.552  -0.296  1.00  0.00     0.169 HD
HETATM    7  O   UNL     1      40.010 -14.487   0.512  1.00  0.00    -0.271 OA
BRANCH   5   8
HETATM    8  C   UNL     1      41.805 -13.968  -1.804  1.00  0.00     0.085 A 
HETATM    9  C   UNL     1      42.187 -12.725  -2.272  1.00  0.00     0.052 A 
HETATM   10  C   UNL     1      42.928 -11.605  -1.645  1.00  0.00     0.072 C 
HETATM   11  N   UNL     1      41.727 -12.651  -3.555  1.00  0.00    -0.280 N 
HETATM   12  H   UNL     1      41.822 -11.884  -4.212  1.00  0.00     0.189 HD
HETATM   13  N   UNL     1      41.071 -13.742  -3.958  1.00  0.00    -0.177 NA
HETATM   14  C   UNL     1      41.109 -14.564  -2.898  1.00  0.00     0.079 A 
HETATM   15  C   UNL     1      40.447 -15.887  -3.020  1.00  0.00     0.075 C 
ENDBRANCH   5   8
ENDBRANCH   3   4
ENDBRANCH   1   3
BRANCH   1  16
HETATM   16  C   UNL     1      41.989 -17.372   2.230  1.00  0.00     0.250 C 
HETATM   17  C   UNL     1      40.985 -17.934   1.209  1.00  0.00     0.048 C 
BRANCH  16  18
HETATM   18  C   UNL     1      42.929 -18.386   2.883  1.00  0.00    -0.011 A 
HETATM   19  C   UNL     1      43.012 -18.507   4.297  1.00  0.00     0.056 A 
HETATM   20  C   UNL     1      43.908 -19.446   4.853  1.00  0.00     0.017 A 
HETATM   21  C   UNL     1      44.709 -20.250   4.046  1.00  0.00     0.001 A 
HETATM   22  C   UNL     1      44.637 -20.126   2.666  1.00  0.00     0.001 A 
HETATM   23  C   UNL     1      43.760 -19.205   2.092  1.00  0.00     0.010 A 
BRANCH  19  24
HETATM   24  C   UNL     1      42.195 -17.648   5.245  1.00  0.00     0.418 C 
HETATM   25  F   UNL     1      40.850 -17.818   5.113  1.00  0.00    -0.166 F 
HETATM   26  F   UNL     1      42.452 -17.920   6.560  1.00  0.00    -0.166 F 
HETATM   27  F   UNL     1      42.430 -16.313   5.108  1.00  0.00    -0.166 F 
ENDBRANCH  19  24
ENDBRANCH  16  18
ENDBRANCH   1  16
TORSDOF 6
ENDMDL
MODEL 9
REMARK VINA RESULT:      -7.1      2.972      4.087
REMARK  6 active torsions:
REMARK  status: ('A' for Active; 'I' for Inactive)
REMARK    1  A    between atoms: C_8  and  N_9 
REMARK       I    between atoms: N_9  and  C_10 
REMARK    2  A    between atoms: C_10  and  C_11 
REMARK    3  A    between atoms: C_11  and  N_12 
REMARK    4  A    between atoms: N_12  and  C_13 
REMARK    5  A    between atoms: C_13  and  C_14 
REMARK    6  A    between atoms: C_15  and  C_16 
ROOT
HETATM    1  N   UNL     1      41.952 -17.339   2.194  1.00  0.00     0.100 N 
HETATM    2  H   UNL     1      41.356 -17.834   1.526  1.00  0.00     0.317 HD
ENDROOT
BRANCH   1   3
HETATM    3  C   UNL     1      42.054 -15.930   1.745  1.00  0.00     0.372 C 
BRANCH   3   4
HETATM    4  C   UNL     1      41.302 -15.724   0.421  1.00  0.00     0.250 C 
HETATM    5  N   UNL     1      40.633 -14.520   0.379  1.00  0.00    -0.322 N 
HETATM    6  H   UNL     1      40.769 -13.930   1.197  1.00  0.00     0.169 HD
HETATM    7  O   UNL     1      41.360 -16.571  -0.464  1.00  0.00    -0.271 OA
BRANCH   5   8
HETATM    8  C   UNL     1      39.798 -14.043  -0.616  1.00  0.00     0.085 A 
HETATM    9  C   UNL     1      38.445 -13.867  -0.399  1.00  0.00     0.052 A 
HETATM   10  C   UNL     1      37.585 -14.092   0.787  1.00  0.00     0.072 C 
HETATM   11  N   UNL     1      37.934 -13.402  -1.576  1.00  0.00    -0.280 N 
HETATM   12  H   UNL     1      36.973 -13.160  -1.791  1.00  0.00     0.189 HD
HETATM   13  N   UNL     1      38.844 -13.269  -2.545  1.00  0.00    -0.177 NA
HETATM   14  C   UNL     1      39.996 -13.655  -1.975  1.00  0.00     0.079 A 
HETATM   15  C   UNL     1      41.225 -13.630  -2.806  1.00  0.00     0.075 C 
ENDBRANCH   5   8
ENDBRANCH   3   4
ENDBRANCH   1   3
BRANCH   1  16
HETATM   16  C   UNL     1      43.248 -18.041   2.243  1.00  0.00     0.250 C 
HETATM   17  C   UNL     1      44.298 -17.331   1.371  1.00  0.00     0.048 C 
BRANCH  16  18
HETATM   18  C   UNL     1      43.677 -18.390   3.668  1.00  0.00    -0.011 A 
HETATM   19  C   UNL     1      44.178 -19.681   3.989  1.00  0.00     0.056 A 
HETATM   20  C   UNL     1      44.544 -19.962   5.324  1.00  0.00     0.017 A 
HETATM   21  C   UNL     1      44.423 -19.002   6.326  1.00  0.00     0.001 A 
HETATM   22  C   UNL     1      43.925 -17.744   6.016  1.00  0.00     0.001 A 
HETATM   23  C   UNL     1      43.555 -17.444   4.705  1.00  0.00     0.010 A 
BRANCH  19  24
HETATM   24  C   UNL     1      44.313 -20.790   2.962  1.00  0.00     0.418 C 
HETATM   25  F   UNL     1      43.232 -20.906   2.139  1.00  0.00    -0.166 F 
HETATM   26  F   UNL     1      45.373 -20.605   2.118  1.00  0.00    -0.166 F 
HETATM   27  F   UNL     1      44.510 -22.021   3.513  1.00  0.00    -0.166 F 
ENDBRANCH  19  24
ENDBRANCH  16  18
ENDBRANCH   1  16
TORSDOF 6
ENDMDL
MODEL 10
REMARK VINA RESULT:      -7.1      2.098      3.559
REMARK  6 active torsions:
REMARK  status: ('A' for Active; 'I' for Inactive)
REMARK    1  A    between atoms: C_8  and  N_9 
REMARK       I    between atoms: N_9  and  C_10 
REMARK    2  A    between atoms: C_10  and  C_11 
REMARK    3  A    between atoms: C_11  and  N_12 
REMARK    4  A    between atoms: N_12  and  C_13 
REMARK    5  A    between atoms: C_13  and  C_14 
REMARK    6  A    between atoms: C_15  and  C_16 
ROOT
HETATM    1  N   UNL     1      41.591 -17.618   4.654  1.00  0.00     0.100 N 
HETATM    2  H   UNL     1      41.306 -17.853   3.700  1.00  0.00     0.317 HD
ENDROOT
BRANCH   1   3
HETATM    3  C   UNL     1      41.007 -16.296   4.983  1.00  0.00     0.372 C 
BRANCH   3   4
HETATM    4  C   UNL     1      41.019 -15.374   3.754  1.00  0.00     0.250 C 
HETATM    5  N   UNL     1      40.260 -15.873   2.717  1.00  0.00    -0.322 N 
HETATM    6  H   UNL     1      39.772 -16.740   2.928  1.00  0.00     0.169 HD
HETATM    7  O   UNL     1      41.636 -14.315   3.778  1.00  0.00    -0.271 OA
BRANCH   5   8
HETATM    8  C   UNL     1      40.109 -15.352   1.445  1.00  0.00     0.085 A 
HETATM    9  C   UNL     1      40.951 -15.715   0.411  1.00  0.00     0.052 A 
HETATM   10  C   UNL     1      42.105 -16.642   0.341  1.00  0.00     0.072 C 
HETATM   11  N   UNL     1      40.528 -15.014  -0.681  1.00  0.00    -0.280 N 
HETATM   12  H   UNL     1      40.909 -15.028  -1.621  1.00  0.00     0.189 HD
HETATM   13  N   UNL     1      39.484 -14.217  -0.440  1.00  0.00    -0.177 NA
HETATM   14  C   UNL     1      39.209 -14.411   0.859  1.00  0.00     0.079 A 
HETATM   15  C   UNL     1      38.082 -13.650   1.452  1.00  0.00     0.075 C 
ENDBRANCH   5   8
ENDBRANCH   3   4
ENDBRANCH   1   3
BRANCH   1  16
HETATM   16  C   UNL     1      43.065 -17.643   4.699  1.00  0.00     0.250 C 
HETATM   17  C   UNL     1      43.611 -16.548   5.631  1.00  0.00     0.048 C 
BRANCH  16  18
HETATM   18  C   UNL     1      43.625 -19.050   4.910  1.00  0.00    -0.011 A 
HETATM   19  C   UNL     1      43.979 -19.873   3.806  1.00  0.00     0.056 A 
HETATM   20  C   UNL     1      44.474 -21.172   4.050  1.00  0.00     0.017 A 
HETATM   21  C   UNL     1      44.621 -21.661   5.346  1.00  0.00     0.001 A 
HETATM   22  C   UNL     1      44.267 -20.862   6.425  1.00  0.00     0.001 A 
HETATM   23  C   UNL     1      43.774 -19.576   6.209  1.00  0.00     0.010 A 
BRANCH  19  24
HETATM   24  C   UNL     1      43.821 -19.427   2.364  1.00  0.00     0.418 C 
HETATM   25  F   UNL     1      44.510 -18.289   2.067  1.00  0.00    -0.166 F 
HETATM   26  F   UNL     1      44.279 -20.354   1.469  1.00  0.00    -0.166 F 
HETATM   27  F   UNL     1      42.527 -19.197   2.004  1.00  0.00    -0.166 F 
ENDBRANCH  19  24
ENDBRANCH  16  18
ENDBRANCH   1  16
TORSDOF 6
ENDMDL
