MODEL 1
REMARK VINA RESULT:      -6.0      0.000      0.000
REMARK  2 active torsions:
REMARK  status: ('A' for Active; 'I' for Inactive)
REMARK    1  A    between atoms: S_2  and  C_3 
REMARK    2  A    between atoms: C_7  and  N_8 
ROOT
HETATM    1  C   UNL     1      43.322 -17.540   5.269  1.00  0.00     0.060 A 
HETATM    2  C   UNL     1      43.503 -16.175   5.059  1.00  0.00     0.044 A 
HETATM    3  C   UNL     1      42.885 -15.565   3.964  1.00  0.00     0.033 A 
HETATM    4 BR   UNL     1      43.225 -13.709   3.697  1.00  0.00    -0.049 Br
HETATM    5  C   UNL     1      42.067 -16.300   3.070  1.00  0.00     0.028 A 
HETATM    6  C   UNL     1      41.904 -17.673   3.318  1.00  0.00     0.026 A 
HETATM    7  C   UNL     1      42.521 -18.293   4.410  1.00  0.00     0.025 A 
ENDROOT
BRANCH   5   8
HETATM    8  N   UNL     1      41.415 -15.657   2.000  1.00  0.00    -0.279 NA
HETATM    9  C   UNL     1      41.857 -16.004   0.637  1.00  0.00     0.123 C 
HETATM   10  C   UNL     1      41.278 -14.980  -0.363  1.00  0.00     0.247 C 
HETATM   11  N   UNL     1      39.773 -14.899  -0.222  1.00  0.00    -0.073 N 
HETATM   12  H   UNL     1      39.352 -15.787  -0.527  1.00  0.00     0.277 HD
HETATM   13  H   UNL     1      39.412 -14.170  -0.848  1.00  0.00     0.277 HD
HETATM   14  C   UNL     1      39.336 -14.599   1.196  1.00  0.00     0.247 C 
HETATM   15  C   UNL     1      39.945 -15.621   2.176  1.00  0.00     0.123 C 
ENDBRANCH   5   8
BRANCH   1  16
HETATM   16  S   UNL     1      44.051 -18.305   6.701  1.00  0.00     0.171 S 
HETATM   17  C   UNL     1      43.330 -17.423   8.060  1.00  0.00     0.167 C 
HETATM   18  O   UNL     1      45.470 -18.008   6.667  1.00  0.00    -0.223 OA
HETATM   19  O   UNL     1      43.573 -19.673   6.729  1.00  0.00    -0.223 OA
ENDBRANCH   1  16
TORSDOF 2
ENDMDL
MODEL 2
REMARK VINA RESULT:      -5.9      2.036      2.584
REMARK  2 active torsions:
REMARK  status: ('A' for Active; 'I' for Inactive)
REMARK    1  A    between atoms: S_2  and  C_3 
REMARK    2  A    between atoms: C_7  and  N_8 
ROOT
HETATM    1  C   UNL     1      43.905 -19.415   3.641  1.00  0.00     0.060 A 
HETATM    2  C   UNL     1      43.716 -18.197   4.290  1.00  0.00     0.044 A 
HETATM    3  C   UNL     1      42.963 -17.199   3.665  1.00  0.00     0.033 A 
HETATM    4 BR   UNL     1      42.797 -15.535   4.578  1.00  0.00    -0.049 Br
HETATM    5  C   UNL     1      42.375 -17.403   2.393  1.00  0.00     0.028 A 
HETATM    6  C   UNL     1      42.582 -18.646   1.772  1.00  0.00     0.026 A 
HETATM    7  C   UNL     1      43.337 -19.649   2.388  1.00  0.00     0.025 A 
ENDROOT
BRANCH   5   8
HETATM    8  N   UNL     1      41.580 -16.402   1.800  1.00  0.00    -0.279 NA
HETATM    9  C   UNL     1      41.848 -16.080   0.386  1.00  0.00     0.123 C 
HETATM   10  C   UNL     1      41.130 -14.764   0.019  1.00  0.00     0.247 C 
HETATM   11  N   UNL     1      39.654 -14.860   0.344  1.00  0.00    -0.073 N 
HETATM   12  H   UNL     1      39.211 -15.550  -0.277  1.00  0.00     0.277 HD
HETATM   13  H   UNL     1      39.204 -13.957   0.153  1.00  0.00     0.277 HD
HETATM   14  C   UNL     1      39.399 -15.248   1.785  1.00  0.00     0.247 C 
HETATM   15  C   UNL     1      40.146 -16.552   2.133  1.00  0.00     0.123 C 
ENDBRANCH   5   8
BRANCH   1  16
HETATM   16  S   UNL     1      44.803 -20.711   4.465  1.00  0.00     0.171 S 
HETATM   17  C   UNL     1      44.498 -22.138   3.458  1.00  0.00     0.167 C 
HETATM   18  O   UNL     1      44.168 -20.919   5.752  1.00  0.00    -0.223 OA
HETATM   19  O   UNL     1      46.208 -20.367   4.370  1.00  0.00    -0.223 OA
ENDBRANCH   1  16
TORSDOF 2
ENDMDL
MODEL 3
REMARK VINA RESULT:      -5.7      3.816      4.504
REMARK  2 active torsions:
REMARK  status: ('A' for Active; 'I' for Inactive)
REMARK    1  A    between atoms: S_2  and  C_3 
REMARK    2  A    between atoms: C_7  and  N_8 
ROOT
HETATM    1  C   UNL     1      43.888 -19.913   3.047  1.00  0.00     0.060 A 
HETATM    2  C   UNL     1      44.411 -19.530   4.280  1.00  0.00     0.044 A 
HETATM    3  C   UNL     1      44.018 -18.311   4.840  1.00  0.00     0.033 A 
HETATM    4 BR   UNL     1      44.819 -17.816   6.497  1.00  0.00    -0.049 Br
HETATM    5  C   UNL     1      43.088 -17.463   4.189  1.00  0.00     0.028 A 
HETATM    6  C   UNL     1      42.578 -17.886   2.950  1.00  0.00     0.026 A 
HETATM    7  C   UNL     1      42.969 -19.103   2.381  1.00  0.00     0.025 A 
ENDROOT
BRANCH   5   8
HETATM    8  N   UNL     1      42.668 -16.261   4.791  1.00  0.00    -0.279 NA
HETATM    9  C   UNL     1      43.331 -15.020   4.350  1.00  0.00     0.123 C 
HETATM   10  C   UNL     1      42.988 -13.882   5.335  1.00  0.00     0.247 C 
HETATM   11  N   UNL     1      41.487 -13.743   5.478  1.00  0.00    -0.073 N 
HETATM   12  H   UNL     1      41.087 -13.412   4.590  1.00  0.00     0.277 HD
HETATM   13  H   UNL     1      41.278 -13.025   6.183  1.00  0.00     0.277 HD
HETATM   14  C   UNL     1      40.817 -15.041   5.876  1.00  0.00     0.247 C 
HETATM   15  C   UNL     1      41.194 -16.166   4.891  1.00  0.00     0.123 C 
ENDBRANCH   5   8
BRANCH   1  16
HETATM   16  S   UNL     1      44.334 -21.496   2.367  1.00  0.00     0.171 S 
HETATM   17  C   UNL     1      44.551 -22.521   3.796  1.00  0.00     0.167 C 
HETATM   18  O   UNL     1      45.623 -21.335   1.722  1.00  0.00    -0.223 OA
HETATM   19  O   UNL     1      43.181 -21.968   1.626  1.00  0.00    -0.223 OA
ENDBRANCH   1  16
TORSDOF 2
ENDMDL
MODEL 4
REMARK VINA RESULT:      -5.7      3.543      4.503
REMARK  2 active torsions:
REMARK  status: ('A' for Active; 'I' for Inactive)
REMARK    1  A    between atoms: S_2  and  C_3 
REMARK    2  A    between atoms: C_7  and  N_8 
ROOT
HETATM    1  C   UNL     1      43.702 -19.659   3.293  1.00  0.00     0.060 A 
HETATM    2  C   UNL     1      42.844 -18.916   2.485  1.00  0.00     0.044 A 
HETATM    3  C   UNL     1      42.321 -17.713   2.969  1.00  0.00     0.033 A 
HETATM    4 BR   UNL     1      41.104 -16.778   1.840  1.00  0.00    -0.049 Br
HETATM    5  C   UNL     1      42.653 -17.227   4.257  1.00  0.00     0.028 A 
HETATM    6  C   UNL     1      43.526 -18.001   5.040  1.00  0.00     0.026 A 
HETATM    7  C   UNL     1      44.052 -19.207   4.565  1.00  0.00     0.025 A 
ENDROOT
BRANCH   5   8
HETATM    8  N   UNL     1      42.153 -15.990   4.709  1.00  0.00    -0.279 NA
HETATM    9  C   UNL     1      41.021 -16.026   5.653  1.00  0.00     0.123 C 
HETATM   10  C   UNL     1      40.409 -14.614   5.769  1.00  0.00     0.247 C 
HETATM   11  N   UNL     1      41.474 -13.607   6.147  1.00  0.00    -0.073 N 
HETATM   12  H   UNL     1      41.803 -13.798   7.102  1.00  0.00     0.277 HD
HETATM   13  H   UNL     1      41.063 -12.665   6.158  1.00  0.00     0.277 HD
HETATM   14  C   UNL     1      42.654 -13.624   5.199  1.00  0.00     0.247 C 
HETATM   15  C   UNL     1      43.233 -15.049   5.083  1.00  0.00     0.123 C 
ENDBRANCH   5   8
BRANCH   1  16
HETATM   16  S   UNL     1      44.424 -21.154   2.652  1.00  0.00     0.171 S 
HETATM   17  C   UNL     1      44.628 -22.171   4.090  1.00  0.00     0.167 C 
HETATM   18  O   UNL     1      45.740 -20.809   2.149  1.00  0.00    -0.223 OA
HETATM   19  O   UNL     1      43.429 -21.760   1.791  1.00  0.00    -0.223 OA
ENDBRANCH   1  16
TORSDOF 2
ENDMDL
MODEL 5
REMARK VINA RESULT:      -5.7      1.674      2.000
REMARK  2 active torsions:
REMARK  status: ('A' for Active; 'I' for Inactive)
REMARK    1  A    between atoms: S_2  and  C_3 
REMARK    2  A    between atoms: C_7  and  N_8 
ROOT
HETATM    1  C   UNL     1      43.453 -17.367   5.289  1.00  0.00     0.060 A 
HETATM    2  C   UNL     1      43.773 -17.734   3.983  1.00  0.00     0.044 A 
HETATM    3  C   UNL     1      43.257 -16.989   2.918  1.00  0.00     0.033 A 
HETATM    4 BR   UNL     1      43.680 -17.583   1.158  1.00  0.00    -0.049 Br
HETATM    5  C   UNL     1      42.428 -15.862   3.136  1.00  0.00     0.028 A 
HETATM    6  C   UNL     1      42.133 -15.518   4.467  1.00  0.00     0.026 A 
HETATM    7  C   UNL     1      42.642 -16.260   5.538  1.00  0.00     0.025 A 
ENDROOT
BRANCH   5   8
HETATM    8  N   UNL     1      41.957 -15.096   2.052  1.00  0.00    -0.279 NA
HETATM    9  C   UNL     1      40.613 -15.415   1.538  1.00  0.00     0.123 C 
HETATM   10  C   UNL     1      40.411 -14.721   0.173  1.00  0.00     0.247 C 
HETATM   11  N   UNL     1      40.671 -13.234   0.295  1.00  0.00    -0.073 N 
HETATM   12  H   UNL     1      39.945 -12.806   0.884  1.00  0.00     0.277 HD
HETATM   13  H   UNL     1      40.595 -12.799  -0.632  1.00  0.00     0.277 HD
HETATM   14  C   UNL     1      42.034 -12.927   0.879  1.00  0.00     0.247 C 
HETATM   15  C   UNL     1      42.218 -13.650   2.228  1.00  0.00     0.123 C 
ENDBRANCH   5   8
BRANCH   1  16
HETATM   16  S   UNL     1      44.165 -18.270   6.646  1.00  0.00     0.171 S 
HETATM   17  C   UNL     1      43.461 -17.498   8.079  1.00  0.00     0.167 C 
HETATM   18  O   UNL     1      45.590 -17.999   6.638  1.00  0.00    -0.223 OA
HETATM   19  O   UNL     1      43.660 -19.625   6.553  1.00  0.00    -0.223 OA
ENDBRANCH   1  16
TORSDOF 2
ENDMDL
MODEL 6
REMARK VINA RESULT:      -5.6      4.561      6.333
REMARK  2 active torsions:
REMARK  status: ('A' for Active; 'I' for Inactive)
REMARK    1  A    between atoms: S_2  and  C_3 
REMARK    2  A    between atoms: C_7  and  N_8 
ROOT
HETATM    1  C   UNL     1      41.081 -15.784   1.426  1.00  0.00     0.060 A 
HETATM    2  C   UNL     1      40.879 -16.104   2.767  1.00  0.00     0.044 A 
HETATM    3  C   UNL     1      41.598 -17.161   3.333  1.00  0.00     0.033 A 
HETATM    4 BR   UNL     1      41.227 -17.588   5.153  1.00  0.00    -0.049 Br
HETATM    5  C   UNL     1      42.538 -17.905   2.579  1.00  0.00     0.028 A 
HETATM    6  C   UNL     1      42.720 -17.548   1.232  1.00  0.00     0.026 A 
HETATM    7  C   UNL     1      42.002 -16.495   0.656  1.00  0.00     0.025 A 
ENDROOT
BRANCH   5   8
HETATM    8  N   UNL     1      43.288 -18.935   3.180  1.00  0.00    -0.279 NA
HETATM    9  C   UNL     1      43.877 -19.948   2.284  1.00  0.00     0.123 C 
HETATM   10  C   UNL     1      44.362 -21.149   3.124  1.00  0.00     0.247 C 
HETATM   11  N   UNL     1      45.308 -20.685   4.211  1.00  0.00    -0.073 N 
HETATM   12  H   UNL     1      46.175 -20.333   3.784  1.00  0.00     0.277 HD
HETATM   13  H   UNL     1      45.570 -21.486   4.798  1.00  0.00     0.277 HD
HETATM   14  C   UNL     1      44.706 -19.604   5.084  1.00  0.00     0.247 C 
HETATM   15  C   UNL     1      44.209 -18.427   4.221  1.00  0.00     0.123 C 
ENDBRANCH   5   8
BRANCH   1  16
HETATM   16  S   UNL     1      40.219 -14.396   0.723  1.00  0.00     0.171 S 
HETATM   17  C   UNL     1      38.561 -14.583   1.323  1.00  0.00     0.167 C 
HETATM   18  O   UNL     1      40.207 -14.586  -0.715  1.00  0.00    -0.223 OA
HETATM   19  O   UNL     1      40.796 -13.206   1.315  1.00  0.00    -0.223 OA
ENDBRANCH   1  16
TORSDOF 2
ENDMDL
MODEL 7
REMARK VINA RESULT:      -5.6      4.084      5.483
REMARK  2 active torsions:
REMARK  status: ('A' for Active; 'I' for Inactive)
REMARK    1  A    between atoms: S_2  and  C_3 
REMARK    2  A    between atoms: C_7  and  N_8 
ROOT
HETATM    1  C   UNL     1      43.298 -15.810   4.632  1.00  0.00     0.060 A 
HETATM    2  C   UNL     1      43.391 -16.828   5.578  1.00  0.00     0.044 A 
HETATM    3  C   UNL     1      43.509 -18.153   5.148  1.00  0.00     0.033 A 
HETATM    4 BR   UNL     1      43.567 -19.502   6.493  1.00  0.00    -0.049 Br
HETATM    5  C   UNL     1      43.550 -18.483   3.771  1.00  0.00     0.028 A 
HETATM    6  C   UNL     1      43.460 -17.430   2.846  1.00  0.00     0.026 A 
HETATM    7  C   UNL     1      43.338 -16.101   3.268  1.00  0.00     0.025 A 
ENDROOT
BRANCH   5   8
HETATM    8  N   UNL     1      43.717 -19.820   3.358  1.00  0.00    -0.279 NA
HETATM    9  C   UNL     1      43.470 -20.119   1.935  1.00  0.00     0.123 C 
HETATM   10  C   UNL     1      43.375 -21.648   1.746  1.00  0.00     0.247 C 
HETATM   11  N   UNL     1      44.612 -22.326   2.296  1.00  0.00    -0.073 N 
HETATM   12  H   UNL     1      45.427 -22.070   1.723  1.00  0.00     0.277 HD
HETATM   13  H   UNL     1      44.504 -23.344   2.220  1.00  0.00     0.277 HD
HETATM   14  C   UNL     1      44.881 -21.961   3.741  1.00  0.00     0.247 C 
HETATM   15  C   UNL     1      44.949 -20.429   3.907  1.00  0.00     0.123 C 
ENDBRANCH   5   8
BRANCH   1  16
HETATM   16  S   UNL     1      43.219 -14.119   5.177  1.00  0.00     0.171 S 
HETATM   17  C   UNL     1      44.404 -14.046   6.494  1.00  0.00     0.167 C 
HETATM   18  O   UNL     1      41.899 -13.914   5.741  1.00  0.00    -0.223 OA
HETATM   19  O   UNL     1      43.697 -13.306   4.076  1.00  0.00    -0.223 OA
ENDBRANCH   1  16
TORSDOF 2
ENDMDL
MODEL 8
REMARK VINA RESULT:      -5.4      1.878      2.500
REMARK  2 active torsions:
REMARK  status: ('A' for Active; 'I' for Inactive)
REMARK    1  A    between atoms: S_2  and  C_3 
REMARK    2  A    between atoms: C_7  and  N_8 
ROOT
HETATM    1  C   UNL     1      43.303 -18.297   4.951  1.00  0.00     0.060 A 
HETATM    2  C   UNL     1      43.533 -18.051   3.599  1.00  0.00     0.044 A 
HETATM    3  C   UNL     1      42.716 -17.141   2.921  1.00  0.00     0.033 A 
HETATM    4 BR   UNL     1      43.043 -16.899   1.060  1.00  0.00    -0.049 Br
HETATM    5  C   UNL     1      41.669 -16.453   3.581  1.00  0.00     0.028 A 
HETATM    6  C   UNL     1      41.471 -16.722   4.946  1.00  0.00     0.026 A 
HETATM    7  C   UNL     1      42.282 -17.633   5.631  1.00  0.00     0.025 A 
ENDROOT
BRANCH   5   8
HETATM    8  N   UNL     1      40.887 -15.504   2.893  1.00  0.00    -0.279 NA
HETATM    9  C   UNL     1      39.653 -15.990   2.249  1.00  0.00     0.123 C 
HETATM   10  C   UNL     1      39.121 -14.908   1.285  1.00  0.00     0.247 C 
HETATM   11  N   UNL     1      38.940 -13.594   2.016  1.00  0.00    -0.073 N 
HETATM   12  H   UNL     1      38.182 -13.687   2.705  1.00  0.00     0.277 HD
HETATM   13  H   UNL     1      38.647 -12.871   1.348  1.00  0.00     0.277 HD
HETATM   14  C   UNL     1      40.202 -13.140   2.719  1.00  0.00     0.247 C 
HETATM   15  C   UNL     1      40.725 -14.247   3.657  1.00  0.00     0.123 C 
ENDBRANCH   5   8
BRANCH   1  16
HETATM   16  S   UNL     1      44.385 -19.401   5.832  1.00  0.00     0.171 S 
HETATM   17  C   UNL     1      45.029 -20.458   4.563  1.00  0.00     0.167 C 
HETATM   18  O   UNL     1      43.554 -20.200   6.711  1.00  0.00    -0.223 OA
HETATM   19  O   UNL     1      45.467 -18.592   6.356  1.00  0.00    -0.223 OA
ENDBRANCH   1  16
TORSDOF 2
ENDMDL
MODEL 9
REMARK VINA RESULT:      -5.4      4.462      6.403
REMARK  2 active torsions:
REMARK  status: ('A' for Active; 'I' for Inactive)
REMARK    1  A    between atoms: S_2  and  C_3 
REMARK    2  A    between atoms: C_7  and  N_8 
ROOT
HETATM    1  C   UNL     1      41.377 -15.466   0.755  1.00  0.00     0.060 A 
HETATM    2  C   UNL     1      42.094 -14.660   1.635  1.00  0.00     0.044 A 
HETATM    3  C   UNL     1      42.579 -15.210   2.826  1.00  0.00     0.033 A 
HETATM    4 BR   UNL     1      43.496 -14.037   4.015  1.00  0.00    -0.049 Br
HETATM    5  C   UNL     1      42.370 -16.572   3.151  1.00  0.00     0.028 A 
HETATM    6  C   UNL     1      41.647 -17.356   2.236  1.00  0.00     0.026 A 
HETATM    7  C   UNL     1      41.155 -16.813   1.044  1.00  0.00     0.025 A 
ENDROOT
BRANCH   5   8
HETATM    8  N   UNL     1      42.907 -17.120   4.332  1.00  0.00    -0.279 NA
HETATM    9  C   UNL     1      41.977 -17.333   5.457  1.00  0.00     0.123 C 
HETATM   10  C   UNL     1      42.788 -17.614   6.741  1.00  0.00     0.247 C 
HETATM   11  N   UNL     1      43.740 -18.771   6.521  1.00  0.00    -0.073 N 
HETATM   12  H   UNL     1      43.203 -19.637   6.389  1.00  0.00     0.277 HD
HETATM   13  H   UNL     1      44.315 -18.902   7.362  1.00  0.00     0.277 HD
HETATM   14  C   UNL     1      44.647 -18.558   5.327  1.00  0.00     0.247 C 
HETATM   15  C   UNL     1      43.815 -18.257   4.064  1.00  0.00     0.123 C 
ENDBRANCH   5   8
BRANCH   1  16
HETATM   16  S   UNL     1      40.820 -14.787  -0.792  1.00  0.00     0.171 S 
HETATM   17  C   UNL     1      41.930 -13.434  -1.080  1.00  0.00     0.167 C 
HETATM   18  O   UNL     1      39.493 -14.246  -0.567  1.00  0.00    -0.223 OA
HETATM   19  O   UNL     1      41.054 -15.802  -1.799  1.00  0.00    -0.223 OA
ENDBRANCH   1  16
TORSDOF 2
ENDMDL
MODEL 10
REMARK VINA RESULT:      -5.2      4.564      6.502
REMARK  2 active torsions:
REMARK  status: ('A' for Active; 'I' for Inactive)
REMARK    1  A    between atoms: S_2  and  C_3 
REMARK    2  A    between atoms: C_7  and  N_8 
ROOT
HETATM    1  C   UNL     1      41.556 -14.993   1.073  1.00  0.00     0.060 A 
HETATM    2  C   UNL     1      42.141 -16.231   1.327  1.00  0.00     0.044 A 
HETATM    3  C   UNL     1      42.605 -16.516   2.615  1.00  0.00     0.033 A 
HETATM    4 BR   UNL     1      43.452 -18.202   2.880  1.00  0.00    -0.049 Br
HETATM    5  C   UNL     1      42.481 -15.580   3.671  1.00  0.00     0.028 A 
HETATM    6  C   UNL     1      41.880 -14.345   3.378  1.00  0.00     0.026 A 
HETATM    7  C   UNL     1      41.416 -14.049   2.091  1.00  0.00     0.025 A 
ENDROOT
BRANCH   5   8
HETATM    8  N   UNL     1      42.911 -15.904   4.972  1.00  0.00    -0.279 NA
HETATM    9  C   UNL     1      43.660 -14.871   5.710  1.00  0.00     0.123 C 
HETATM   10  C   UNL     1      44.322 -15.509   6.950  1.00  0.00     0.247 C 
HETATM   11  N   UNL     1      43.285 -16.216   7.796  1.00  0.00    -0.073 N 
HETATM   12  H   UNL     1      42.644 -15.524   8.203  1.00  0.00     0.277 HD
HETATM   13  H   UNL     1      43.750 -16.688   8.581  1.00  0.00     0.277 HD
HETATM   14  C   UNL     1      42.486 -17.233   7.008  1.00  0.00     0.247 C 
HETATM   15  C   UNL     1      41.855 -16.577   5.763  1.00  0.00     0.123 C 
ENDBRANCH   5   8
BRANCH   1  16
HETATM   16  S   UNL     1      40.903 -14.654  -0.547  1.00  0.00     0.171 S 
HETATM   17  C   UNL     1      41.929 -13.339  -1.147  1.00  0.00     0.167 C 
HETATM   18  O   UNL     1      39.560 -14.137  -0.365  1.00  0.00    -0.223 OA
HETATM   19  O   UNL     1      41.147 -15.837  -1.348  1.00  0.00    -0.223 OA
ENDBRANCH   1  16
TORSDOF 2
ENDMDL
