MODEL 1
REMARK VINA RESULT:      -8.6      0.000      0.000
REMARK  3 active torsions:
REMARK  status: ('A' for Active; 'I' for Inactive)
REMARK    1  A    between atoms: C_7  and  C_8 
REMARK       I    between atoms: C_8  and  N_9 
REMARK    2  A    between atoms: N_9  and  C_10 
REMARK    3  A    between atoms: C_11  and  O_12 
ROOT
HETATM    1  C   UNL     1      42.977 -15.433   2.675  1.00  0.00     0.252 C 
HETATM    2  N   UNL     1      41.938 -15.131   1.825  1.00  0.00    -0.346 N 
HETATM    3  O   UNL     1      43.569 -14.574   3.321  1.00  0.00    -0.268 OA
HETATM    4  H   UNL     1      41.576 -15.821   1.185  1.00  0.00     0.163 HD
ENDROOT
BRANCH   1   5
HETATM    5  C   UNL     1      43.376 -16.868   2.788  1.00  0.00     0.033 A 
HETATM    6  C   UNL     1      43.615 -17.574   1.603  1.00  0.00     0.019 A 
HETATM    7  C   UNL     1      44.036 -18.908   1.620  1.00  0.00     0.031 A 
HETATM    8  C   UNL     1      44.213 -19.512   2.868  1.00  0.00     0.043 A 
HETATM    9  C   UNL     1      43.986 -18.848   4.072  1.00  0.00    -0.001 A 
HETATM   10  N   UNL     1      44.630 -20.785   3.180  1.00  0.00    -0.359 N 
HETATM   11  C   UNL     1      44.268 -19.773   5.131  1.00  0.00    -0.027 A 
HETATM   12  C   UNL     1      43.566 -17.500   4.029  1.00  0.00     0.031 A 
HETATM   13  C   UNL     1      44.154 -19.520   6.594  1.00  0.00     0.051 C 
HETATM   14  C   UNL     1      44.672 -20.959   4.540  1.00  0.00     0.012 A 
HETATM   15  C   UNL     1      45.104 -22.243   5.148  1.00  0.00     0.068 C 
HETATM   16  H   UNL     1      44.878 -21.485   2.495  1.00  0.00     0.166 HD
ENDBRANCH   1   5
BRANCH   2  17
HETATM   17  C   UNL     1      41.450 -13.772   1.691  1.00  0.00     0.147 C 
HETATM   18  C   UNL     1      42.247 -12.921   0.658  1.00  0.00     0.149 C 
HETATM   19  C   UNL     1      41.541 -13.098  -0.702  1.00  0.00     0.073 C 
HETATM   20  C   UNL     1      40.132 -13.396  -0.278  1.00  0.00    -0.047 A 
HETATM   21  C   UNL     1      40.080 -13.780   1.067  1.00  0.00    -0.027 A 
HETATM   22  C   UNL     1      38.987 -13.371  -1.055  1.00  0.00     0.008 A 
HETATM   23  C   UNL     1      38.881 -14.143   1.662  1.00  0.00     0.010 A 
HETATM   24  C   UNL     1      37.721 -14.109   0.888  1.00  0.00     0.001 A 
HETATM   25  C   UNL     1      37.773 -13.726  -0.461  1.00  0.00     0.001 A 
BRANCH  18  26
HETATM   26  O   UNL     1      42.236 -11.527   1.014  1.00  0.00    -0.393 OA
HETATM   27  H   UNL     1      42.456 -11.017   0.214  1.00  0.00     0.210 HD
ENDBRANCH  18  26
ENDBRANCH   2  17
TORSDOF 3
ENDMDL
MODEL 2
REMARK VINA RESULT:      -8.2      1.947      3.135
REMARK  3 active torsions:
REMARK  status: ('A' for Active; 'I' for Inactive)
REMARK    1  A    between atoms: C_7  and  C_8 
REMARK       I    between atoms: C_8  and  N_9 
REMARK    2  A    between atoms: N_9  and  C_10 
REMARK    3  A    between atoms: C_11  and  O_12 
ROOT
HETATM    1  C   UNL     1      41.676 -16.526   1.070  1.00  0.00     0.252 C 
HETATM    2  N   UNL     1      40.741 -15.646   1.566  1.00  0.00    -0.346 N 
HETATM    3  O   UNL     1      41.877 -16.665  -0.131  1.00  0.00    -0.268 OA
HETATM    4  H   UNL     1      40.477 -15.666   2.539  1.00  0.00     0.163 HD
ENDROOT
BRANCH   1   5
HETATM    5  C   UNL     1      42.455 -17.329   2.061  1.00  0.00     0.033 A 
HETATM    6  C   UNL     1      42.760 -16.732   3.289  1.00  0.00     0.019 A 
HETATM    7  C   UNL     1      43.447 -17.429   4.290  1.00  0.00     0.031 A 
HETATM    8  C   UNL     1      43.816 -18.750   4.018  1.00  0.00     0.043 A 
HETATM    9  C   UNL     1      43.534 -19.383   2.810  1.00  0.00    -0.001 A 
HETATM   10  N   UNL     1      44.472 -19.661   4.811  1.00  0.00    -0.359 N 
HETATM   11  C   UNL     1      44.057 -20.715   2.892  1.00  0.00    -0.027 A 
HETATM   12  C   UNL     1      42.835 -18.660   1.816  1.00  0.00     0.031 A 
HETATM   13  C   UNL     1      44.009 -21.763   1.835  1.00  0.00     0.051 C 
HETATM   14  C   UNL     1      44.623 -20.854   4.149  1.00  0.00     0.012 A 
HETATM   15  C   UNL     1      45.289 -22.019   4.786  1.00  0.00     0.068 C 
HETATM   16  H   UNL     1      44.786 -19.474   5.752  1.00  0.00     0.166 HD
ENDBRANCH   1   5
BRANCH   2  17
HETATM   17  C   UNL     1      39.975 -14.790   0.680  1.00  0.00     0.147 C 
HETATM   18  C   UNL     1      38.560 -14.432   1.226  1.00  0.00     0.149 C 
HETATM   19  C   UNL     1      38.714 -13.128   2.034  1.00  0.00     0.073 C 
HETATM   20  C   UNL     1      39.899 -12.493   1.369  1.00  0.00    -0.047 A 
HETATM   21  C   UNL     1      40.613 -13.429   0.610  1.00  0.00    -0.027 A 
HETATM   22  C   UNL     1      40.333 -11.183   1.474  1.00  0.00     0.008 A 
HETATM   23  C   UNL     1      41.773 -13.071  -0.060  1.00  0.00     0.010 A 
HETATM   24  C   UNL     1      42.210 -11.750   0.032  1.00  0.00     0.001 A 
HETATM   25  C   UNL     1      41.496 -10.812   0.793  1.00  0.00     0.001 A 
BRANCH  18  26
HETATM   26  O   UNL     1      37.630 -14.212   0.152  1.00  0.00    -0.393 OA
HETATM   27  H   UNL     1      37.119 -13.412   0.365  1.00  0.00     0.210 HD
ENDBRANCH  18  26
ENDBRANCH   2  17
TORSDOF 3
ENDMDL
MODEL 3
REMARK VINA RESULT:      -8.1      1.885      2.821
REMARK  3 active torsions:
REMARK  status: ('A' for Active; 'I' for Inactive)
REMARK    1  A    between atoms: C_7  and  C_8 
REMARK       I    between atoms: C_8  and  N_9 
REMARK    2  A    between atoms: N_9  and  C_10 
REMARK    3  A    between atoms: C_11  and  O_12 
ROOT
HETATM    1  C   UNL     1      41.139 -16.248   2.083  1.00  0.00     0.252 C 
HETATM    2  N   UNL     1      41.612 -15.057   1.581  1.00  0.00    -0.346 N 
HETATM    3  O   UNL     1      39.974 -16.605   1.942  1.00  0.00    -0.268 OA
HETATM    4  H   UNL     1      42.520 -14.709   1.847  1.00  0.00     0.163 HD
ENDROOT
BRANCH   1   5
HETATM    5  C   UNL     1      42.105 -17.111   2.827  1.00  0.00     0.033 A 
HETATM    6  C   UNL     1      42.590 -16.641   4.053  1.00  0.00     0.019 A 
HETATM    7  C   UNL     1      43.463 -17.406   4.835  1.00  0.00     0.031 A 
HETATM    8  C   UNL     1      43.833 -18.663   4.346  1.00  0.00     0.043 A 
HETATM    9  C   UNL     1      43.376 -19.170   3.132  1.00  0.00    -0.001 A 
HETATM   10  N   UNL     1      44.649 -19.619   4.903  1.00  0.00    -0.359 N 
HETATM   11  C   UNL     1      43.958 -20.469   2.963  1.00  0.00    -0.027 A 
HETATM   12  C   UNL     1      42.491 -18.381   2.362  1.00  0.00     0.031 A 
HETATM   13  C   UNL     1      43.773 -21.390   1.808  1.00  0.00     0.051 C 
HETATM   14  C   UNL     1      44.733 -20.717   4.084  1.00  0.00     0.012 A 
HETATM   15  C   UNL     1      45.543 -21.905   4.455  1.00  0.00     0.068 C 
HETATM   16  H   UNL     1      45.110 -19.522   5.797  1.00  0.00     0.166 HD
ENDBRANCH   1   5
BRANCH   2  17
HETATM   17  C   UNL     1      40.758 -14.181   0.803  1.00  0.00     0.147 C 
HETATM   18  C   UNL     1      41.049 -12.666   1.025  1.00  0.00     0.149 C 
HETATM   19  C   UNL     1      42.098 -12.257  -0.029  1.00  0.00     0.073 C 
HETATM   20  C   UNL     1      41.826 -13.241  -1.129  1.00  0.00    -0.047 A 
HETATM   21  C   UNL     1      41.076 -14.326  -0.661  1.00  0.00    -0.027 A 
HETATM   22  C   UNL     1      42.261 -13.189  -2.442  1.00  0.00     0.008 A 
HETATM   23  C   UNL     1      40.744 -15.381  -1.498  1.00  0.00     0.010 A 
HETATM   24  C   UNL     1      41.168 -15.330  -2.826  1.00  0.00     0.001 A 
HETATM   25  C   UNL     1      41.921 -14.243  -3.295  1.00  0.00     0.001 A 
BRANCH  18  26
HETATM   26  O   UNL     1      39.862 -11.876   0.838  1.00  0.00    -0.393 OA
HETATM   27  H   UNL     1      39.414 -12.204   0.038  1.00  0.00     0.210 HD
ENDBRANCH  18  26
ENDBRANCH   2  17
TORSDOF 3
ENDMDL
MODEL 4
REMARK VINA RESULT:      -8.1      2.766      8.398
REMARK  3 active torsions:
REMARK  status: ('A' for Active; 'I' for Inactive)
REMARK    1  A    between atoms: C_7  and  C_8 
REMARK       I    between atoms: C_8  and  N_9 
REMARK    2  A    between atoms: N_9  and  C_10 
REMARK    3  A    between atoms: C_11  and  O_12 
ROOT
HETATM    1  C   UNL     1      41.631 -14.300  -0.710  1.00  0.00     0.252 C 
HETATM    2  N   UNL     1      41.877 -15.337   0.160  1.00  0.00    -0.346 N 
HETATM    3  O   UNL     1      42.222 -13.228  -0.640  1.00  0.00    -0.268 OA
HETATM    4  H   UNL     1      41.270 -16.142   0.189  1.00  0.00     0.163 HD
ENDROOT
BRANCH   1   5
HETATM    5  C   UNL     1      40.596 -14.521  -1.765  1.00  0.00     0.033 A 
HETATM    6  C   UNL     1      40.715 -15.662  -2.567  1.00  0.00     0.019 A 
HETATM    7  C   UNL     1      39.765 -15.966  -3.548  1.00  0.00     0.031 A 
HETATM    8  C   UNL     1      38.686 -15.090  -3.696  1.00  0.00     0.043 A 
HETATM    9  C   UNL     1      38.528 -13.943  -2.921  1.00  0.00    -0.001 A 
HETATM   10  N   UNL     1      37.613 -15.150  -4.553  1.00  0.00    -0.359 N 
HETATM   11  C   UNL     1      37.322 -13.298  -3.349  1.00  0.00    -0.027 A 
HETATM   12  C   UNL     1      39.498 -13.658  -1.933  1.00  0.00     0.031 A 
HETATM   13  C   UNL     1      36.749 -12.029  -2.822  1.00  0.00     0.051 C 
HETATM   14  C   UNL     1      36.777 -14.079  -4.356  1.00  0.00     0.012 A 
HETATM   15  C   UNL     1      35.531 -13.908  -5.145  1.00  0.00     0.068 C 
HETATM   16  H   UNL     1      37.463 -15.890  -5.225  1.00  0.00     0.166 HD
ENDBRANCH   1   5
BRANCH   2  17
HETATM   17  C   UNL     1      42.900 -15.230   1.182  1.00  0.00     0.147 C 
HETATM   18  C   UNL     1      42.448 -14.422   2.436  1.00  0.00     0.149 C 
HETATM   19  C   UNL     1      41.845 -15.440   3.425  1.00  0.00     0.073 C 
HETATM   20  C   UNL     1      42.571 -16.698   3.051  1.00  0.00    -0.047 A 
HETATM   21  C   UNL     1      43.162 -16.583   1.787  1.00  0.00    -0.027 A 
HETATM   22  C   UNL     1      42.656 -17.877   3.771  1.00  0.00     0.008 A 
HETATM   23  C   UNL     1      43.850 -17.645   1.219  1.00  0.00     0.010 A 
HETATM   24  C   UNL     1      43.950 -18.832   1.944  1.00  0.00     0.001 A 
HETATM   25  C   UNL     1      43.358 -18.949   3.211  1.00  0.00     0.001 A 
BRANCH  18  26
HETATM   26  O   UNL     1      43.565 -13.766   3.061  1.00  0.00    -0.393 OA
HETATM   27  H   UNL     1      43.224 -12.979   3.522  1.00  0.00     0.210 HD
ENDBRANCH  18  26
ENDBRANCH   2  17
TORSDOF 3
ENDMDL
MODEL 5
REMARK VINA RESULT:      -8.0      2.339      8.258
REMARK  3 active torsions:
REMARK  status: ('A' for Active; 'I' for Inactive)
REMARK    1  A    between atoms: C_7  and  C_8 
REMARK       I    between atoms: C_8  and  N_9 
REMARK    2  A    between atoms: N_9  and  C_10 
REMARK    3  A    between atoms: C_11  and  O_12 
ROOT
HETATM    1  C   UNL     1      42.987 -16.396   4.126  1.00  0.00     0.252 C 
HETATM    2  N   UNL     1      43.250 -17.741   4.251  1.00  0.00    -0.346 N 
HETATM    3  O   UNL     1      43.690 -15.537   4.646  1.00  0.00    -0.268 OA
HETATM    4  H   UNL     1      42.574 -18.429   3.957  1.00  0.00     0.163 HD
ENDROOT
BRANCH   1   5
HETATM    5  C   UNL     1      41.788 -16.002   3.325  1.00  0.00     0.033 A 
HETATM    6  C   UNL     1      41.067 -17.019   2.688  1.00  0.00     0.019 A 
HETATM    7  C   UNL     1      39.908 -16.742   1.955  1.00  0.00     0.031 A 
HETATM    8  C   UNL     1      39.491 -15.410   1.885  1.00  0.00     0.043 A 
HETATM    9  C   UNL     1      40.179 -14.367   2.502  1.00  0.00    -0.001 A 
HETATM   10  N   UNL     1      38.397 -14.860   1.260  1.00  0.00    -0.359 N 
HETATM   11  C   UNL     1      39.466 -13.155   2.216  1.00  0.00    -0.027 A 
HETATM   12  C   UNL     1      41.345 -14.671   3.241  1.00  0.00     0.031 A 
HETATM   13  C   UNL     1      39.829 -11.779   2.652  1.00  0.00     0.051 C 
HETATM   14  C   UNL     1      38.364 -13.502   1.452  1.00  0.00     0.012 A 
HETATM   15  C   UNL     1      37.274 -12.663   0.892  1.00  0.00     0.068 C 
HETATM   16  H   UNL     1      37.712 -15.392   0.741  1.00  0.00     0.166 HD
ENDBRANCH   1   5
BRANCH   2  17
HETATM   17  C   UNL     1      44.420 -18.211   4.966  1.00  0.00     0.147 C 
HETATM   18  C   UNL     1      44.304 -18.069   6.514  1.00  0.00     0.149 C 
HETATM   19  C   UNL     1      43.697 -19.387   7.036  1.00  0.00     0.073 C 
HETATM   20  C   UNL     1      44.139 -20.364   5.987  1.00  0.00    -0.047 A 
HETATM   21  C   UNL     1      44.542 -19.704   4.820  1.00  0.00    -0.027 A 
HETATM   22  C   UNL     1      44.135 -21.747   6.057  1.00  0.00     0.008 A 
HETATM   23  C   UNL     1      44.951 -20.414   3.701  1.00  0.00     0.010 A 
HETATM   24  C   UNL     1      44.960 -21.807   3.768  1.00  0.00     0.001 A 
HETATM   25  C   UNL     1      44.556 -22.470   4.937  1.00  0.00     0.001 A 
BRANCH  18  26
HETATM   26  O   UNL     1      45.597 -17.877   7.115  1.00  0.00    -0.393 OA
HETATM   27  H   UNL     1      45.654 -18.469   7.886  1.00  0.00     0.210 HD
ENDBRANCH  18  26
ENDBRANCH   2  17
TORSDOF 3
ENDMDL
MODEL 6
REMARK VINA RESULT:      -8.0      1.314      2.127
REMARK  3 active torsions:
REMARK  status: ('A' for Active; 'I' for Inactive)
REMARK    1  A    between atoms: C_7  and  C_8 
REMARK       I    between atoms: C_8  and  N_9 
REMARK    2  A    between atoms: N_9  and  C_10 
REMARK    3  A    between atoms: C_11  and  O_12 
ROOT
HETATM    1  C   UNL     1      42.601 -14.236   3.931  1.00  0.00     0.252 C 
HETATM    2  N   UNL     1      41.934 -14.234   2.726  1.00  0.00    -0.346 N 
HETATM    3  O   UNL     1      42.739 -13.222   4.607  1.00  0.00    -0.268 OA
HETATM    4  H   UNL     1      41.974 -15.034   2.113  1.00  0.00     0.163 HD
ENDROOT
BRANCH   1   5
HETATM    5  C   UNL     1      43.169 -15.536   4.399  1.00  0.00     0.033 A 
HETATM    6  C   UNL     1      43.584 -15.624   5.733  1.00  0.00     0.019 A 
HETATM    7  C   UNL     1      44.085 -16.817   6.265  1.00  0.00     0.031 A 
HETATM    8  C   UNL     1      44.154 -17.924   5.413  1.00  0.00     0.043 A 
HETATM    9  C   UNL     1      43.754 -17.881   4.079  1.00  0.00    -0.001 A 
HETATM   10  N   UNL     1      44.581 -19.205   5.668  1.00  0.00    -0.359 N 
HETATM   11  C   UNL     1      43.967 -19.186   3.526  1.00  0.00    -0.027 A 
HETATM   12  C   UNL     1      43.247 -16.666   3.566  1.00  0.00     0.031 A 
HETATM   13  C   UNL     1      43.700 -19.620   2.127  1.00  0.00     0.051 C 
HETATM   14  C   UNL     1      44.472 -19.982   4.542  1.00  0.00     0.012 A 
HETATM   15  C   UNL     1      44.854 -21.417   4.545  1.00  0.00     0.068 C 
HETATM   16  H   UNL     1      44.917 -19.525   6.565  1.00  0.00     0.166 HD
ENDBRANCH   1   5
BRANCH   2  17
HETATM   17  C   UNL     1      41.307 -13.030   2.219  1.00  0.00     0.147 C 
HETATM   18  C   UNL     1      42.160 -12.285   1.148  1.00  0.00     0.149 C 
HETATM   19  C   UNL     1      41.737 -12.847  -0.224  1.00  0.00     0.073 C 
HETATM   20  C   UNL     1      40.326 -13.281   0.044  1.00  0.00    -0.047 A 
HETATM   21  C   UNL     1      40.084 -13.388   1.419  1.00  0.00    -0.027 A 
HETATM   22  C   UNL     1      39.345 -13.602  -0.878  1.00  0.00     0.008 A 
HETATM   23  C   UNL     1      38.855 -13.817   1.898  1.00  0.00     0.010 A 
HETATM   24  C   UNL     1      37.858 -14.131   0.975  1.00  0.00     0.001 A 
HETATM   25  C   UNL     1      38.100 -14.025  -0.403  1.00  0.00     0.001 A 
BRANCH  18  26
HETATM   26  O   UNL     1      41.906 -10.870   1.174  1.00  0.00    -0.393 OA
HETATM   27  H   UNL     1      42.752 -10.416   1.015  1.00  0.00     0.210 HD
ENDBRANCH  18  26
ENDBRANCH   2  17
TORSDOF 3
ENDMDL
MODEL 7
REMARK VINA RESULT:      -8.0      2.607      8.136
REMARK  3 active torsions:
REMARK  status: ('A' for Active; 'I' for Inactive)
REMARK    1  A    between atoms: C_7  and  C_8 
REMARK       I    between atoms: C_8  and  N_9 
REMARK    2  A    between atoms: N_9  and  C_10 
REMARK    3  A    between atoms: C_11  and  O_12 
ROOT
HETATM    1  C   UNL     1      41.386 -16.631   1.637  1.00  0.00     0.252 C 
HETATM    2  N   UNL     1      42.506 -17.413   1.803  1.00  0.00    -0.346 N 
HETATM    3  O   UNL     1      40.263 -17.019   1.941  1.00  0.00    -0.268 OA
HETATM    4  H   UNL     1      43.389 -17.143   1.398  1.00  0.00     0.163 HD
ENDROOT
BRANCH   1   5
HETATM    5  C   UNL     1      41.580 -15.268   1.059  1.00  0.00     0.033 A 
HETATM    6  C   UNL     1      41.882 -14.222   1.940  1.00  0.00     0.019 A 
HETATM    7  C   UNL     1      42.123 -12.924   1.478  1.00  0.00     0.031 A 
HETATM    8  C   UNL     1      42.055 -12.708   0.098  1.00  0.00     0.043 A 
HETATM    9  C   UNL     1      41.757 -13.718  -0.814  1.00  0.00    -0.001 A 
HETATM   10  N   UNL     1      42.261 -11.556  -0.624  1.00  0.00    -0.359 N 
HETATM   11  C   UNL     1      41.776 -13.132  -2.123  1.00  0.00    -0.027 A 
HETATM   12  C   UNL     1      41.522 -15.022  -0.324  1.00  0.00     0.031 A 
HETATM   13  C   UNL     1      41.503 -13.819  -3.415  1.00  0.00     0.051 C 
HETATM   14  C   UNL     1      42.101 -11.794  -1.966  1.00  0.00     0.012 A 
HETATM   15  C   UNL     1      42.281 -10.719  -2.975  1.00  0.00     0.068 C 
HETATM   16  H   UNL     1      42.506 -10.665  -0.215  1.00  0.00     0.166 HD
ENDBRANCH   1   5
BRANCH   2  17
HETATM   17  C   UNL     1      42.418 -18.730   2.403  1.00  0.00     0.147 C 
HETATM   18  C   UNL     1      43.427 -19.757   1.807  1.00  0.00     0.149 C 
HETATM   19  C   UNL     1      44.707 -19.669   2.663  1.00  0.00     0.073 C 
HETATM   20  C   UNL     1      44.163 -19.202   3.981  1.00  0.00    -0.047 A 
HETATM   21  C   UNL     1      42.876 -18.670   3.836  1.00  0.00    -0.027 A 
HETATM   22  C   UNL     1      44.794 -19.212   5.213  1.00  0.00     0.008 A 
HETATM   23  C   UNL     1      42.195 -18.138   4.920  1.00  0.00     0.010 A 
HETATM   24  C   UNL     1      42.820 -18.154   6.167  1.00  0.00     0.001 A 
HETATM   25  C   UNL     1      44.110 -18.687   6.313  1.00  0.00     0.001 A 
BRANCH  18  26
HETATM   26  O   UNL     1      42.907 -21.097   1.878  1.00  0.00    -0.393 OA
HETATM   27  H   UNL     1      42.209 -21.177   1.204  1.00  0.00     0.210 HD
ENDBRANCH  18  26
ENDBRANCH   2  17
TORSDOF 3
ENDMDL
MODEL 8
REMARK VINA RESULT:      -7.9      2.132      3.025
REMARK  3 active torsions:
REMARK  status: ('A' for Active; 'I' for Inactive)
REMARK    1  A    between atoms: C_7  and  C_8 
REMARK       I    between atoms: C_8  and  N_9 
REMARK    2  A    between atoms: N_9  and  C_10 
REMARK    3  A    between atoms: C_11  and  O_12 
ROOT
HETATM    1  C   UNL     1      43.227 -14.820   2.942  1.00  0.00     0.252 C 
HETATM    2  N   UNL     1      41.948 -14.427   2.620  1.00  0.00    -0.346 N 
HETATM    3  O   UNL     1      44.122 -14.016   3.182  1.00  0.00    -0.268 OA
HETATM    4  H   UNL     1      41.276 -15.093   2.270  1.00  0.00     0.163 HD
ENDROOT
BRANCH   1   5
HETATM    5  C   UNL     1      43.503 -16.287   2.989  1.00  0.00     0.033 A 
HETATM    6  C   UNL     1      43.639 -16.965   1.771  1.00  0.00     0.019 A 
HETATM    7  C   UNL     1      43.941 -18.330   1.725  1.00  0.00     0.031 A 
HETATM    8  C   UNL     1      44.108 -18.995   2.944  1.00  0.00     0.043 A 
HETATM    9  C   UNL     1      43.981 -18.362   4.178  1.00  0.00    -0.001 A 
HETATM   10  N   UNL     1      44.422 -20.310   3.193  1.00  0.00    -0.359 N 
HETATM   11  C   UNL     1      44.218 -19.347   5.192  1.00  0.00    -0.027 A 
HETATM   12  C   UNL     1      43.680 -16.981   4.199  1.00  0.00     0.031 A 
HETATM   13  C   UNL     1      44.177 -19.142   6.666  1.00  0.00     0.051 C 
HETATM   14  C   UNL     1      44.496 -20.540   4.544  1.00  0.00     0.012 A 
HETATM   15  C   UNL     1      44.835 -21.879   5.089  1.00  0.00     0.068 C 
HETATM   16  H   UNL     1      44.585 -21.002   2.475  1.00  0.00     0.166 HD
ENDBRANCH   1   5
BRANCH   2  17
HETATM   17  C   UNL     1      41.577 -13.026   2.602  1.00  0.00     0.147 C 
HETATM   18  C   UNL     1      40.352 -12.716   1.691  1.00  0.00     0.149 C 
HETATM   19  C   UNL     1      39.097 -12.832   2.581  1.00  0.00     0.073 C 
HETATM   20  C   UNL     1      39.653 -12.507   3.936  1.00  0.00    -0.047 A 
HETATM   21  C   UNL     1      41.048 -12.619   3.950  1.00  0.00    -0.027 A 
HETATM   22  C   UNL     1      38.953 -12.179   5.085  1.00  0.00     0.008 A 
HETATM   23  C   UNL     1      41.771 -12.404   5.114  1.00  0.00     0.010 A 
HETATM   24  C   UNL     1      41.075 -12.063   6.273  1.00  0.00     0.001 A 
HETATM   25  C   UNL     1      39.676 -11.951   6.260  1.00  0.00     0.001 A 
BRANCH  18  26
HETATM   26  O   UNL     1      40.426 -11.382   1.157  1.00  0.00    -0.393 OA
HETATM   27  H   UNL     1      41.231 -10.967   1.513  1.00  0.00     0.210 HD
ENDBRANCH  18  26
ENDBRANCH   2  17
TORSDOF 3
ENDMDL
MODEL 9
REMARK VINA RESULT:      -7.8      2.368      8.157
REMARK  3 active torsions:
REMARK  status: ('A' for Active; 'I' for Inactive)
REMARK    1  A    between atoms: C_7  and  C_8 
REMARK       I    between atoms: C_8  and  N_9 
REMARK    2  A    between atoms: N_9  and  C_10 
REMARK    3  A    between atoms: C_11  and  O_12 
ROOT
HETATM    1  C   UNL     1      42.088 -13.786   3.473  1.00  0.00     0.252 C 
HETATM    2  N   UNL     1      42.015 -14.981   4.152  1.00  0.00    -0.346 N 
HETATM    3  O   UNL     1      43.155 -13.293   3.123  1.00  0.00    -0.268 OA
HETATM    4  H   UNL     1      41.150 -15.285   4.571  1.00  0.00     0.163 HD
ENDROOT
BRANCH   1   5
HETATM    5  C   UNL     1      40.802 -13.089   3.170  1.00  0.00     0.033 A 
HETATM    6  C   UNL     1      40.413 -12.043   4.015  1.00  0.00     0.019 A 
HETATM    7  C   UNL     1      39.246 -11.308   3.778  1.00  0.00     0.031 A 
HETATM    8  C   UNL     1      38.481 -11.656   2.660  1.00  0.00     0.043 A 
HETATM    9  C   UNL     1      38.830 -12.690   1.794  1.00  0.00    -0.001 A 
HETATM   10  N   UNL     1      37.317 -11.103   2.183  1.00  0.00    -0.359 N 
HETATM   11  C   UNL     1      37.822 -12.755   0.776  1.00  0.00    -0.027 A 
HETATM   12  C   UNL     1      40.016 -13.415   2.052  1.00  0.00     0.031 A 
HETATM   13  C   UNL     1      37.759 -13.712  -0.362  1.00  0.00     0.051 C 
HETATM   14  C   UNL     1      36.906 -11.750   1.045  1.00  0.00     0.012 A 
HETATM   15  C   UNL     1      35.678 -11.342   0.316  1.00  0.00     0.068 C 
HETATM   16  H   UNL     1      36.841 -10.321   2.612  1.00  0.00     0.166 HD
ENDBRANCH   1   5
BRANCH   2  17
HETATM   17  C   UNL     1      43.208 -15.751   4.443  1.00  0.00     0.147 C 
HETATM   18  C   UNL     1      43.082 -16.643   5.715  1.00  0.00     0.149 C 
HETATM   19  C   UNL     1      42.551 -18.012   5.246  1.00  0.00     0.073 C 
HETATM   20  C   UNL     1      43.050 -18.066   3.832  1.00  0.00    -0.047 A 
HETATM   21  C   UNL     1      43.416 -16.793   3.377  1.00  0.00    -0.027 A 
HETATM   22  C   UNL     1      43.125 -19.168   2.998  1.00  0.00     0.008 A 
HETATM   23  C   UNL     1      43.867 -16.599   2.080  1.00  0.00     0.010 A 
HETATM   24  C   UNL     1      43.957 -17.707   1.238  1.00  0.00     0.001 A 
HETATM   25  C   UNL     1      43.589 -18.982   1.692  1.00  0.00     0.001 A 
BRANCH  18  26
HETATM   26  O   UNL     1      44.360 -16.827   6.349  1.00  0.00    -0.393 OA
HETATM   27  H   UNL     1      44.573 -17.777   6.311  1.00  0.00     0.210 HD
ENDBRANCH  18  26
ENDBRANCH   2  17
TORSDOF 3
ENDMDL
MODEL 10
REMARK VINA RESULT:      -7.8      1.639      2.110
REMARK  3 active torsions:
REMARK  status: ('A' for Active; 'I' for Inactive)
REMARK    1  A    between atoms: C_7  and  C_8 
REMARK       I    between atoms: C_8  and  N_9 
REMARK    2  A    between atoms: N_9  and  C_10 
REMARK    3  A    between atoms: C_11  and  O_12 
ROOT
HETATM    1  C   UNL     1      42.325 -14.725   1.326  1.00  0.00     0.252 C 
HETATM    2  N   UNL     1      42.145 -14.710  -0.038  1.00  0.00    -0.346 N 
HETATM    3  O   UNL     1      42.158 -13.729   2.023  1.00  0.00    -0.268 OA
HETATM    4  H   UNL     1      42.444 -15.487  -0.607  1.00  0.00     0.163 HD
ENDROOT
BRANCH   1   5
HETATM    5  C   UNL     1      42.742 -16.017   1.950  1.00  0.00     0.033 A 
HETATM    6  C   UNL     1      43.292 -16.997   1.114  1.00  0.00     0.019 A 
HETATM    7  C   UNL     1      43.749 -18.217   1.623  1.00  0.00     0.031 A 
HETATM    8  C   UNL     1      43.641 -18.422   3.002  1.00  0.00     0.043 A 
HETATM    9  C   UNL     1      43.100 -17.476   3.870  1.00  0.00    -0.001 A 
HETATM   10  N   UNL     1      44.020 -19.502   3.764  1.00  0.00    -0.359 N 
HETATM   11  C   UNL     1      43.151 -18.028   5.192  1.00  0.00    -0.027 A 
HETATM   12  C   UNL     1      42.649 -16.249   3.333  1.00  0.00     0.031 A 
HETATM   13  C   UNL     1      42.673 -17.389   6.448  1.00  0.00     0.051 C 
HETATM   14  C   UNL     1      43.736 -19.280   5.088  1.00  0.00     0.012 A 
HETATM   15  C   UNL     1      44.058 -20.286   6.133  1.00  0.00     0.068 C 
HETATM   16  H   UNL     1      44.456 -20.334   3.393  1.00  0.00     0.166 HD
ENDBRANCH   1   5
BRANCH   2  17
HETATM   17  C   UNL     1      41.692 -13.514  -0.721  1.00  0.00     0.147 C 
HETATM   18  C   UNL     1      42.466 -13.216  -2.039  1.00  0.00     0.149 C 
HETATM   19  C   UNL     1      41.695 -13.918  -3.175  1.00  0.00     0.073 C 
HETATM   20  C   UNL     1      40.299 -13.946  -2.626  1.00  0.00    -0.047 A 
HETATM   21  C   UNL     1      40.296 -13.723  -1.244  1.00  0.00    -0.027 A 
HETATM   22  C   UNL     1      39.122 -14.199  -3.309  1.00  0.00     0.008 A 
HETATM   23  C   UNL     1      39.115 -13.747  -0.518  1.00  0.00     0.010 A 
HETATM   24  C   UNL     1      37.923 -13.990  -1.200  1.00  0.00     0.001 A 
HETATM   25  C   UNL     1      37.926 -14.215  -2.585  1.00  0.00     0.001 A 
BRANCH  18  26
HETATM   26  O   UNL     1      42.511 -11.803  -2.307  1.00  0.00    -0.393 OA
HETATM   27  H   UNL     1      41.810 -11.603  -2.952  1.00  0.00     0.210 HD
ENDBRANCH  18  26
ENDBRANCH   2  17
TORSDOF 3
ENDMDL
