MODEL 1
REMARK VINA RESULT:      -8.6      0.000      0.000
REMARK  7 active torsions:
REMARK  status: ('A' for Active; 'I' for Inactive)
REMARK    1  A    between atoms: C_3  and  C_4 
REMARK    2  A    between atoms: C_4  and  N_5 
REMARK    3  A    between atoms: C_4  and  C_9 
REMARK       I    between atoms: N_5  and  C_6 
REMARK       I    between atoms: C_6  and  N_7 
REMARK    4  A    between atoms: C_9  and  C_10 
REMARK       I    between atoms: C_10  and  N_11 
REMARK    5  A    between atoms: N_11  and  C_12 
REMARK    6  A    between atoms: C_12  and  C_13 
REMARK    7  A    between atoms: C_13  and  N_14 
ROOT
HETATM    1  C   UNL     1      43.952 -17.350   1.675  1.00  0.00     0.132 C 
ENDROOT
BRANCH   1   2
HETATM    2  C   UNL     1      43.668 -18.000   3.042  1.00  0.00     0.128 C 
BRANCH   2   3
HETATM    3  C   UNL     1      43.958 -19.500   3.006  1.00  0.00    -0.029 A 
HETATM    4  C   UNL     1      44.571 -20.170   4.089  1.00  0.00    -0.054 A 
HETATM    5  C   UNL     1      44.987 -19.456   5.348  1.00  0.00     0.049 C 
HETATM    6  C   UNL     1      44.812 -21.552   3.997  1.00  0.00     0.007 A 
HETATM    7  C   UNL     1      44.443 -22.273   2.864  1.00  0.00     0.001 A 
HETATM    8  C   UNL     1      43.820 -21.626   1.805  1.00  0.00     0.001 A 
HETATM    9  C   UNL     1      43.575 -20.255   1.877  1.00  0.00     0.010 A 
ENDBRANCH   2   3
BRANCH   2  10
HETATM   10  N   UNL     1      42.282 -17.807   3.462  1.00  0.00    -0.334 N 
HETATM   11  C   UNL     1      41.917 -17.343   4.685  1.00  0.00     0.314 C 
HETATM   12  N   UNL     1      40.573 -17.306   4.850  1.00  0.00    -0.352 N 
HETATM   13  O   UNL     1      42.682 -16.939   5.552  1.00  0.00    -0.248 OA
HETATM   14  H   UNL     1      39.997 -17.979   4.363  1.00  0.00     0.160 HD
HETATM   15  H   UNL     1      40.248 -17.062   5.776  1.00  0.00     0.160 HD
HETATM   16  H   UNL     1      41.559 -18.177   2.862  1.00  0.00     0.165 HD
ENDBRANCH   2  10
ENDBRANCH   1   2
BRANCH   1  17
HETATM   17  C   UNL     1      42.876 -16.358   1.304  1.00  0.00     0.219 C 
HETATM   18  N   UNL     1      42.158 -16.664   0.174  1.00  0.00    -0.359 N 
HETATM   19  H   UNL     1      42.413 -17.496  -0.350  1.00  0.00     0.162 HD
HETATM   20  O   UNL     1      42.638 -15.344   1.958  1.00  0.00    -0.274 OA
BRANCH  18  21
HETATM   21  C   UNL     1      41.122 -15.801  -0.375  1.00  0.00     0.150 C 
BRANCH  21  22
HETATM   22  C   UNL     1      41.310 -15.420  -1.861  1.00  0.00     0.254 C 
BRANCH  22  23
HETATM   23  N   UNL     1      41.895 -14.046  -2.057  1.00  0.00    -0.065 N 
HETATM   24  H   UNL     1      42.928 -14.176  -2.102  1.00  0.00     0.280 HD
HETATM   25  C   UNL     1      41.541 -13.398  -3.381  1.00  0.00     0.274 C 
HETATM   26  C   UNL     1      42.007 -11.982  -3.458  1.00  0.00    -0.019 A 
HETATM   27  C   UNL     1      42.433 -11.284  -2.344  1.00  0.00    -0.008 A 
HETATM   28  C   UNL     1      42.070 -11.164  -4.629  1.00  0.00     0.017 A 
HETATM   29  S   UNL     1      42.898  -9.689  -2.692  1.00  0.00    -0.106 SA
HETATM   30  C   UNL     1      42.515 -11.861  -0.967  1.00  0.00     0.074 C 
HETATM   31  C   UNL     1      42.537  -9.895  -4.353  1.00  0.00     0.051 A 
HETATM   32  C   UNL     1      41.640 -13.122  -0.878  1.00  0.00     0.240 C 
ENDBRANCH  22  23
ENDBRANCH  21  22
ENDBRANCH  18  21
ENDBRANCH   1  17
TORSDOF 7
ENDMDL
MODEL 2
REMARK VINA RESULT:      -8.5      2.470      2.987
REMARK  7 active torsions:
REMARK  status: ('A' for Active; 'I' for Inactive)
REMARK    1  A    between atoms: C_3  and  C_4 
REMARK    2  A    between atoms: C_4  and  N_5 
REMARK    3  A    between atoms: C_4  and  C_9 
REMARK       I    between atoms: N_5  and  C_6 
REMARK       I    between atoms: C_6  and  N_7 
REMARK    4  A    between atoms: C_9  and  C_10 
REMARK       I    between atoms: C_10  and  N_11 
REMARK    5  A    between atoms: N_11  and  C_12 
REMARK    6  A    between atoms: C_12  and  C_13 
REMARK    7  A    between atoms: C_13  and  N_14 
ROOT
HETATM    1  C   UNL     1      43.648 -17.273   1.738  1.00  0.00     0.132 C 
ENDROOT
BRANCH   1   2
HETATM    2  C   UNL     1      43.497 -17.963   3.107  1.00  0.00     0.128 C 
BRANCH   2   3
HETATM    3  C   UNL     1      43.850 -19.447   3.015  1.00  0.00    -0.029 A 
HETATM    4  C   UNL     1      44.515 -20.124   4.062  1.00  0.00    -0.054 A 
HETATM    5  C   UNL     1      44.928 -19.434   5.335  1.00  0.00     0.049 C 
HETATM    6  C   UNL     1      44.813 -21.490   3.919  1.00  0.00     0.007 A 
HETATM    7  C   UNL     1      44.450 -22.190   2.770  1.00  0.00     0.001 A 
HETATM    8  C   UNL     1      43.777 -21.537   1.746  1.00  0.00     0.001 A 
HETATM    9  C   UNL     1      43.474 -20.181   1.869  1.00  0.00     0.010 A 
ENDBRANCH   2   3
BRANCH   2  10
HETATM   10  N   UNL     1      42.140 -17.843   3.634  1.00  0.00    -0.334 N 
HETATM   11  C   UNL     1      41.839 -17.299   4.842  1.00  0.00     0.314 C 
HETATM   12  N   UNL     1      40.515 -17.353   5.124  1.00  0.00    -0.352 N 
HETATM   13  O   UNL     1      42.635 -16.757   5.598  1.00  0.00    -0.248 OA
HETATM   14  H   UNL     1      39.962 -18.112   4.750  1.00  0.00     0.160 HD
HETATM   15  H   UNL     1      40.249 -17.052   6.052  1.00  0.00     0.160 HD
HETATM   16  H   UNL     1      41.403 -18.323   3.135  1.00  0.00     0.165 HD
ENDBRANCH   2  10
ENDBRANCH   1   2
BRANCH   1  17
HETATM   17  C   UNL     1      42.445 -16.418   1.419  1.00  0.00     0.219 C 
HETATM   18  N   UNL     1      42.575 -15.084   1.720  1.00  0.00    -0.359 N 
HETATM   19  H   UNL     1      43.434 -14.770   2.162  1.00  0.00     0.162 HD
HETATM   20  O   UNL     1      41.414 -16.864   0.918  1.00  0.00    -0.274 OA
BRANCH  18  21
HETATM   21  C   UNL     1      41.504 -14.116   1.540  1.00  0.00     0.150 C 
BRANCH  21  22
HETATM   22  C   UNL     1      41.652 -13.200   0.305  1.00  0.00     0.254 C 
BRANCH  22  23
HETATM   23  N   UNL     1      40.628 -13.470  -0.768  1.00  0.00    -0.065 N 
HETATM   24  H   UNL     1      40.671 -12.656  -1.417  1.00  0.00     0.280 HD
HETATM   25  C   UNL     1      40.940 -14.666  -1.643  1.00  0.00     0.274 C 
HETATM   26  C   UNL     1      39.821 -14.986  -2.579  1.00  0.00    -0.019 A 
HETATM   27  C   UNL     1      38.561 -14.438  -2.436  1.00  0.00    -0.008 A 
HETATM   28  C   UNL     1      39.869 -15.872  -3.700  1.00  0.00     0.017 A 
HETATM   29  S   UNL     1      37.463 -14.970  -3.616  1.00  0.00    -0.106 SA
HETATM   30  C   UNL     1      38.185 -13.452  -1.377  1.00  0.00     0.074 C 
HETATM   31  C   UNL     1      38.656 -15.954  -4.352  1.00  0.00     0.051 A 
HETATM   32  C   UNL     1      39.207 -13.504  -0.231  1.00  0.00     0.240 C 
ENDBRANCH  22  23
ENDBRANCH  21  22
ENDBRANCH  18  21
ENDBRANCH   1  17
TORSDOF 7
ENDMDL
MODEL 3
REMARK VINA RESULT:      -8.5      2.609      3.193
REMARK  7 active torsions:
REMARK  status: ('A' for Active; 'I' for Inactive)
REMARK    1  A    between atoms: C_3  and  C_4 
REMARK    2  A    between atoms: C_4  and  N_5 
REMARK    3  A    between atoms: C_4  and  C_9 
REMARK       I    between atoms: N_5  and  C_6 
REMARK       I    between atoms: C_6  and  N_7 
REMARK    4  A    between atoms: C_9  and  C_10 
REMARK       I    between atoms: C_10  and  N_11 
REMARK    5  A    between atoms: N_11  and  C_12 
REMARK    6  A    between atoms: C_12  and  C_13 
REMARK    7  A    between atoms: C_13  and  N_14 
ROOT
HETATM    1  C   UNL     1      43.882 -17.329   1.676  1.00  0.00     0.132 C 
ENDROOT
BRANCH   1   2
HETATM    2  C   UNL     1      43.629 -17.992   3.043  1.00  0.00     0.128 C 
BRANCH   2   3
HETATM    3  C   UNL     1      43.930 -19.489   2.990  1.00  0.00    -0.029 A 
HETATM    4  C   UNL     1      44.556 -20.164   4.062  1.00  0.00    -0.054 A 
HETATM    5  C   UNL     1      44.975 -19.459   5.325  1.00  0.00     0.049 C 
HETATM    6  C   UNL     1      44.808 -21.543   3.955  1.00  0.00     0.007 A 
HETATM    7  C   UNL     1      44.438 -22.256   2.817  1.00  0.00     0.001 A 
HETATM    8  C   UNL     1      43.802 -21.604   1.768  1.00  0.00     0.001 A 
HETATM    9  C   UNL     1      43.546 -20.236   1.856  1.00  0.00     0.010 A 
ENDBRANCH   2   3
BRANCH   2  10
HETATM   10  N   UNL     1      42.249 -17.814   3.491  1.00  0.00    -0.334 N 
HETATM   11  C   UNL     1      41.903 -17.326   4.710  1.00  0.00     0.314 C 
HETATM   12  N   UNL     1      40.563 -17.309   4.905  1.00  0.00    -0.352 N 
HETATM   13  O   UNL     1      42.679 -16.886   5.548  1.00  0.00    -0.248 OA
HETATM   14  H   UNL     1      39.989 -18.006   4.448  1.00  0.00     0.160 HD
HETATM   15  H   UNL     1      40.254 -17.048   5.832  1.00  0.00     0.160 HD
HETATM   16  H   UNL     1      41.519 -18.213   2.916  1.00  0.00     0.165 HD
ENDBRANCH   2  10
ENDBRANCH   1   2
BRANCH   1  17
HETATM   17  C   UNL     1      42.878 -16.234   1.402  1.00  0.00     0.219 C 
HETATM   18  N   UNL     1      42.088 -16.425   0.294  1.00  0.00    -0.359 N 
HETATM   19  H   UNL     1      42.249 -17.249  -0.278  1.00  0.00     0.162 HD
HETATM   20  O   UNL     1      42.755 -15.237   2.112  1.00  0.00    -0.274 OA
BRANCH  18  21
HETATM   21  C   UNL     1      41.106 -15.454  -0.165  1.00  0.00     0.150 C 
BRANCH  21  22
HETATM   22  C   UNL     1      41.156 -15.142  -1.677  1.00  0.00     0.254 C 
BRANCH  22  23
HETATM   23  N   UNL     1      39.793 -14.993  -2.303  1.00  0.00    -0.065 N 
HETATM   24  H   UNL     1      39.123 -15.440  -1.642  1.00  0.00     0.280 HD
HETATM   25  C   UNL     1      39.309 -13.561  -2.417  1.00  0.00     0.274 C 
HETATM   26  C   UNL     1      38.034 -13.456  -3.186  1.00  0.00    -0.019 A 
HETATM   27  C   UNL     1      37.540 -14.502  -3.941  1.00  0.00    -0.008 A 
HETATM   28  C   UNL     1      37.175 -12.316  -3.269  1.00  0.00     0.017 A 
HETATM   29  S   UNL     1      36.085 -14.129  -4.730  1.00  0.00    -0.106 SA
HETATM   30  C   UNL     1      38.187 -15.846  -4.046  1.00  0.00     0.074 C 
HETATM   31  C   UNL     1      36.080 -12.547  -4.075  1.00  0.00     0.051 A 
HETATM   32  C   UNL     1      39.659 -15.751  -3.613  1.00  0.00     0.240 C 
ENDBRANCH  22  23
ENDBRANCH  21  22
ENDBRANCH  18  21
ENDBRANCH   1  17
TORSDOF 7
ENDMDL
MODEL 4
REMARK VINA RESULT:      -8.4      6.922      9.681
REMARK  7 active torsions:
REMARK  status: ('A' for Active; 'I' for Inactive)
REMARK    1  A    between atoms: C_3  and  C_4 
REMARK    2  A    between atoms: C_4  and  N_5 
REMARK    3  A    between atoms: C_4  and  C_9 
REMARK       I    between atoms: N_5  and  C_6 
REMARK       I    between atoms: C_6  and  N_7 
REMARK    4  A    between atoms: C_9  and  C_10 
REMARK       I    between atoms: C_10  and  N_11 
REMARK    5  A    between atoms: N_11  and  C_12 
REMARK    6  A    between atoms: C_12  and  C_13 
REMARK    7  A    between atoms: C_13  and  N_14 
ROOT
HETATM    1  C   UNL     1      44.357 -16.126   6.616  1.00  0.00     0.132 C 
ENDROOT
BRANCH   1   2
HETATM    2  C   UNL     1      43.106 -16.761   5.981  1.00  0.00     0.128 C 
BRANCH   2   3
HETATM    3  C   UNL     1      43.430 -17.363   4.615  1.00  0.00    -0.029 A 
HETATM    4  C   UNL     1      43.825 -18.712   4.466  1.00  0.00    -0.054 A 
HETATM    5  C   UNL     1      43.961 -19.647   5.638  1.00  0.00     0.049 C 
HETATM    6  C   UNL     1      44.111 -19.208   3.182  1.00  0.00     0.007 A 
HETATM    7  C   UNL     1      43.995 -18.398   2.055  1.00  0.00     0.001 A 
HETATM    8  C   UNL     1      43.585 -17.079   2.190  1.00  0.00     0.001 A 
HETATM    9  C   UNL     1      43.300 -16.567   3.456  1.00  0.00     0.010 A 
ENDBRANCH   2   3
BRANCH   2  10
HETATM   10  N   UNL     1      42.024 -15.792   5.814  1.00  0.00    -0.334 N 
HETATM   11  C   UNL     1      40.719 -16.059   6.074  1.00  0.00     0.314 C 
HETATM   12  N   UNL     1      39.905 -15.015   5.789  1.00  0.00    -0.352 N 
HETATM   13  O   UNL     1      40.287 -17.094   6.567  1.00  0.00    -0.248 OA
HETATM   14  H   UNL     1      40.161 -14.378   5.046  1.00  0.00     0.160 HD
HETATM   15  H   UNL     1      38.912 -15.192   5.871  1.00  0.00     0.160 HD
HETATM   16  H   UNL     1      42.245 -14.927   5.341  1.00  0.00     0.165 HD
ENDBRANCH   2  10
ENDBRANCH   1   2
BRANCH   1  17
HETATM   17  C   UNL     1      44.268 -14.619   6.616  1.00  0.00     0.219 C 
HETATM   18  N   UNL     1      44.352 -14.024   7.852  1.00  0.00    -0.359 N 
HETATM   19  H   UNL     1      44.429 -14.620   8.670  1.00  0.00     0.162 HD
HETATM   20  O   UNL     1      44.135 -13.950   5.592  1.00  0.00    -0.274 OA
BRANCH  18  21
HETATM   21  C   UNL     1      44.225 -12.589   8.060  1.00  0.00     0.150 C 
BRANCH  21  22
HETATM   22  C   UNL     1      44.811 -12.069   9.392  1.00  0.00     0.254 C 
BRANCH  22  23
HETATM   23  N   UNL     1      43.766 -11.529  10.335  1.00  0.00    -0.065 N 
HETATM   24  H   UNL     1      43.334 -12.360  10.791  1.00  0.00     0.280 HD
HETATM   25  C   UNL     1      44.322 -10.715  11.485  1.00  0.00     0.274 C 
HETATM   26  C   UNL     1      43.245 -10.071  12.293  1.00  0.00    -0.019 A 
HETATM   27  C   UNL     1      41.938  -9.995  11.851  1.00  0.00    -0.008 A 
HETATM   28  C   UNL     1      43.388  -9.453  13.574  1.00  0.00     0.017 A 
HETATM   29  S   UNL     1      40.908  -9.204  12.944  1.00  0.00    -0.106 SA
HETATM   30  C   UNL     1      41.449 -10.569  10.560  1.00  0.00     0.074 C 
HETATM   31  C   UNL     1      42.195  -8.942  14.042  1.00  0.00     0.051 A 
HETATM   32  C   UNL     1      42.636 -10.812   9.615  1.00  0.00     0.240 C 
ENDBRANCH  22  23
ENDBRANCH  21  22
ENDBRANCH  18  21
ENDBRANCH   1  17
TORSDOF 7
ENDMDL
MODEL 5
REMARK VINA RESULT:      -8.4      0.639      1.346
REMARK  7 active torsions:
REMARK  status: ('A' for Active; 'I' for Inactive)
REMARK    1  A    between atoms: C_3  and  C_4 
REMARK    2  A    between atoms: C_4  and  N_5 
REMARK    3  A    between atoms: C_4  and  C_9 
REMARK       I    between atoms: N_5  and  C_6 
REMARK       I    between atoms: C_6  and  N_7 
REMARK    4  A    between atoms: C_9  and  C_10 
REMARK       I    between atoms: C_10  and  N_11 
REMARK    5  A    between atoms: N_11  and  C_12 
REMARK    6  A    between atoms: C_12  and  C_13 
REMARK    7  A    between atoms: C_13  and  N_14 
ROOT
HETATM    1  C   UNL     1      43.909 -17.264   1.694  1.00  0.00     0.132 C 
ENDROOT
BRANCH   1   2
HETATM    2  C   UNL     1      43.663 -17.929   3.061  1.00  0.00     0.128 C 
BRANCH   2   3
HETATM    3  C   UNL     1      43.948 -19.429   3.000  1.00  0.00    -0.029 A 
HETATM    4  C   UNL     1      44.571 -20.116   4.066  1.00  0.00    -0.054 A 
HETATM    5  C   UNL     1      45.004 -19.422   5.330  1.00  0.00     0.049 C 
HETATM    6  C   UNL     1      44.808 -21.497   3.951  1.00  0.00     0.007 A 
HETATM    7  C   UNL     1      44.424 -22.201   2.812  1.00  0.00     0.001 A 
HETATM    8  C   UNL     1      43.790 -21.538   1.770  1.00  0.00     0.001 A 
HETATM    9  C   UNL     1      43.549 -20.167   1.864  1.00  0.00     0.010 A 
ENDBRANCH   2   3
BRANCH   2  10
HETATM   10  N   UNL     1      42.289 -17.739   3.523  1.00  0.00    -0.334 N 
HETATM   11  C   UNL     1      41.960 -17.235   4.740  1.00  0.00     0.314 C 
HETATM   12  N   UNL     1      40.622 -17.208   4.951  1.00  0.00    -0.352 N 
HETATM   13  O   UNL     1      42.748 -16.789   5.564  1.00  0.00    -0.248 OA
HETATM   14  H   UNL     1      40.040 -17.907   4.509  1.00  0.00     0.160 HD
HETATM   15  H   UNL     1      40.326 -16.934   5.878  1.00  0.00     0.160 HD
HETATM   16  H   UNL     1      41.550 -18.140   2.962  1.00  0.00     0.165 HD
ENDBRANCH   2  10
ENDBRANCH   1   2
BRANCH   1  17
HETATM   17  C   UNL     1      42.892 -16.183   1.418  1.00  0.00     0.219 C 
HETATM   18  N   UNL     1      42.072 -16.409   0.338  1.00  0.00    -0.359 N 
HETATM   19  H   UNL     1      42.221 -17.248  -0.215  1.00  0.00     0.162 HD
HETATM   20  O   UNL     1      42.783 -15.167   2.102  1.00  0.00    -0.274 OA
BRANCH  18  21
HETATM   21  C   UNL     1      41.072 -15.456  -0.120  1.00  0.00     0.150 C 
BRANCH  21  22
HETATM   22  C   UNL     1      41.043 -15.226  -1.648  1.00  0.00     0.254 C 
BRANCH  22  23
HETATM   23  N   UNL     1      41.203 -13.779  -2.039  1.00  0.00    -0.065 N 
HETATM   24  H   UNL     1      40.318 -13.306  -1.759  1.00  0.00     0.280 HD
HETATM   25  C   UNL     1      42.282 -13.040  -1.274  1.00  0.00     0.274 C 
HETATM   26  C   UNL     1      42.510 -11.665  -1.808  1.00  0.00    -0.019 A 
HETATM   27  C   UNL     1      42.006 -11.254  -3.027  1.00  0.00    -0.008 A 
HETATM   28  C   UNL     1      43.256 -10.616  -1.184  1.00  0.00     0.017 A 
HETATM   29  S   UNL     1      42.415  -9.653  -3.415  1.00  0.00    -0.106 SA
HETATM   30  C   UNL     1      41.159 -12.104  -3.919  1.00  0.00     0.074 C 
HETATM   31  C   UNL     1      43.283  -9.470  -1.951  1.00  0.00     0.051 A 
HETATM   32  C   UNL     1      41.327 -13.584  -3.541  1.00  0.00     0.240 C 
ENDBRANCH  22  23
ENDBRANCH  21  22
ENDBRANCH  18  21
ENDBRANCH   1  17
TORSDOF 7
ENDMDL
MODEL 6
REMARK VINA RESULT:      -8.4      7.403     10.417
REMARK  7 active torsions:
REMARK  status: ('A' for Active; 'I' for Inactive)
REMARK    1  A    between atoms: C_3  and  C_4 
REMARK    2  A    between atoms: C_4  and  N_5 
REMARK    3  A    between atoms: C_4  and  C_9 
REMARK       I    between atoms: N_5  and  C_6 
REMARK       I    between atoms: C_6  and  N_7 
REMARK    4  A    between atoms: C_9  and  C_10 
REMARK       I    between atoms: C_10  and  N_11 
REMARK    5  A    between atoms: N_11  and  C_12 
REMARK    6  A    between atoms: C_12  and  C_13 
REMARK    7  A    between atoms: C_13  and  N_14 
ROOT
HETATM    1  C   UNL     1      40.929  -9.817   9.053  1.00  0.00     0.132 C 
ENDROOT
BRANCH   1   2
HETATM    2  C   UNL     1      41.543 -10.315  10.375  1.00  0.00     0.128 C 
BRANCH   2   3
HETATM    3  C   UNL     1      42.988 -10.769  10.173  1.00  0.00    -0.029 A 
HETATM    4  C   UNL     1      43.983 -10.558  11.153  1.00  0.00    -0.054 A 
HETATM    5  C   UNL     1      43.694  -9.867  12.459  1.00  0.00     0.049 C 
HETATM    6  C   UNL     1      45.296 -10.998  10.908  1.00  0.00     0.007 A 
HETATM    7  C   UNL     1      45.626 -11.652   9.724  1.00  0.00     0.001 A 
HETATM    8  C   UNL     1      44.649 -11.884   8.765  1.00  0.00     0.001 A 
HETATM    9  C   UNL     1      43.342 -11.452   8.989  1.00  0.00     0.010 A 
ENDBRANCH   2   3
BRANCH   2  10
HETATM   10  N   UNL     1      40.785 -11.427  10.946  1.00  0.00    -0.334 N 
HETATM   11  C   UNL     1      40.285 -11.437  12.208  1.00  0.00     0.314 C 
HETATM   12  N   UNL     1      39.669 -12.603  12.517  1.00  0.00    -0.352 N 
HETATM   13  O   UNL     1      40.315 -10.499  12.994  1.00  0.00    -0.248 OA
HETATM   14  H   UNL     1      39.988 -13.459  12.084  1.00  0.00     0.160 HD
HETATM   15  H   UNL     1      39.366 -12.702  13.477  1.00  0.00     0.160 HD
HETATM   16  H   UNL     1      40.760 -12.290  10.420  1.00  0.00     0.165 HD
ENDBRANCH   2  10
ENDBRANCH   1   2
BRANCH   1  17
HETATM   17  C   UNL     1      39.880 -10.773   8.540  1.00  0.00     0.219 C 
HETATM   18  N   UNL     1      40.305 -11.648   7.569  1.00  0.00    -0.359 N 
HETATM   19  H   UNL     1      41.263 -11.574   7.239  1.00  0.00     0.162 HD
HETATM   20  O   UNL     1      38.721 -10.789   8.952  1.00  0.00    -0.274 OA
BRANCH  18  21
HETATM   21  C   UNL     1      39.425 -12.602   6.911  1.00  0.00     0.150 C 
BRANCH  21  22
HETATM   22  C   UNL     1      40.023 -13.284   5.659  1.00  0.00     0.254 C 
BRANCH  22  23
HETATM   23  N   UNL     1      41.052 -14.335   5.983  1.00  0.00    -0.065 N 
HETATM   24  H   UNL     1      40.958 -14.525   7.004  1.00  0.00     0.280 HD
HETATM   25  C   UNL     1      40.804 -15.678   5.327  1.00  0.00     0.274 C 
HETATM   26  C   UNL     1      41.933 -16.630   5.547  1.00  0.00    -0.019 A 
HETATM   27  C   UNL     1      43.160 -16.220   6.031  1.00  0.00    -0.008 A 
HETATM   28  C   UNL     1      41.927 -18.037   5.294  1.00  0.00     0.017 A 
HETATM   29  S   UNL     1      44.278 -17.489   6.180  1.00  0.00    -0.106 SA
HETATM   30  C   UNL     1      43.486 -14.814   6.420  1.00  0.00     0.074 C 
HETATM   31  C   UNL     1      43.138 -18.625   5.596  1.00  0.00     0.051 A 
HETATM   32  C   UNL     1      42.477 -13.848   5.778  1.00  0.00     0.240 C 
ENDBRANCH  22  23
ENDBRANCH  21  22
ENDBRANCH  18  21
ENDBRANCH   1  17
TORSDOF 7
ENDMDL
MODEL 7
REMARK VINA RESULT:      -7.9      3.429      4.670
REMARK  7 active torsions:
REMARK  status: ('A' for Active; 'I' for Inactive)
REMARK    1  A    between atoms: C_3  and  C_4 
REMARK    2  A    between atoms: C_4  and  N_5 
REMARK    3  A    between atoms: C_4  and  C_9 
REMARK       I    between atoms: N_5  and  C_6 
REMARK       I    between atoms: C_6  and  N_7 
REMARK    4  A    between atoms: C_9  and  C_10 
REMARK       I    between atoms: C_10  and  N_11 
REMARK    5  A    between atoms: N_11  and  C_12 
REMARK    6  A    between atoms: C_12  and  C_13 
REMARK    7  A    between atoms: C_13  and  N_14 
ROOT
HETATM    1  C   UNL     1      43.384 -17.522   1.490  1.00  0.00     0.132 C 
ENDROOT
BRANCH   1   2
HETATM    2  C   UNL     1      43.415 -18.076   2.927  1.00  0.00     0.128 C 
BRANCH   2   3
HETATM    3  C   UNL     1      43.815 -19.551   2.938  1.00  0.00    -0.029 A 
HETATM    4  C   UNL     1      44.505 -20.131   4.026  1.00  0.00    -0.054 A 
HETATM    5  C   UNL     1      44.900 -19.341   5.244  1.00  0.00     0.049 C 
HETATM    6  C   UNL     1      44.847 -21.494   3.977  1.00  0.00     0.007 A 
HETATM    7  C   UNL     1      44.502 -22.284   2.882  1.00  0.00     0.001 A 
HETATM    8  C   UNL     1      43.804 -21.727   1.819  1.00  0.00     0.001 A 
HETATM    9  C   UNL     1      43.459 -20.375   1.848  1.00  0.00     0.010 A 
ENDBRANCH   2   3
BRANCH   2  10
HETATM   10  N   UNL     1      42.121 -17.944   3.593  1.00  0.00    -0.334 N 
HETATM   11  C   UNL     1      41.919 -17.217   4.722  1.00  0.00     0.314 C 
HETATM   12  N   UNL     1      40.644 -17.296   5.173  1.00  0.00    -0.352 N 
HETATM   13  O   UNL     1      42.751 -16.509   5.273  1.00  0.00    -0.248 OA
HETATM   14  H   UNL     1      40.111 -18.139   5.001  1.00  0.00     0.160 HD
HETATM   15  H   UNL     1      40.462 -16.855   6.064  1.00  0.00     0.160 HD
HETATM   16  H   UNL     1      41.372 -18.544   3.276  1.00  0.00     0.165 HD
ENDBRANCH   2  10
ENDBRANCH   1   2
BRANCH   1  17
HETATM   17  C   UNL     1      42.008 -17.019   1.125  1.00  0.00     0.219 C 
HETATM   18  N   UNL     1      41.868 -15.652   1.106  1.00  0.00    -0.359 N 
HETATM   19  H   UNL     1      42.666 -15.081   1.368  1.00  0.00     0.162 HD
HETATM   20  O   UNL     1      41.067 -17.763   0.854  1.00  0.00    -0.274 OA
BRANCH  18  21
HETATM   21  C   UNL     1      40.605 -14.982   0.837  1.00  0.00     0.150 C 
BRANCH  21  22
HETATM   22  C   UNL     1      39.520 -15.174   1.920  1.00  0.00     0.254 C 
BRANCH  22  23
HETATM   23  N   UNL     1      39.428 -14.022   2.887  1.00  0.00    -0.065 N 
HETATM   24  H   UNL     1      38.637 -14.246   3.527  1.00  0.00     0.280 HD
HETATM   25  C   UNL     1      40.624 -13.879   3.806  1.00  0.00     0.274 C 
HETATM   26  C   UNL     1      40.558 -12.634   4.628  1.00  0.00    -0.019 A 
HETATM   27  C   UNL     1      39.668 -11.615   4.352  1.00  0.00    -0.008 A 
HETATM   28  C   UNL     1      41.370 -12.312   5.760  1.00  0.00     0.017 A 
HETATM   29  S   UNL     1      39.799 -10.305   5.422  1.00  0.00    -0.106 SA
HETATM   30  C   UNL     1      38.660 -11.651   3.247  1.00  0.00     0.074 C 
HETATM   31  C   UNL     1      41.060 -11.075   6.287  1.00  0.00     0.051 A 
HETATM   32  C   UNL     1      39.062 -12.712   2.211  1.00  0.00     0.240 C 
ENDBRANCH  22  23
ENDBRANCH  21  22
ENDBRANCH  18  21
ENDBRANCH   1  17
TORSDOF 7
ENDMDL
MODEL 8
REMARK VINA RESULT:      -7.9      2.841      3.719
REMARK  7 active torsions:
REMARK  status: ('A' for Active; 'I' for Inactive)
REMARK    1  A    between atoms: C_3  and  C_4 
REMARK    2  A    between atoms: C_4  and  N_5 
REMARK    3  A    between atoms: C_4  and  C_9 
REMARK       I    between atoms: N_5  and  C_6 
REMARK       I    between atoms: C_6  and  N_7 
REMARK    4  A    between atoms: C_9  and  C_10 
REMARK       I    between atoms: C_10  and  N_11 
REMARK    5  A    between atoms: N_11  and  C_12 
REMARK    6  A    between atoms: C_12  and  C_13 
REMARK    7  A    between atoms: C_13  and  N_14 
ROOT
HETATM    1  C   UNL     1      41.322 -17.613   4.429  1.00  0.00     0.132 C 
ENDROOT
BRANCH   1   2
HETATM    2  C   UNL     1      42.845 -17.397   4.509  1.00  0.00     0.128 C 
BRANCH   2   3
HETATM    3  C   UNL     1      43.597 -18.711   4.306  1.00  0.00    -0.029 A 
HETATM    4  C   UNL     1      44.010 -19.147   3.027  1.00  0.00    -0.054 A 
HETATM    5  C   UNL     1      43.734 -18.355   1.777  1.00  0.00     0.049 C 
HETATM    6  C   UNL     1      44.698 -20.367   2.903  1.00  0.00     0.007 A 
HETATM    7  C   UNL     1      44.993 -21.143   4.022  1.00  0.00     0.001 A 
HETATM    8  C   UNL     1      44.611 -20.711   5.285  1.00  0.00     0.001 A 
HETATM    9  C   UNL     1      43.925 -19.505   5.427  1.00  0.00     0.010 A 
ENDBRANCH   2   3
BRANCH   2  10
HETATM   10  N   UNL     1      43.250 -16.827   5.792  1.00  0.00    -0.334 N 
HETATM   11  C   UNL     1      43.380 -15.495   6.025  1.00  0.00     0.314 C 
HETATM   12  N   UNL     1      43.820 -15.223   7.277  1.00  0.00    -0.352 N 
HETATM   13  O   UNL     1      43.088 -14.602   5.239  1.00  0.00    -0.248 OA
HETATM   14  H   UNL     1      44.424 -15.888   7.742  1.00  0.00     0.160 HD
HETATM   15  H   UNL     1      44.028 -14.253   7.471  1.00  0.00     0.160 HD
HETATM   16  H   UNL     1      43.592 -17.465   6.497  1.00  0.00     0.165 HD
ENDBRANCH   2  10
ENDBRANCH   1   2
BRANCH   1  17
HETATM   17  C   UNL     1      40.680 -16.646   3.464  1.00  0.00     0.219 C 
HETATM   18  N   UNL     1      40.428 -15.393   3.967  1.00  0.00    -0.359 N 
HETATM   19  H   UNL     1      40.648 -15.211   4.942  1.00  0.00     0.162 HD
HETATM   20  O   UNL     1      40.400 -16.937   2.302  1.00  0.00    -0.274 OA
BRANCH  18  21
HETATM   21  C   UNL     1      39.761 -14.345   3.209  1.00  0.00     0.150 C 
BRANCH  21  22
HETATM   22  C   UNL     1      40.602 -13.726   2.071  1.00  0.00     0.254 C 
BRANCH  22  23
HETATM   23  N   UNL     1      40.247 -14.257   0.706  1.00  0.00    -0.065 N 
HETATM   24  H   UNL     1      39.795 -15.182   0.866  1.00  0.00     0.280 HD
HETATM   25  C   UNL     1      39.196 -13.447  -0.026  1.00  0.00     0.274 C 
HETATM   26  C   UNL     1      38.998 -13.917  -1.429  1.00  0.00    -0.019 A 
HETATM   27  C   UNL     1      39.882 -14.779  -2.049  1.00  0.00    -0.008 A 
HETATM   28  C   UNL     1      37.930 -13.559  -2.310  1.00  0.00     0.017 A 
HETATM   29  S   UNL     1      39.443 -15.151  -3.646  1.00  0.00    -0.106 SA
HETATM   30  C   UNL     1      41.092 -15.363  -1.393  1.00  0.00     0.074 C 
HETATM   31  C   UNL     1      38.050 -14.160  -3.545  1.00  0.00     0.051 A 
HETATM   32  C   UNL     1      41.467 -14.529  -0.157  1.00  0.00     0.240 C 
ENDBRANCH  22  23
ENDBRANCH  21  22
ENDBRANCH  18  21
ENDBRANCH   1  17
TORSDOF 7
ENDMDL
MODEL 9
REMARK VINA RESULT:      -7.8      2.238      3.200
REMARK  7 active torsions:
REMARK  status: ('A' for Active; 'I' for Inactive)
REMARK    1  A    between atoms: C_3  and  C_4 
REMARK    2  A    between atoms: C_4  and  N_5 
REMARK    3  A    between atoms: C_4  and  C_9 
REMARK       I    between atoms: N_5  and  C_6 
REMARK       I    between atoms: C_6  and  N_7 
REMARK    4  A    between atoms: C_9  and  C_10 
REMARK       I    between atoms: C_10  and  N_11 
REMARK    5  A    between atoms: N_11  and  C_12 
REMARK    6  A    between atoms: C_12  and  C_13 
REMARK    7  A    between atoms: C_13  and  N_14 
ROOT
HETATM    1  C   UNL     1      41.354 -17.597   4.526  1.00  0.00     0.132 C 
ENDROOT
BRANCH   1   2
HETATM    2  C   UNL     1      42.879 -17.409   4.626  1.00  0.00     0.128 C 
BRANCH   2   3
HETATM    3  C   UNL     1      43.606 -18.748   4.502  1.00  0.00    -0.029 A 
HETATM    4  C   UNL     1      44.080 -19.230   3.261  1.00  0.00    -0.054 A 
HETATM    5  C   UNL     1      43.898 -18.466   1.976  1.00  0.00     0.049 C 
HETATM    6  C   UNL     1      44.740 -20.470   3.210  1.00  0.00     0.007 A 
HETATM    7  C   UNL     1      44.949 -21.222   4.364  1.00  0.00     0.001 A 
HETATM    8  C   UNL     1      44.506 -20.745   5.591  1.00  0.00     0.001 A 
HETATM    9  C   UNL     1      43.846 -19.518   5.660  1.00  0.00     0.010 A 
ENDBRANCH   2   3
BRANCH   2  10
HETATM   10  N   UNL     1      43.273 -16.785   5.887  1.00  0.00    -0.334 N 
HETATM   11  C   UNL     1      43.329 -15.443   6.085  1.00  0.00     0.314 C 
HETATM   12  N   UNL     1      43.774 -15.116   7.322  1.00  0.00    -0.352 N 
HETATM   13  O   UNL     1      42.973 -14.588   5.285  1.00  0.00    -0.248 OA
HETATM   14  H   UNL     1      44.424 -15.732   7.792  1.00  0.00     0.160 HD
HETATM   15  H   UNL     1      43.930 -14.131   7.490  1.00  0.00     0.160 HD
HETATM   16  H   UNL     1      43.663 -17.386   6.600  1.00  0.00     0.165 HD
ENDBRANCH   2  10
ENDBRANCH   1   2
BRANCH   1  17
HETATM   17  C   UNL     1      40.761 -16.717   3.452  1.00  0.00     0.219 C 
HETATM   18  N   UNL     1      40.363 -15.469   3.867  1.00  0.00    -0.359 N 
HETATM   19  H   UNL     1      40.454 -15.236   4.851  1.00  0.00     0.162 HD
HETATM   20  O   UNL     1      40.640 -17.070   2.280  1.00  0.00    -0.274 OA
BRANCH  18  21
HETATM   21  C   UNL     1      39.715 -14.504   2.991  1.00  0.00     0.150 C 
BRANCH  21  22
HETATM   22  C   UNL     1      40.616 -13.339   2.524  1.00  0.00     0.254 C 
BRANCH  22  23
HETATM   23  N   UNL     1      40.599 -13.130   1.032  1.00  0.00    -0.065 N 
HETATM   24  H   UNL     1      39.943 -12.339   0.860  1.00  0.00     0.280 HD
HETATM   25  C   UNL     1      41.917 -12.659   0.450  1.00  0.00     0.274 C 
HETATM   26  C   UNL     1      41.895 -12.624  -1.042  1.00  0.00    -0.019 A 
HETATM   27  C   UNL     1      40.897 -13.232  -1.779  1.00  0.00    -0.008 A 
HETATM   28  C   UNL     1      42.855 -12.001  -1.898  1.00  0.00     0.017 A 
HETATM   29  S   UNL     1      41.105 -13.061  -3.454  1.00  0.00    -0.106 SA
HETATM   30  C   UNL     1      39.726 -13.948  -1.185  1.00  0.00     0.074 C 
HETATM   31  C   UNL     1      42.545 -12.163  -3.233  1.00  0.00     0.051 A 
HETATM   32  C   UNL     1      40.029 -14.319   0.276  1.00  0.00     0.240 C 
ENDBRANCH  22  23
ENDBRANCH  21  22
ENDBRANCH  18  21
ENDBRANCH   1  17
TORSDOF 7
ENDMDL
MODEL 10
REMARK VINA RESULT:      -7.8      2.261      3.128
REMARK  7 active torsions:
REMARK  status: ('A' for Active; 'I' for Inactive)
REMARK    1  A    between atoms: C_3  and  C_4 
REMARK    2  A    between atoms: C_4  and  N_5 
REMARK    3  A    between atoms: C_4  and  C_9 
REMARK       I    between atoms: N_5  and  C_6 
REMARK       I    between atoms: C_6  and  N_7 
REMARK    4  A    between atoms: C_9  and  C_10 
REMARK       I    between atoms: C_10  and  N_11 
REMARK    5  A    between atoms: N_11  and  C_12 
REMARK    6  A    between atoms: C_12  and  C_13 
REMARK    7  A    between atoms: C_13  and  N_14 
ROOT
HETATM    1  C   UNL     1      43.858 -17.312   1.706  1.00  0.00     0.132 C 
ENDROOT
BRANCH   1   2
HETATM    2  C   UNL     1      43.601 -17.981   3.069  1.00  0.00     0.128 C 
BRANCH   2   3
HETATM    3  C   UNL     1      43.919 -19.474   3.016  1.00  0.00    -0.029 A 
HETATM    4  C   UNL     1      44.562 -20.141   4.083  1.00  0.00    -0.054 A 
HETATM    5  C   UNL     1      44.985 -19.429   5.341  1.00  0.00     0.049 C 
HETATM    6  C   UNL     1      44.829 -21.517   3.975  1.00  0.00     0.007 A 
HETATM    7  C   UNL     1      44.456 -22.236   2.842  1.00  0.00     0.001 A 
HETATM    8  C   UNL     1      43.803 -21.593   1.799  1.00  0.00     0.001 A 
HETATM    9  C   UNL     1      43.532 -20.228   1.886  1.00  0.00     0.010 A 
ENDBRANCH   2   3
BRANCH   2  10
HETATM   10  N   UNL     1      42.216 -17.819   3.506  1.00  0.00    -0.334 N 
HETATM   11  C   UNL     1      41.854 -17.437   4.758  1.00  0.00     0.314 C 
HETATM   12  N   UNL     1      40.510 -17.413   4.929  1.00  0.00    -0.352 N 
HETATM   13  O   UNL     1      42.620 -17.088   5.647  1.00  0.00    -0.248 OA
HETATM   14  H   UNL     1      39.934 -18.055   4.401  1.00  0.00     0.160 HD
HETATM   15  H   UNL     1      40.188 -17.231   5.870  1.00  0.00     0.160 HD
HETATM   16  H   UNL     1      41.491 -18.151   2.885  1.00  0.00     0.165 HD
ENDBRANCH   2  10
ENDBRANCH   1   2
BRANCH   1  17
HETATM   17  C   UNL     1      42.831 -16.243   1.416  1.00  0.00     0.219 C 
HETATM   18  N   UNL     1      42.171 -16.371   0.218  1.00  0.00    -0.359 N 
HETATM   19  H   UNL     1      42.433 -17.134  -0.399  1.00  0.00     0.162 HD
HETATM   20  O   UNL     1      42.584 -15.318   2.187  1.00  0.00    -0.274 OA
BRANCH  18  21
HETATM   21  C   UNL     1      41.192 -15.407  -0.263  1.00  0.00     0.150 C 
BRANCH  21  22
HETATM   22  C   UNL     1      41.782 -14.061  -0.740  1.00  0.00     0.254 C 
BRANCH  22  23
HETATM   23  N   UNL     1      41.082 -12.860  -0.158  1.00  0.00    -0.065 N 
HETATM   24  H   UNL     1      40.507 -12.461  -0.930  1.00  0.00     0.280 HD
HETATM   25  C   UNL     1      40.076 -13.187   0.927  1.00  0.00     0.274 C 
HETATM   26  C   UNL     1      39.532 -11.960   1.581  1.00  0.00    -0.019 A 
HETATM   27  C   UNL     1      40.108 -10.716   1.408  1.00  0.00    -0.008 A 
HETATM   28  C   UNL     1      38.400 -11.883   2.449  1.00  0.00     0.017 A 
HETATM   29  S   UNL     1      39.312  -9.486   2.265  1.00  0.00    -0.106 SA
HETATM   30  C   UNL     1      41.293 -10.449   0.536  1.00  0.00     0.074 C 
HETATM   31  C   UNL     1      38.170 -10.596   2.892  1.00  0.00     0.051 A 
HETATM   32  C   UNL     1      42.044 -11.761   0.261  1.00  0.00     0.240 C 
ENDBRANCH  22  23
ENDBRANCH  21  22
ENDBRANCH  18  21
ENDBRANCH   1  17
TORSDOF 7
ENDMDL
