MODEL 1
REMARK VINA RESULT:      -8.1      0.000      0.000
REMARK  6 active torsions:
REMARK  status: ('A' for Active; 'I' for Inactive)
REMARK    1  A    between atoms: C_2  and  O_3 
REMARK    2  A    between atoms: O_3  and  C_4 
REMARK    3  A    between atoms: C_4  and  C_6 
REMARK    4  A    between atoms: C_8  and  N_9 
REMARK    5  A    between atoms: N_9  and  C_10 
REMARK    6  A    between atoms: C_18  and  C_19 
ROOT
HETATM    1  C   UNL     1      42.978 -15.166   5.437  1.00  0.00     0.115 A 
HETATM    2  S   UNL     1      43.120 -13.521   5.915  1.00  0.00    -0.043 SA
HETATM    3  C   UNL     1      44.419 -13.925   6.975  1.00  0.00     0.172 A 
HETATM    4  N   UNL     1      44.702 -15.206   7.006  1.00  0.00    -0.220 NA
HETATM    5  C   UNL     1      43.884 -15.927   6.146  1.00  0.00     0.118 A 
ENDROOT
BRANCH   3   6
HETATM    6  N   UNL     1      45.043 -12.930   7.646  1.00  0.00    -0.335 N 
HETATM    7  H   UNL     1      45.986 -12.707   7.354  1.00  0.00     0.168 HD
BRANCH   6   8
HETATM    8  C   UNL     1      44.594 -12.201   8.764  1.00  0.00     0.034 A 
HETATM    9  C   UNL     1      45.269 -12.371   9.986  1.00  0.00     0.031 A 
HETATM   10  C   UNL     1      44.850 -11.714  11.148  1.00  0.00     0.021 A 
HETATM   11  C   UNL     1      43.743 -10.873  11.101  1.00  0.00     0.011 A 
HETATM   12 BR   UNL     1      43.166  -9.987  12.666  1.00  0.00    -0.051 Br
HETATM   13  C   UNL     1      43.058 -10.686   9.906  1.00  0.00     0.021 A 
HETATM   14  C   UNL     1      43.482 -11.350   8.749  1.00  0.00     0.031 A 
ENDBRANCH   6   8
ENDBRANCH   3   6
BRANCH   1  15
HETATM   15  C   UNL     1      42.077 -15.534   4.377  1.00  0.00     0.302 C 
HETATM   16  O   UNL     1      40.960 -16.014   4.519  1.00  0.00    -0.259 OA
BRANCH  15  17
HETATM   17  O   UNL     1      42.682 -15.338   3.166  1.00  0.00    -0.317 OA
BRANCH  17  18
HETATM   18  C   UNL     1      42.451 -16.355   2.181  1.00  0.00     0.174 C 
HETATM   19  C   UNL     1      43.773 -16.935   1.712  1.00  0.00     0.034 C 
ENDBRANCH  17  18
ENDBRANCH  15  17
ENDBRANCH   1  15
BRANCH   5  20
HETATM   20  C   UNL     1      44.001 -17.426   6.058  1.00  0.00     0.129 A 
HETATM   21  N   UNL     1      44.486 -18.040   5.002  1.00  0.00    -0.238 NA
HETATM   22  C   UNL     1      44.484 -19.409   5.205  1.00  0.00     0.075 A 
HETATM   23  C   UNL     1      44.959 -20.381   4.301  1.00  0.00     0.033 A 
HETATM   24  C   UNL     1      43.954 -19.833   6.425  1.00  0.00     0.035 A 
HETATM   25  C   UNL     1      44.894 -21.738   4.639  1.00  0.00     0.002 A 
HETATM   26  C   UNL     1      44.361 -22.135   5.862  1.00  0.00     0.002 A 
HETATM   27  C   UNL     1      43.882 -21.191   6.774  1.00  0.00     0.021 A 
HETATM   28  S   UNL     1      43.456 -18.454   7.323  1.00  0.00    -0.066 SA
ENDBRANCH   5  20
TORSDOF 6
ENDMDL
MODEL 2
REMARK VINA RESULT:      -7.6      5.637      9.348
REMARK  6 active torsions:
REMARK  status: ('A' for Active; 'I' for Inactive)
REMARK    1  A    between atoms: C_2  and  O_3 
REMARK    2  A    between atoms: O_3  and  C_4 
REMARK    3  A    between atoms: C_4  and  C_6 
REMARK    4  A    between atoms: C_8  and  N_9 
REMARK    5  A    between atoms: N_9  and  C_10 
REMARK    6  A    between atoms: C_18  and  C_19 
ROOT
HETATM    1  C   UNL     1      40.614 -14.360   2.348  1.00  0.00     0.115 A 
HETATM    2  S   UNL     1      40.810 -15.585   3.537  1.00  0.00    -0.043 SA
HETATM    3  C   UNL     1      42.501 -15.657   3.207  1.00  0.00     0.172 A 
HETATM    4  N   UNL     1      42.890 -14.855   2.245  1.00  0.00    -0.220 NA
HETATM    5  C   UNL     1      41.827 -14.119   1.737  1.00  0.00     0.118 A 
ENDROOT
BRANCH   3   6
HETATM    6  N   UNL     1      43.273 -16.481   3.952  1.00  0.00    -0.335 N 
HETATM    7  H   UNL     1      43.692 -16.082   4.783  1.00  0.00     0.168 HD
BRANCH   6   8
HETATM    8  C   UNL     1      43.653 -17.811   3.693  1.00  0.00     0.034 A 
HETATM    9  C   UNL     1      43.347 -18.360   2.436  1.00  0.00     0.031 A 
HETATM   10  C   UNL     1      43.653 -19.690   2.126  1.00  0.00     0.021 A 
HETATM   11  C   UNL     1      44.275 -20.492   3.077  1.00  0.00     0.011 A 
HETATM   12 BR   UNL     1      44.687 -22.290   2.670  1.00  0.00    -0.051 Br
HETATM   13  C   UNL     1      44.590 -19.974   4.328  1.00  0.00     0.021 A 
HETATM   14  C   UNL     1      44.276 -18.644   4.631  1.00  0.00     0.031 A 
ENDBRANCH   6   8
ENDBRANCH   3   6
BRANCH   1  15
HETATM   15  C   UNL     1      39.342 -13.706   2.189  1.00  0.00     0.302 C 
HETATM   16  O   UNL     1      39.034 -12.615   2.651  1.00  0.00    -0.259 OA
BRANCH  15  17
HETATM   17  O   UNL     1      38.486 -14.519   1.498  1.00  0.00    -0.317 OA
BRANCH  17  18
HETATM   18  C   UNL     1      37.487 -13.852   0.714  1.00  0.00     0.174 C 
HETATM   19  C   UNL     1      37.941 -13.753  -0.731  1.00  0.00     0.034 C 
ENDBRANCH  17  18
ENDBRANCH  15  17
ENDBRANCH   1  15
BRANCH   5  20
HETATM   20  C   UNL     1      42.036 -13.167   0.588  1.00  0.00     0.129 A 
HETATM   21  N   UNL     1      42.468 -11.937   0.755  1.00  0.00    -0.238 NA
HETATM   22  C   UNL     1      42.575 -11.301  -0.470  1.00  0.00     0.075 A 
HETATM   23  C   UNL     1      43.034  -9.985  -0.682  1.00  0.00     0.033 A 
HETATM   24  C   UNL     1      42.183 -12.059  -1.574  1.00  0.00     0.035 A 
HETATM   25  C   UNL     1      43.089  -9.468  -1.982  1.00  0.00     0.002 A 
HETATM   26  C   UNL     1      42.693 -10.243  -3.067  1.00  0.00     0.002 A 
HETATM   27  C   UNL     1      42.233 -11.550  -2.882  1.00  0.00     0.021 A 
HETATM   28  S   UNL     1      41.673 -13.608  -1.032  1.00  0.00    -0.066 SA
ENDBRANCH   5  20
TORSDOF 6
ENDMDL
MODEL 3
REMARK VINA RESULT:      -7.6      5.022      8.010
REMARK  6 active torsions:
REMARK  status: ('A' for Active; 'I' for Inactive)
REMARK    1  A    between atoms: C_2  and  O_3 
REMARK    2  A    between atoms: O_3  and  C_4 
REMARK    3  A    between atoms: C_4  and  C_6 
REMARK    4  A    between atoms: C_8  and  N_9 
REMARK    5  A    between atoms: N_9  and  C_10 
REMARK    6  A    between atoms: C_18  and  C_19 
ROOT
HETATM    1  C   UNL     1      42.037 -16.151   3.247  1.00  0.00     0.115 A 
HETATM    2  S   UNL     1      41.627 -14.716   2.395  1.00  0.00    -0.043 SA
HETATM    3  C   UNL     1      42.175 -15.418   0.917  1.00  0.00     0.172 A 
HETATM    4  N   UNL     1      42.671 -16.625   1.053  1.00  0.00    -0.220 NA
HETATM    5  C   UNL     1      42.612 -17.052   2.374  1.00  0.00     0.118 A 
ENDROOT
BRANCH   3   6
HETATM    6  N   UNL     1      42.032 -14.713  -0.228  1.00  0.00    -0.335 N 
HETATM    7  H   UNL     1      42.754 -14.034  -0.436  1.00  0.00     0.168 HD
BRANCH   6   8
HETATM    8  C   UNL     1      40.967 -14.727  -1.148  1.00  0.00     0.034 A 
HETATM    9  C   UNL     1      39.802 -14.005  -0.832  1.00  0.00     0.031 A 
HETATM   10  C   UNL     1      38.688 -14.012  -1.678  1.00  0.00     0.021 A 
HETATM   11  C   UNL     1      38.726 -14.744  -2.859  1.00  0.00     0.011 A 
HETATM   12 BR   UNL     1      37.224 -14.764  -4.005  1.00  0.00    -0.051 Br
HETATM   13  C   UNL     1      39.865 -15.465  -3.197  1.00  0.00     0.021 A 
HETATM   14  C   UNL     1      40.974 -15.457  -2.343  1.00  0.00     0.031 A 
ENDBRANCH   6   8
ENDBRANCH   3   6
BRANCH   1  15
HETATM   15  C   UNL     1      41.688 -16.291   4.635  1.00  0.00     0.302 C 
HETATM   16  O   UNL     1      40.966 -17.157   5.109  1.00  0.00    -0.259 OA
BRANCH  15  17
HETATM   17  O   UNL     1      42.225 -15.258   5.354  1.00  0.00    -0.317 OA
BRANCH  17  18
HETATM   18  C   UNL     1      43.611 -15.394   5.702  1.00  0.00     0.174 C 
HETATM   19  C   UNL     1      43.751 -16.209   6.975  1.00  0.00     0.034 C 
ENDBRANCH  17  18
ENDBRANCH  15  17
ENDBRANCH   1  15
BRANCH   5  20
HETATM   20  C   UNL     1      43.173 -18.392   2.769  1.00  0.00     0.129 A 
HETATM   21  N   UNL     1      43.696 -18.622   3.953  1.00  0.00    -0.238 NA
HETATM   22  C   UNL     1      44.119 -19.938   4.039  1.00  0.00     0.075 A 
HETATM   23  C   UNL     1      44.700 -20.549   5.168  1.00  0.00     0.033 A 
HETATM   24  C   UNL     1      43.940 -20.700   2.883  1.00  0.00     0.035 A 
HETATM   25  C   UNL     1      45.083 -21.894   5.113  1.00  0.00     0.002 A 
HETATM   26  C   UNL     1      44.895 -22.634   3.949  1.00  0.00     0.002 A 
HETATM   27  C   UNL     1      44.322 -22.050   2.815  1.00  0.00     0.021 A 
HETATM   28  S   UNL     1      43.218 -19.716   1.673  1.00  0.00    -0.066 SA
ENDBRANCH   5  20
TORSDOF 6
ENDMDL
MODEL 4
REMARK VINA RESULT:      -7.5      5.247      7.764
REMARK  6 active torsions:
REMARK  status: ('A' for Active; 'I' for Inactive)
REMARK    1  A    between atoms: C_2  and  O_3 
REMARK    2  A    between atoms: O_3  and  C_4 
REMARK    3  A    between atoms: C_4  and  C_6 
REMARK    4  A    between atoms: C_8  and  N_9 
REMARK    5  A    between atoms: N_9  and  C_10 
REMARK    6  A    between atoms: C_18  and  C_19 
ROOT
HETATM    1  C   UNL     1      41.681 -14.715   2.975  1.00  0.00     0.115 A 
HETATM    2  S   UNL     1      40.456 -13.675   2.365  1.00  0.00    -0.043 SA
HETATM    3  C   UNL     1      39.517 -15.039   1.883  1.00  0.00     0.172 A 
HETATM    4  N   UNL     1      40.093 -16.193   2.120  1.00  0.00    -0.220 NA
HETATM    5  C   UNL     1      41.330 -16.026   2.730  1.00  0.00     0.118 A 
ENDROOT
BRANCH   3   6
HETATM    6  N   UNL     1      38.294 -14.827   1.344  1.00  0.00    -0.335 N 
HETATM    7  H   UNL     1      37.572 -15.496   1.581  1.00  0.00     0.168 HD
BRANCH   6   8
HETATM    8  C   UNL     1      37.892 -13.842   0.423  1.00  0.00     0.034 A 
HETATM    9  C   UNL     1      38.362 -13.935  -0.900  1.00  0.00     0.031 A 
HETATM   10  C   UNL     1      38.040 -12.966  -1.857  1.00  0.00     0.021 A 
HETATM   11  C   UNL     1      37.239 -11.886  -1.501  1.00  0.00     0.011 A 
HETATM   12 BR   UNL     1      36.805 -10.571  -2.785  1.00  0.00    -0.051 Br
HETATM   13  C   UNL     1      36.760 -11.771  -0.201  1.00  0.00     0.021 A 
HETATM   14  C   UNL     1      37.090 -12.742   0.752  1.00  0.00     0.031 A 
ENDBRANCH   6   8
ENDBRANCH   3   6
BRANCH   1  15
HETATM   15  C   UNL     1      42.799 -14.167   3.696  1.00  0.00     0.302 C 
HETATM   16  O   UNL     1      43.860 -13.804   3.206  1.00  0.00    -0.259 OA
BRANCH  15  17
HETATM   17  O   UNL     1      42.534 -14.176   5.038  1.00  0.00    -0.317 OA
BRANCH  17  18
HETATM   18  C   UNL     1      43.665 -13.979   5.899  1.00  0.00     0.174 C 
HETATM   19  C   UNL     1      43.960 -15.254   6.670  1.00  0.00     0.034 C 
ENDBRANCH  17  18
ENDBRANCH  15  17
ENDBRANCH   1  15
BRANCH   5  20
HETATM   20  C   UNL     1      42.192 -17.220   3.049  1.00  0.00     0.129 A 
HETATM   21  N   UNL     1      42.514 -17.554   4.279  1.00  0.00    -0.238 NA
HETATM   22  C   UNL     1      43.301 -18.694   4.270  1.00  0.00     0.075 A 
HETATM   23  C   UNL     1      43.808 -19.358   5.406  1.00  0.00     0.033 A 
HETATM   24  C   UNL     1      43.602 -19.204   3.006  1.00  0.00     0.035 A 
HETATM   25  C   UNL     1      44.594 -20.505   5.248  1.00  0.00     0.002 A 
HETATM   26  C   UNL     1      44.881 -20.995   3.977  1.00  0.00     0.002 A 
HETATM   27  C   UNL     1      44.392 -20.353   2.836  1.00  0.00     0.021 A 
HETATM   28  S   UNL     1      42.864 -18.209   1.815  1.00  0.00    -0.066 SA
ENDBRANCH   5  20
TORSDOF 6
ENDMDL
MODEL 5
REMARK VINA RESULT:      -7.3      5.846      9.559
REMARK  6 active torsions:
REMARK  status: ('A' for Active; 'I' for Inactive)
REMARK    1  A    between atoms: C_2  and  O_3 
REMARK    2  A    between atoms: O_3  and  C_4 
REMARK    3  A    between atoms: C_4  and  C_6 
REMARK    4  A    between atoms: C_8  and  N_9 
REMARK    5  A    between atoms: N_9  and  C_10 
REMARK    6  A    between atoms: C_18  and  C_19 
ROOT
HETATM    1  C   UNL     1      40.346 -14.174   1.791  1.00  0.00     0.115 A 
HETATM    2  S   UNL     1      40.533 -15.344   3.035  1.00  0.00    -0.043 SA
HETATM    3  C   UNL     1      42.232 -15.408   2.742  1.00  0.00     0.172 A 
HETATM    4  N   UNL     1      42.630 -14.642   1.754  1.00  0.00    -0.220 NA
HETATM    5  C   UNL     1      41.568 -13.942   1.194  1.00  0.00     0.118 A 
ENDROOT
BRANCH   3   6
HETATM    6  N   UNL     1      42.999 -16.189   3.536  1.00  0.00    -0.335 N 
HETATM    7  H   UNL     1      43.405 -15.746   4.351  1.00  0.00     0.168 HD
BRANCH   6   8
HETATM    8  C   UNL     1      43.390 -17.527   3.348  1.00  0.00     0.034 A 
HETATM    9  C   UNL     1      43.165 -18.119   2.093  1.00  0.00     0.031 A 
HETATM   10  C   UNL     1      43.485 -19.459   1.849  1.00  0.00     0.021 A 
HETATM   11  C   UNL     1      44.040 -20.229   2.867  1.00  0.00     0.011 A 
HETATM   12 BR   UNL     1      44.470 -22.040   2.549  1.00  0.00    -0.051 Br
HETATM   13  C   UNL     1      44.274 -19.669   4.117  1.00  0.00     0.021 A 
HETATM   14  C   UNL     1      43.946 -18.329   4.353  1.00  0.00     0.031 A 
ENDBRANCH   6   8
ENDBRANCH   3   6
BRANCH   1  15
HETATM   15  C   UNL     1      39.070 -13.544   1.579  1.00  0.00     0.302 C 
HETATM   16  O   UNL     1      38.583 -12.660   2.271  1.00  0.00    -0.259 OA
BRANCH  15  17
HETATM   17  O   UNL     1      38.433 -14.133   0.521  1.00  0.00    -0.317 OA
BRANCH  17  18
HETATM   18  C   UNL     1      38.071 -13.257  -0.556  1.00  0.00     0.174 C 
HETATM   19  C   UNL     1      38.288 -13.953  -1.888  1.00  0.00     0.034 C 
ENDBRANCH  17  18
ENDBRANCH  15  17
ENDBRANCH   1  15
BRANCH   5  20
HETATM   20  C   UNL     1      41.788 -13.037   0.011  1.00  0.00     0.129 A 
HETATM   21  N   UNL     1      41.815 -13.480  -1.227  1.00  0.00    -0.238 NA
HETATM   22  C   UNL     1      42.022 -12.429  -2.103  1.00  0.00     0.075 A 
HETATM   23  C   UNL     1      42.079 -12.522  -3.509  1.00  0.00     0.033 A 
HETATM   24  C   UNL     1      42.188 -11.177  -1.508  1.00  0.00     0.035 A 
HETATM   25  C   UNL     1      42.297 -11.370  -4.275  1.00  0.00     0.002 A 
HETATM   26  C   UNL     1      42.460 -10.134  -3.658  1.00  0.00     0.002 A 
HETATM   27  C   UNL     1      42.409 -10.016  -2.266  1.00  0.00     0.021 A 
HETATM   28  S   UNL     1      42.074 -11.353   0.198  1.00  0.00    -0.066 SA
ENDBRANCH   5  20
TORSDOF 6
ENDMDL
MODEL 6
REMARK VINA RESULT:      -7.1      5.768      9.514
REMARK  6 active torsions:
REMARK  status: ('A' for Active; 'I' for Inactive)
REMARK    1  A    between atoms: C_2  and  O_3 
REMARK    2  A    between atoms: O_3  and  C_4 
REMARK    3  A    between atoms: C_4  and  C_6 
REMARK    4  A    between atoms: C_8  and  N_9 
REMARK    5  A    between atoms: N_9  and  C_10 
REMARK    6  A    between atoms: C_18  and  C_19 
ROOT
HETATM    1  C   UNL     1      40.655 -13.750   2.544  1.00  0.00     0.115 A 
HETATM    2  S   UNL     1      40.825 -14.966   3.747  1.00  0.00    -0.043 SA
HETATM    3  C   UNL     1      42.441 -15.275   3.229  1.00  0.00     0.172 A 
HETATM    4  N   UNL     1      42.818 -14.552   2.201  1.00  0.00    -0.220 NA
HETATM    5  C   UNL     1      41.810 -13.688   1.791  1.00  0.00     0.118 A 
ENDROOT
BRANCH   3   6
HETATM    6  N   UNL     1      43.178 -16.181   3.911  1.00  0.00    -0.335 N 
HETATM    7  H   UNL     1      43.605 -15.863   4.772  1.00  0.00     0.168 HD
BRANCH   6   8
HETATM    8  C   UNL     1      43.512 -17.499   3.551  1.00  0.00     0.034 A 
HETATM    9  C   UNL     1      43.256 -17.917   2.233  1.00  0.00     0.031 A 
HETATM   10  C   UNL     1      43.520 -19.227   1.819  1.00  0.00     0.021 A 
HETATM   11  C   UNL     1      44.048 -20.141   2.724  1.00  0.00     0.011 A 
HETATM   12 BR   UNL     1      44.402 -21.914   2.175  1.00  0.00    -0.051 Br
HETATM   13  C   UNL     1      44.313 -19.755   4.032  1.00  0.00     0.021 A 
HETATM   14  C   UNL     1      44.042 -18.444   4.440  1.00  0.00     0.031 A 
ENDBRANCH   6   8
ENDBRANCH   3   6
BRANCH   1  15
HETATM   15  C   UNL     1      39.473 -12.931   2.507  1.00  0.00     0.302 C 
HETATM   16  O   UNL     1      38.467 -13.154   1.845  1.00  0.00    -0.259 OA
BRANCH  15  17
HETATM   17  O   UNL     1      39.660 -11.812   3.270  1.00  0.00    -0.317 OA
BRANCH  17  18
HETATM   18  C   UNL     1      38.466 -11.143   3.701  1.00  0.00     0.174 C 
HETATM   19  C   UNL     1      38.811 -10.060   4.708  1.00  0.00     0.034 C 
ENDBRANCH  17  18
ENDBRANCH  15  17
ENDBRANCH   1  15
BRANCH   5  20
HETATM   20  C   UNL     1      42.008 -12.797   0.593  1.00  0.00     0.129 A 
HETATM   21  N   UNL     1      42.569 -11.611   0.675  1.00  0.00    -0.238 NA
HETATM   22  C   UNL     1      42.629 -11.026  -0.578  1.00  0.00     0.075 A 
HETATM   23  C   UNL     1      43.191  -9.769  -0.879  1.00  0.00     0.033 A 
HETATM   24  C   UNL     1      42.071 -11.775  -1.615  1.00  0.00     0.035 A 
HETATM   25  C   UNL     1      43.182  -9.299  -2.197  1.00  0.00     0.002 A 
HETATM   26  C   UNL     1      42.619 -10.064  -3.215  1.00  0.00     0.002 A 
HETATM   27  C   UNL     1      42.054 -11.313  -2.941  1.00  0.00     0.021 A 
HETATM   28  S   UNL     1      41.464 -13.249  -0.973  1.00  0.00    -0.066 SA
ENDBRANCH   5  20
TORSDOF 6
ENDMDL
MODEL 7
REMARK VINA RESULT:      -7.1      5.555      8.427
REMARK  6 active torsions:
REMARK  status: ('A' for Active; 'I' for Inactive)
REMARK    1  A    between atoms: C_2  and  O_3 
REMARK    2  A    between atoms: O_3  and  C_4 
REMARK    3  A    between atoms: C_4  and  C_6 
REMARK    4  A    between atoms: C_8  and  N_9 
REMARK    5  A    between atoms: N_9  and  C_10 
REMARK    6  A    between atoms: C_18  and  C_19 
ROOT
HETATM    1  C   UNL     1      42.435 -14.335   2.107  1.00  0.00     0.115 A 
HETATM    2  S   UNL     1      41.720 -13.328   0.912  1.00  0.00    -0.043 SA
HETATM    3  C   UNL     1      41.240 -14.716   0.007  1.00  0.00     0.172 A 
HETATM    4  N   UNL     1      41.623 -15.854   0.536  1.00  0.00    -0.220 NA
HETATM    5  C   UNL     1      42.314 -15.655   1.724  1.00  0.00     0.118 A 
ENDROOT
BRANCH   3   6
HETATM    6  N   UNL     1      40.510 -14.537  -1.118  1.00  0.00    -0.335 N 
HETATM    7  H   UNL     1      39.814 -15.242  -1.324  1.00  0.00     0.168 HD
BRANCH   6   8
HETATM    8  C   UNL     1      40.635 -13.540  -2.103  1.00  0.00     0.034 A 
HETATM    9  C   UNL     1      39.484 -12.829  -2.484  1.00  0.00     0.031 A 
HETATM   10  C   UNL     1      39.525 -11.857  -3.489  1.00  0.00     0.021 A 
HETATM   11  C   UNL     1      40.729 -11.582  -4.129  1.00  0.00     0.011 A 
HETATM   12 BR   UNL     1      40.794 -10.275  -5.492  1.00  0.00    -0.051 Br
HETATM   13  C   UNL     1      41.883 -12.268  -3.772  1.00  0.00     0.021 A 
HETATM   14  C   UNL     1      41.832 -13.243  -2.768  1.00  0.00     0.031 A 
ENDBRANCH   6   8
ENDBRANCH   3   6
BRANCH   1  15
HETATM   15  C   UNL     1      42.956 -13.759   3.318  1.00  0.00     0.302 C 
HETATM   16  O   UNL     1      44.139 -13.651   3.610  1.00  0.00    -0.259 OA
BRANCH  15  17
HETATM   17  O   UNL     1      41.924 -13.410   4.146  1.00  0.00    -0.317 OA
BRANCH  17  18
HETATM   18  C   UNL     1      41.995 -13.924   5.483  1.00  0.00     0.174 C 
HETATM   19  C   UNL     1      40.758 -14.751   5.789  1.00  0.00     0.034 C 
ENDBRANCH  17  18
ENDBRANCH  15  17
ENDBRANCH   1  15
BRANCH   5  20
HETATM   20  C   UNL     1      42.891 -16.824   2.478  1.00  0.00     0.129 A 
HETATM   21  N   UNL     1      42.712 -16.994   3.769  1.00  0.00    -0.238 NA
HETATM   22  C   UNL     1      43.343 -18.154   4.188  1.00  0.00     0.075 A 
HETATM   23  C   UNL     1      43.341 -18.670   5.499  1.00  0.00     0.033 A 
HETATM   24  C   UNL     1      44.037 -18.849   3.195  1.00  0.00     0.035 A 
HETATM   25  C   UNL     1      44.025 -19.859   5.780  1.00  0.00     0.002 A 
HETATM   26  C   UNL     1      44.710 -20.534   4.775  1.00  0.00     0.002 A 
HETATM   27  C   UNL     1      44.728 -20.040   3.467  1.00  0.00     0.021 A 
HETATM   28  S   UNL     1      43.875 -18.004   1.708  1.00  0.00    -0.066 SA
ENDBRANCH   5  20
TORSDOF 6
ENDMDL
MODEL 8
REMARK VINA RESULT:      -6.8      5.114      7.896
REMARK  6 active torsions:
REMARK  status: ('A' for Active; 'I' for Inactive)
REMARK    1  A    between atoms: C_2  and  O_3 
REMARK    2  A    between atoms: O_3  and  C_4 
REMARK    3  A    between atoms: C_4  and  C_6 
REMARK    4  A    between atoms: C_8  and  N_9 
REMARK    5  A    between atoms: N_9  and  C_10 
REMARK    6  A    between atoms: C_18  and  C_19 
ROOT
HETATM    1  C   UNL     1      41.162 -14.749   3.304  1.00  0.00     0.115 A 
HETATM    2  S   UNL     1      40.442 -13.745   2.109  1.00  0.00    -0.043 SA
HETATM    3  C   UNL     1      40.525 -15.028   0.959  1.00  0.00     0.172 A 
HETATM    4  N   UNL     1      41.090 -16.119   1.418  1.00  0.00    -0.220 NA
HETATM    5  C   UNL     1      41.469 -15.973   2.747  1.00  0.00     0.118 A 
ENDROOT
BRANCH   3   6
HETATM    6  N   UNL     1      39.998 -14.831  -0.272  1.00  0.00    -0.335 N 
HETATM    7  H   UNL     1      39.192 -15.394  -0.515  1.00  0.00     0.168 HD
BRANCH   6   8
HETATM    8  C   UNL     1      40.463 -14.004  -1.310  1.00  0.00     0.034 A 
HETATM    9  C   UNL     1      41.843 -13.749  -1.394  1.00  0.00     0.031 A 
HETATM   10  C   UNL     1      42.370 -12.898  -2.373  1.00  0.00     0.021 A 
HETATM   11  C   UNL     1      41.516 -12.290  -3.287  1.00  0.00     0.011 A 
HETATM   12 BR   UNL     1      42.217 -11.137  -4.608  1.00  0.00    -0.051 Br
HETATM   13  C   UNL     1      40.147 -12.526  -3.228  1.00  0.00     0.021 A 
HETATM   14  C   UNL     1      39.628 -13.374  -2.243  1.00  0.00     0.031 A 
ENDBRANCH   6   8
ENDBRANCH   3   6
BRANCH   1  15
HETATM   15  C   UNL     1      41.275 -14.287   4.662  1.00  0.00     0.302 C 
HETATM   16  O   UNL     1      42.314 -13.977   5.229  1.00  0.00    -0.259 OA
BRANCH  15  17
HETATM   17  O   UNL     1      40.047 -14.314   5.264  1.00  0.00    -0.317 OA
BRANCH  17  18
HETATM   18  C   UNL     1      39.739 -13.192   6.105  1.00  0.00     0.174 C 
HETATM   19  C   UNL     1      39.091 -12.090   5.285  1.00  0.00     0.034 C 
ENDBRANCH  17  18
ENDBRANCH  15  17
ENDBRANCH   1  15
BRANCH   5  20
HETATM   20  C   UNL     1      42.183 -17.089   3.464  1.00  0.00     0.129 A 
HETATM   21  N   UNL     1      43.080 -17.850   2.878  1.00  0.00    -0.238 NA
HETATM   22  C   UNL     1      43.576 -18.779   3.778  1.00  0.00     0.075 A 
HETATM   23  C   UNL     1      44.573 -19.739   3.512  1.00  0.00     0.033 A 
HETATM   24  C   UNL     1      43.013 -18.734   5.055  1.00  0.00     0.035 A 
HETATM   25  C   UNL     1      44.978 -20.620   4.521  1.00  0.00     0.002 A 
HETATM   26  C   UNL     1      44.403 -20.556   5.786  1.00  0.00     0.002 A 
HETATM   27  C   UNL     1      43.411 -19.614   6.074  1.00  0.00     0.021 A 
HETATM   28  S   UNL     1      41.836 -17.483   5.101  1.00  0.00    -0.066 SA
ENDBRANCH   5  20
TORSDOF 6
ENDMDL
MODEL 9
REMARK VINA RESULT:      -6.8      6.791     10.337
REMARK  6 active torsions:
REMARK  status: ('A' for Active; 'I' for Inactive)
REMARK    1  A    between atoms: C_2  and  O_3 
REMARK    2  A    between atoms: O_3  and  C_4 
REMARK    3  A    between atoms: C_4  and  C_6 
REMARK    4  A    between atoms: C_8  and  N_9 
REMARK    5  A    between atoms: N_9  and  C_10 
REMARK    6  A    between atoms: C_18  and  C_19 
ROOT
HETATM    1  C   UNL     1      39.983 -13.884  -0.084  1.00  0.00     0.115 A 
HETATM    2  S   UNL     1      40.099 -15.054   1.170  1.00  0.00    -0.043 SA
HETATM    3  C   UNL     1      41.695 -14.518   1.543  1.00  0.00     0.172 A 
HETATM    4  N   UNL     1      42.133 -13.561   0.760  1.00  0.00    -0.220 NA
HETATM    5  C   UNL     1      41.176 -13.197  -0.180  1.00  0.00     0.118 A 
ENDROOT
BRANCH   3   6
HETATM    6  N   UNL     1      42.340 -15.081   2.590  1.00  0.00    -0.335 N 
HETATM    7  H   UNL     1      42.522 -14.483   3.386  1.00  0.00     0.168 HD
BRANCH   6   8
HETATM    8  C   UNL     1      42.877 -16.377   2.704  1.00  0.00     0.034 A 
HETATM    9  C   UNL     1      43.503 -16.942   1.579  1.00  0.00     0.031 A 
HETATM   10  C   UNL     1      44.018 -18.243   1.607  1.00  0.00     0.021 A 
HETATM   11  C   UNL     1      43.914 -18.999   2.770  1.00  0.00     0.011 A 
HETATM   12 BR   UNL     1      44.601 -20.758   2.815  1.00  0.00    -0.051 Br
HETATM   13  C   UNL     1      43.301 -18.465   3.897  1.00  0.00     0.021 A 
HETATM   14  C   UNL     1      42.784 -17.164   3.859  1.00  0.00     0.031 A 
ENDBRANCH   6   8
ENDBRANCH   3   6
BRANCH   1  15
HETATM   15  C   UNL     1      38.738 -13.694  -0.781  1.00  0.00     0.302 C 
HETATM   16  O   UNL     1      37.806 -12.995  -0.406  1.00  0.00    -0.259 OA
BRANCH  15  17
HETATM   17  O   UNL     1      38.712 -14.474  -1.904  1.00  0.00    -0.317 OA
BRANCH  17  18
HETATM   18  C   UNL     1      38.048 -13.908  -3.043  1.00  0.00     0.174 C 
HETATM   19  C   UNL     1      37.363 -15.002  -3.843  1.00  0.00     0.034 C 
ENDBRANCH  17  18
ENDBRANCH  15  17
ENDBRANCH   1  15
BRANCH   5  20
HETATM   20  C   UNL     1      41.482 -12.148  -1.216  1.00  0.00     0.129 A 
HETATM   21  N   UNL     1      41.764 -12.445  -2.466  1.00  0.00    -0.238 NA
HETATM   22  C   UNL     1      41.990 -11.287  -3.190  1.00  0.00     0.075 A 
HETATM   23  C   UNL     1      42.288 -11.216  -4.566  1.00  0.00     0.033 A 
HETATM   24  C   UNL     1      41.911 -10.100  -2.460  1.00  0.00     0.035 A 
HETATM   25  C   UNL     1      42.496  -9.970  -5.169  1.00  0.00     0.002 A 
HETATM   26  C   UNL     1      42.411  -8.800  -4.421  1.00  0.00     0.002 A 
HETATM   27  C   UNL     1      42.119  -8.845  -3.055  1.00  0.00     0.021 A 
HETATM   28  S   UNL     1      41.538 -10.476  -0.825  1.00  0.00    -0.066 SA
ENDBRANCH   5  20
TORSDOF 6
ENDMDL
MODEL 10
REMARK VINA RESULT:      -6.8      3.164      4.082
REMARK  6 active torsions:
REMARK  status: ('A' for Active; 'I' for Inactive)
REMARK    1  A    between atoms: C_2  and  O_3 
REMARK    2  A    between atoms: O_3  and  C_4 
REMARK    3  A    between atoms: C_4  and  C_6 
REMARK    4  A    between atoms: C_8  and  N_9 
REMARK    5  A    between atoms: N_9  and  C_10 
REMARK    6  A    between atoms: C_18  and  C_19 
ROOT
HETATM    1  C   UNL     1      40.045 -13.520   3.180  1.00  0.00     0.115 A 
HETATM    2  S   UNL     1      39.530 -12.019   3.841  1.00  0.00    -0.043 SA
HETATM    3  C   UNL     1      40.843 -12.042   4.958  1.00  0.00     0.172 A 
HETATM    4  N   UNL     1      41.593 -13.115   4.877  1.00  0.00    -0.220 NA
HETATM    5  C   UNL     1      41.146 -13.972   3.879  1.00  0.00     0.118 A 
ENDROOT
BRANCH   3   6
HETATM    6  N   UNL     1      41.012 -10.983   5.783  1.00  0.00    -0.335 N 
HETATM    7  H   UNL     1      41.315 -10.118   5.353  1.00  0.00     0.168 HD
BRANCH   6   8
HETATM    8  C   UNL     1      40.906 -10.928   7.185  1.00  0.00     0.034 A 
HETATM    9  C   UNL     1      39.668 -11.242   7.773  1.00  0.00     0.031 A 
HETATM   10  C   UNL     1      39.477 -11.164   9.157  1.00  0.00     0.021 A 
HETATM   11  C   UNL     1      40.531 -10.769   9.975  1.00  0.00     0.011 A 
HETATM   12 BR   UNL     1      40.281 -10.655  11.844  1.00  0.00    -0.051 Br
HETATM   13  C   UNL     1      41.765 -10.454   9.420  1.00  0.00     0.021 A 
HETATM   14  C   UNL     1      41.946 -10.531   8.034  1.00  0.00     0.031 A 
ENDBRANCH   6   8
ENDBRANCH   3   6
BRANCH   1  15
HETATM   15  C   UNL     1      39.395 -14.057   2.014  1.00  0.00     0.302 C 
HETATM   16  O   UNL     1      38.724 -15.079   1.975  1.00  0.00    -0.259 OA
BRANCH  15  17
HETATM   17  O   UNL     1      39.698 -13.292   0.921  1.00  0.00    -0.317 OA
BRANCH  17  18
HETATM   18  C   UNL     1      39.741 -13.985  -0.334  1.00  0.00     0.174 C 
HETATM   19  C   UNL     1      41.138 -14.525  -0.582  1.00  0.00     0.034 C 
ENDBRANCH  17  18
ENDBRANCH  15  17
ENDBRANCH   1  15
BRANCH   5  20
HETATM   20  C   UNL     1      41.831 -15.292   3.641  1.00  0.00     0.129 A 
HETATM   21  N   UNL     1      42.438 -15.585   2.512  1.00  0.00    -0.238 NA
HETATM   22  C   UNL     1      42.984 -16.855   2.582  1.00  0.00     0.075 A 
HETATM   23  C   UNL     1      43.732 -17.491   1.571  1.00  0.00     0.033 A 
HETATM   24  C   UNL     1      42.752 -17.542   3.775  1.00  0.00     0.035 A 
HETATM   25  C   UNL     1      44.225 -18.784   1.779  1.00  0.00     0.002 A 
HETATM   26  C   UNL     1      43.982 -19.449   2.977  1.00  0.00     0.002 A 
HETATM   27  C   UNL     1      43.241 -18.840   3.994  1.00  0.00     0.021 A 
HETATM   28  S   UNL     1      41.824 -16.542   4.821  1.00  0.00    -0.066 SA
ENDBRANCH   5  20
TORSDOF 6
ENDMDL
