MODEL 1
REMARK VINA RESULT:      -9.4      0.000      0.000
REMARK  5 active torsions:
REMARK  status: ('A' for Active; 'I' for Inactive)
REMARK    1  A    between atoms: C_3  and  N_4 
REMARK       I    between atoms: N_4  and  C_5 
REMARK    2  A    between atoms: C_5  and  C_6 
REMARK    3  A    between atoms: C_14  and  C_15 
REMARK    4  A    between atoms: C_24  and  O_25 
REMARK    5  A    between atoms: C_27  and  O_28 
ROOT
HETATM    1  C   UNL     1      42.115 -16.677   2.677  1.00  0.00     0.047 A 
HETATM    2  C   UNL     1      42.466 -15.939   3.835  1.00  0.00     0.008 A 
HETATM    3  C   UNL     1      43.370 -16.568   4.709  1.00  0.00     0.068 A 
HETATM    4  C   UNL     1      43.792 -15.897   5.848  1.00  0.00     0.032 A 
HETATM    5  C   UNL     1      43.325 -14.623   6.175  1.00  0.00     0.002 A 
HETATM    6  C   UNL     1      42.398 -14.005   5.352  1.00  0.00     0.001 A 
HETATM    7  C   UNL     1      41.965 -14.657   4.199  1.00  0.00     0.015 A 
HETATM    8  N   UNL     1      43.836 -17.810   4.506  1.00  0.00    -0.248 NA
HETATM    9  C   UNL     1      43.426 -18.537   3.438  1.00  0.00     0.068 A 
HETATM   10  C   UNL     1      42.572 -17.986   2.496  1.00  0.00     0.050 A 
ENDROOT
BRANCH   1  11
HETATM   11  C   UNL     1      41.210 -16.139   1.621  1.00  0.00     0.257 C 
HETATM   12  N   UNL     1      41.851 -15.676   0.494  1.00  0.00    -0.322 N 
HETATM   13  H   UNL     1      42.788 -16.041   0.357  1.00  0.00     0.169 HD
HETATM   14  O   UNL     1      40.002 -16.229   1.797  1.00  0.00    -0.267 OA
BRANCH  12  15
HETATM   15  C   UNL     1      41.405 -14.775  -0.504  1.00  0.00     0.043 A 
HETATM   16  C   UNL     1      41.437 -13.371  -0.442  1.00  0.00    -0.032 A 
HETATM   17  C   UNL     1      41.907 -12.563   0.735  1.00  0.00     0.050 C 
HETATM   18  C   UNL     1      41.035 -12.631  -1.577  1.00  0.00     0.048 A 
HETATM   19  C   UNL     1      40.661 -13.253  -2.771  1.00  0.00     0.102 A 
HETATM   20  C   UNL     1      40.621 -14.650  -2.832  1.00  0.00     0.103 A 
HETATM   21  C   UNL     1      41.001 -15.393  -1.707  1.00  0.00     0.069 A 
BRANCH  19  22
HETATM   22  O   UNL     1      40.298 -12.571  -3.906  1.00  0.00    -0.353 OA
HETATM   23  C   UNL     1      41.110 -11.456  -4.256  1.00  0.00     0.210 C 
ENDBRANCH  19  22
BRANCH  20  24
HETATM   24  O   UNL     1      40.244 -15.192  -4.035  1.00  0.00    -0.353 OA
HETATM   25  C   UNL     1      39.097 -16.029  -4.052  1.00  0.00     0.210 C 
ENDBRANCH  20  24
ENDBRANCH  12  15
ENDBRANCH   1  11
BRANCH   9  26
HETATM   26  C   UNL     1      43.922 -19.935   3.393  1.00  0.00    -0.007 A 
HETATM   27  C   UNL     1      44.459 -20.539   4.550  1.00  0.00     0.014 A 
HETATM   28  C   UNL     1      44.913 -21.862   4.553  1.00  0.00     0.001 A 
HETATM   29  C   UNL     1      44.844 -22.621   3.391  1.00  0.00     0.000 A 
HETATM   30  C   UNL     1      44.328 -22.054   2.230  1.00  0.00     0.001 A 
HETATM   31  C   UNL     1      43.876 -20.728   2.231  1.00  0.00     0.014 A 
ENDBRANCH   9  26
TORSDOF 5
ENDMDL
MODEL 2
REMARK VINA RESULT:      -8.9      1.653      2.039
REMARK  5 active torsions:
REMARK  status: ('A' for Active; 'I' for Inactive)
REMARK    1  A    between atoms: C_3  and  N_4 
REMARK       I    between atoms: N_4  and  C_5 
REMARK    2  A    between atoms: C_5  and  C_6 
REMARK    3  A    between atoms: C_14  and  C_15 
REMARK    4  A    between atoms: C_24  and  O_25 
REMARK    5  A    between atoms: C_27  and  O_28 
ROOT
HETATM    1  C   UNL     1      42.996 -15.706   3.242  1.00  0.00     0.047 A 
HETATM    2  C   UNL     1      43.328 -15.372   4.578  1.00  0.00     0.008 A 
HETATM    3  C   UNL     1      43.941 -16.392   5.327  1.00  0.00     0.068 A 
HETATM    4  C   UNL     1      44.329 -16.133   6.634  1.00  0.00     0.032 A 
HETATM    5  C   UNL     1      44.104 -14.899   7.245  1.00  0.00     0.002 A 
HETATM    6  C   UNL     1      43.460 -13.896   6.541  1.00  0.00     0.001 A 
HETATM    7  C   UNL     1      43.067 -14.130   5.224  1.00  0.00     0.015 A 
HETATM    8  N   UNL     1      44.153 -17.625   4.844  1.00  0.00    -0.248 NA
HETATM    9  C   UNL     1      43.754 -17.955   3.592  1.00  0.00     0.068 A 
HETATM   10  C   UNL     1      43.183 -17.006   2.760  1.00  0.00     0.050 A 
ENDROOT
BRANCH   1  11
HETATM   11  C   UNL     1      42.389 -14.729   2.292  1.00  0.00     0.257 C 
HETATM   12  N   UNL     1      41.223 -15.155   1.695  1.00  0.00    -0.322 N 
HETATM   13  H   UNL     1      40.738 -15.897   2.188  1.00  0.00     0.169 HD
HETATM   14  O   UNL     1      42.910 -13.627   2.187  1.00  0.00    -0.267 OA
BRANCH  12  15
HETATM   15  C   UNL     1      40.594 -14.714   0.504  1.00  0.00     0.043 A 
HETATM   16  C   UNL     1      39.252 -14.323   0.360  1.00  0.00    -0.032 A 
HETATM   17  C   UNL     1      38.214 -14.356   1.448  1.00  0.00     0.050 C 
HETATM   18  C   UNL     1      38.820 -13.818  -0.887  1.00  0.00     0.048 A 
HETATM   19  C   UNL     1      39.700 -13.647  -1.959  1.00  0.00     0.102 A 
HETATM   20  C   UNL     1      41.035 -14.042  -1.820  1.00  0.00     0.103 A 
HETATM   21  C   UNL     1      41.468 -14.559  -0.593  1.00  0.00     0.069 A 
BRANCH  19  22
HETATM   22  O   UNL     1      39.329 -13.127  -3.174  1.00  0.00    -0.353 OA
HETATM   23  C   UNL     1      37.940 -13.167  -3.479  1.00  0.00     0.210 C 
ENDBRANCH  19  22
BRANCH  20  24
HETATM   24  O   UNL     1      41.841 -13.845  -2.913  1.00  0.00    -0.353 OA
HETATM   25  C   UNL     1      42.840 -12.841  -2.824  1.00  0.00     0.210 C 
ENDBRANCH  20  24
ENDBRANCH  12  15
ENDBRANCH   1  11
BRANCH   9  26
HETATM   26  C   UNL     1      43.939 -19.381   3.221  1.00  0.00    -0.007 A 
HETATM   27  C   UNL     1      44.610 -20.263   4.094  1.00  0.00     0.014 A 
HETATM   28  C   UNL     1      44.781 -21.617   3.791  1.00  0.00     0.001 A 
HETATM   29  C   UNL     1      44.286 -22.129   2.598  1.00  0.00     0.000 A 
HETATM   30  C   UNL     1      43.626 -21.285   1.710  1.00  0.00     0.001 A 
HETATM   31  C   UNL     1      43.458 -19.929   2.017  1.00  0.00     0.014 A 
ENDBRANCH   9  26
TORSDOF 5
ENDMDL
MODEL 3
REMARK VINA RESULT:      -8.8      1.333      2.398
REMARK  5 active torsions:
REMARK  status: ('A' for Active; 'I' for Inactive)
REMARK    1  A    between atoms: C_3  and  N_4 
REMARK       I    between atoms: N_4  and  C_5 
REMARK    2  A    between atoms: C_5  and  C_6 
REMARK    3  A    between atoms: C_14  and  C_15 
REMARK    4  A    between atoms: C_24  and  O_25 
REMARK    5  A    between atoms: C_27  and  O_28 
ROOT
HETATM    1  C   UNL     1      42.026 -15.901   1.916  1.00  0.00     0.047 A 
HETATM    2  C   UNL     1      42.304 -15.164   3.094  1.00  0.00     0.008 A 
HETATM    3  C   UNL     1      43.101 -15.819   4.049  1.00  0.00     0.068 A 
HETATM    4  C   UNL     1      43.449 -15.151   5.215  1.00  0.00     0.032 A 
HETATM    5  C   UNL     1      43.008 -13.856   5.489  1.00  0.00     0.002 A 
HETATM    6  C   UNL     1      42.184 -13.210   4.583  1.00  0.00     0.001 A 
HETATM    7  C   UNL     1      41.827 -13.858   3.401  1.00  0.00     0.015 A 
HETATM    8  N   UNL     1      43.531 -17.081   3.900  1.00  0.00    -0.248 NA
HETATM    9  C   UNL     1      43.186 -17.804   2.806  1.00  0.00     0.068 A 
HETATM   10  C   UNL     1      42.442 -17.231   1.788  1.00  0.00     0.050 A 
ENDROOT
BRANCH   1  11
HETATM   11  C   UNL     1      41.240 -15.340   0.780  1.00  0.00     0.257 C 
HETATM   12  N   UNL     1      41.977 -15.070  -0.352  1.00  0.00    -0.322 N 
HETATM   13  H   UNL     1      42.857 -15.570  -0.416  1.00  0.00     0.169 HD
HETATM   14  O   UNL     1      40.027 -15.248   0.908  1.00  0.00    -0.267 OA
BRANCH  12  15
HETATM   15  C   UNL     1      41.694 -14.208  -1.440  1.00  0.00     0.043 A 
HETATM   16  C   UNL     1      41.025 -14.550  -2.629  1.00  0.00    -0.032 A 
HETATM   17  C   UNL     1      40.531 -15.925  -2.985  1.00  0.00     0.050 C 
HETATM   18  C   UNL     1      40.746 -13.533  -3.568  1.00  0.00     0.048 A 
HETATM   19  C   UNL     1      41.066 -12.194  -3.326  1.00  0.00     0.102 A 
HETATM   20  C   UNL     1      41.739 -11.853  -2.148  1.00  0.00     0.103 A 
HETATM   21  C   UNL     1      42.036 -12.857  -1.217  1.00  0.00     0.069 A 
BRANCH  19  22
HETATM   22  O   UNL     1      40.781 -11.171  -4.197  1.00  0.00    -0.353 OA
HETATM   23  C   UNL     1      39.403 -10.865  -4.378  1.00  0.00     0.210 C 
ENDBRANCH  19  22
BRANCH  20  24
HETATM   24  O   UNL     1      42.022 -10.521  -1.977  1.00  0.00    -0.353 OA
HETATM   25  C   UNL     1      43.352 -10.169  -1.625  1.00  0.00     0.210 C 
ENDBRANCH  20  24
ENDBRANCH  12  15
ENDBRANCH   1  11
BRANCH   9  26
HETATM   26  C   UNL     1      43.626 -19.222   2.817  1.00  0.00    -0.007 A 
HETATM   27  C   UNL     1      44.363 -19.731   3.906  1.00  0.00     0.014 A 
HETATM   28  C   UNL     1      44.773 -21.067   3.965  1.00  0.00     0.001 A 
HETATM   29  C   UNL     1      44.456 -21.935   2.927  1.00  0.00     0.000 A 
HETATM   30  C   UNL     1      43.737 -21.463   1.833  1.00  0.00     0.001 A 
HETATM   31  C   UNL     1      43.330 -20.124   1.778  1.00  0.00     0.014 A 
ENDBRANCH   9  26
TORSDOF 5
ENDMDL
MODEL 4
REMARK VINA RESULT:      -8.6      1.139      4.467
REMARK  5 active torsions:
REMARK  status: ('A' for Active; 'I' for Inactive)
REMARK    1  A    between atoms: C_3  and  N_4 
REMARK       I    between atoms: N_4  and  C_5 
REMARK    2  A    between atoms: C_5  and  C_6 
REMARK    3  A    between atoms: C_14  and  C_15 
REMARK    4  A    between atoms: C_24  and  O_25 
REMARK    5  A    between atoms: C_27  and  O_28 
ROOT
HETATM    1  C   UNL     1      42.333 -17.208   2.481  1.00  0.00     0.047 A 
HETATM    2  C   UNL     1      43.039 -18.422   2.667  1.00  0.00     0.008 A 
HETATM    3  C   UNL     1      43.774 -18.523   3.861  1.00  0.00     0.068 A 
HETATM    4  C   UNL     1      44.465 -19.695   4.135  1.00  0.00     0.032 A 
HETATM    5  C   UNL     1      44.481 -20.772   3.249  1.00  0.00     0.002 A 
HETATM    6  C   UNL     1      43.803 -20.675   2.046  1.00  0.00     0.001 A 
HETATM    7  C   UNL     1      43.095 -19.511   1.752  1.00  0.00     0.015 A 
HETATM    8  N   UNL     1      43.860 -17.523   4.752  1.00  0.00    -0.248 NA
HETATM    9  C   UNL     1      43.248 -16.336   4.520  1.00  0.00     0.068 A 
HETATM   10  C   UNL     1      42.463 -16.156   3.394  1.00  0.00     0.050 A 
ENDROOT
BRANCH   1  11
HETATM   11  C   UNL     1      41.462 -16.954   1.297  1.00  0.00     0.257 C 
HETATM   12  N   UNL     1      41.824 -15.861   0.540  1.00  0.00    -0.322 N 
HETATM   13  H   UNL     1      42.787 -15.563   0.656  1.00  0.00     0.169 HD
HETATM   14  O   UNL     1      40.576 -17.760   1.049  1.00  0.00    -0.267 OA
BRANCH  12  15
HETATM   15  C   UNL     1      41.064 -15.094  -0.377  1.00  0.00     0.043 A 
HETATM   16  C   UNL     1      40.542 -13.806  -0.164  1.00  0.00    -0.032 A 
HETATM   17  C   UNL     1      40.654 -13.023   1.115  1.00  0.00     0.050 C 
HETATM   18  C   UNL     1      39.886 -13.153  -1.231  1.00  0.00     0.048 A 
HETATM   19  C   UNL     1      39.790 -13.727  -2.501  1.00  0.00     0.102 A 
HETATM   20  C   UNL     1      40.302 -15.011  -2.714  1.00  0.00     0.103 A 
HETATM   21  C   UNL     1      40.938 -15.674  -1.657  1.00  0.00     0.069 A 
BRANCH  19  22
HETATM   22  O   UNL     1      39.193 -13.111  -3.574  1.00  0.00    -0.353 OA
HETATM   23  C   UNL     1      37.816 -12.786  -3.426  1.00  0.00     0.210 C 
ENDBRANCH  19  22
BRANCH  20  24
HETATM   24  O   UNL     1      40.171 -15.512  -3.985  1.00  0.00    -0.353 OA
HETATM   25  C   UNL     1      39.026 -16.301  -4.270  1.00  0.00     0.210 C 
ENDBRANCH  20  24
ENDBRANCH  12  15
ENDBRANCH   1  11
BRANCH   9  26
HETATM   26  C   UNL     1      43.519 -15.275   5.523  1.00  0.00    -0.007 A 
HETATM   27  C   UNL     1      42.838 -14.042   5.458  1.00  0.00     0.014 A 
HETATM   28  C   UNL     1      43.047 -13.029   6.398  1.00  0.00     0.001 A 
HETATM   29  C   UNL     1      43.951 -13.222   7.436  1.00  0.00     0.000 A 
HETATM   30  C   UNL     1      44.646 -14.424   7.526  1.00  0.00     0.001 A 
HETATM   31  C   UNL     1      44.435 -15.436   6.580  1.00  0.00     0.014 A 
ENDBRANCH   9  26
TORSDOF 5
ENDMDL
MODEL 5
REMARK VINA RESULT:      -8.5      1.934      2.701
REMARK  5 active torsions:
REMARK  status: ('A' for Active; 'I' for Inactive)
REMARK    1  A    between atoms: C_3  and  N_4 
REMARK       I    between atoms: N_4  and  C_5 
REMARK    2  A    between atoms: C_5  and  C_6 
REMARK    3  A    between atoms: C_14  and  C_15 
REMARK    4  A    between atoms: C_24  and  O_25 
REMARK    5  A    between atoms: C_27  and  O_28 
ROOT
HETATM    1  C   UNL     1      41.303 -16.104   2.425  1.00  0.00     0.047 A 
HETATM    2  C   UNL     1      41.807 -15.276   3.459  1.00  0.00     0.008 A 
HETATM    3  C   UNL     1      42.889 -15.801   4.188  1.00  0.00     0.068 A 
HETATM    4  C   UNL     1      43.463 -15.037   5.194  1.00  0.00     0.032 A 
HETATM    5  C   UNL     1      42.983 -13.770   5.530  1.00  0.00     0.002 A 
HETATM    6  C   UNL     1      41.889 -13.254   4.856  1.00  0.00     0.001 A 
HETATM    7  C   UNL     1      41.300 -14.001   3.837  1.00  0.00     0.015 A 
HETATM    8  N   UNL     1      43.387 -17.027   3.972  1.00  0.00    -0.248 NA
HETATM    9  C   UNL     1      42.840 -17.842   3.037  1.00  0.00     0.068 A 
HETATM   10  C   UNL     1      41.801 -17.398   2.236  1.00  0.00     0.050 A 
ENDROOT
BRANCH   1  11
HETATM   11  C   UNL     1      40.193 -15.683   1.522  1.00  0.00     0.257 C 
HETATM   12  N   UNL     1      40.590 -15.321   0.254  1.00  0.00    -0.322 N 
HETATM   13  H   UNL     1      41.493 -15.685  -0.031  1.00  0.00     0.169 HD
HETATM   14  O   UNL     1      39.046 -15.772   1.938  1.00  0.00    -0.267 OA
BRANCH  12  15
HETATM   15  C   UNL     1      39.930 -14.527  -0.716  1.00  0.00     0.043 A 
HETATM   16  C   UNL     1      40.050 -14.635  -2.113  1.00  0.00    -0.032 A 
HETATM   17  C   UNL     1      40.957 -15.593  -2.836  1.00  0.00     0.050 C 
HETATM   18  C   UNL     1      39.239 -13.818  -2.931  1.00  0.00     0.048 A 
HETATM   19  C   UNL     1      38.287 -12.948  -2.394  1.00  0.00     0.102 A 
HETATM   20  C   UNL     1      38.171 -12.832  -1.005  1.00  0.00     0.103 A 
HETATM   21  C   UNL     1      38.982 -13.626  -0.185  1.00  0.00     0.069 A 
BRANCH  19  22
HETATM   22  O   UNL     1      37.456 -12.163  -3.154  1.00  0.00    -0.353 OA
HETATM   23  C   UNL     1      36.569 -12.849  -4.030  1.00  0.00     0.210 C 
ENDBRANCH  19  22
BRANCH  20  24
HETATM   24  O   UNL     1      37.216 -11.959  -0.548  1.00  0.00    -0.353 OA
HETATM   25  C   UNL     1      37.038 -11.850   0.857  1.00  0.00     0.210 C 
ENDBRANCH  20  24
ENDBRANCH  12  15
ENDBRANCH   1  11
BRANCH   9  26
HETATM   26  C   UNL     1      43.406 -19.213   2.980  1.00  0.00    -0.007 A 
HETATM   27  C   UNL     1      43.117 -20.058   1.888  1.00  0.00     0.014 A 
HETATM   28  C   UNL     1      43.651 -21.347   1.786  1.00  0.00     0.001 A 
HETATM   29  C   UNL     1      44.494 -21.828   2.780  1.00  0.00     0.000 A 
HETATM   30  C   UNL     1      44.794 -21.024   3.875  1.00  0.00     0.001 A 
HETATM   31  C   UNL     1      44.255 -19.735   3.975  1.00  0.00     0.014 A 
ENDBRANCH   9  26
TORSDOF 5
ENDMDL
MODEL 6
REMARK VINA RESULT:      -8.4      2.255      2.955
REMARK  5 active torsions:
REMARK  status: ('A' for Active; 'I' for Inactive)
REMARK    1  A    between atoms: C_3  and  N_4 
REMARK       I    between atoms: N_4  and  C_5 
REMARK    2  A    between atoms: C_5  and  C_6 
REMARK    3  A    between atoms: C_14  and  C_15 
REMARK    4  A    between atoms: C_24  and  O_25 
REMARK    5  A    between atoms: C_27  and  O_28 
ROOT
HETATM    1  C   UNL     1      42.975 -15.555   3.467  1.00  0.00     0.047 A 
HETATM    2  C   UNL     1      43.368 -15.285   4.802  1.00  0.00     0.008 A 
HETATM    3  C   UNL     1      44.001 -16.343   5.477  1.00  0.00     0.068 A 
HETATM    4  C   UNL     1      44.448 -16.148   6.776  1.00  0.00     0.032 A 
HETATM    5  C   UNL     1      44.264 -14.940   7.451  1.00  0.00     0.002 A 
HETATM    6  C   UNL     1      43.601 -13.901   6.821  1.00  0.00     0.001 A 
HETATM    7  C   UNL     1      43.150 -14.071   5.513  1.00  0.00     0.015 A 
HETATM    8  N   UNL     1      44.178 -17.556   4.930  1.00  0.00    -0.248 NA
HETATM    9  C   UNL     1      43.721 -17.825   3.683  1.00  0.00     0.068 A 
HETATM   10  C   UNL     1      43.126 -16.834   2.921  1.00  0.00     0.050 A 
ENDROOT
BRANCH   1  11
HETATM   11  C   UNL     1      42.339 -14.530   2.590  1.00  0.00     0.257 C 
HETATM   12  N   UNL     1      41.016 -14.771   2.290  1.00  0.00    -0.322 N 
HETATM   13  H   UNL     1      40.539 -15.392   2.935  1.00  0.00     0.169 HD
HETATM   14  O   UNL     1      42.995 -13.544   2.286  1.00  0.00    -0.267 OA
BRANCH  12  15
HETATM   15  C   UNL     1      40.218 -14.280   1.227  1.00  0.00     0.043 A 
HETATM   16  C   UNL     1      40.311 -14.643  -0.128  1.00  0.00    -0.032 A 
HETATM   17  C   UNL     1      41.326 -15.589  -0.708  1.00  0.00     0.050 C 
HETATM   18  C   UNL     1      39.365 -14.121  -1.038  1.00  0.00     0.048 A 
HETATM   19  C   UNL     1      38.313 -13.301  -0.622  1.00  0.00     0.102 A 
HETATM   20  C   UNL     1      38.223 -12.933   0.725  1.00  0.00     0.103 A 
HETATM   21  C   UNL     1      39.166 -13.431   1.632  1.00  0.00     0.069 A 
BRANCH  19  22
HETATM   22  O   UNL     1      37.353 -12.802  -1.468  1.00  0.00    -0.353 OA
HETATM   23  C   UNL     1      37.816 -11.964  -2.520  1.00  0.00     0.210 C 
ENDBRANCH  19  22
BRANCH  20  24
HETATM   24  O   UNL     1      37.165 -12.126   1.062  1.00  0.00    -0.353 OA
HETATM   25  C   UNL     1      37.457 -10.831   1.565  1.00  0.00     0.210 C 
ENDBRANCH  20  24
ENDBRANCH  12  15
ENDBRANCH   1  11
BRANCH   9  26
HETATM   26  C   UNL     1      43.874 -19.234   3.241  1.00  0.00    -0.007 A 
HETATM   27  C   UNL     1      44.557 -20.165   4.052  1.00  0.00     0.014 A 
HETATM   28  C   UNL     1      44.699 -21.506   3.681  1.00  0.00     0.001 A 
HETATM   29  C   UNL     1      44.161 -21.955   2.482  1.00  0.00     0.000 A 
HETATM   30  C   UNL     1      43.488 -21.061   1.654  1.00  0.00     0.001 A 
HETATM   31  C   UNL     1      43.349 -19.718   2.028  1.00  0.00     0.014 A 
ENDBRANCH   9  26
TORSDOF 5
ENDMDL
MODEL 7
REMARK VINA RESULT:      -8.4      3.007      7.903
REMARK  5 active torsions:
REMARK  status: ('A' for Active; 'I' for Inactive)
REMARK    1  A    between atoms: C_3  and  N_4 
REMARK       I    between atoms: N_4  and  C_5 
REMARK    2  A    between atoms: C_5  and  C_6 
REMARK    3  A    between atoms: C_14  and  C_15 
REMARK    4  A    between atoms: C_24  and  O_25 
REMARK    5  A    between atoms: C_27  and  O_28 
ROOT
HETATM    1  C   UNL     1      40.711 -15.273   3.177  1.00  0.00     0.047 A 
HETATM    2  C   UNL     1      40.164 -14.080   3.711  1.00  0.00     0.008 A 
HETATM    3  C   UNL     1      39.554 -13.219   2.782  1.00  0.00     0.068 A 
HETATM    4  C   UNL     1      38.963 -12.046   3.230  1.00  0.00     0.032 A 
HETATM    5  C   UNL     1      38.978 -11.674   4.575  1.00  0.00     0.002 A 
HETATM    6  C   UNL     1      39.614 -12.485   5.500  1.00  0.00     0.001 A 
HETATM    7  C   UNL     1      40.208 -13.672   5.074  1.00  0.00     0.015 A 
HETATM    8  N   UNL     1      39.534 -13.465   1.463  1.00  0.00    -0.248 NA
HETATM    9  C   UNL     1      40.136 -14.569   0.956  1.00  0.00     0.068 A 
HETATM   10  C   UNL     1      40.722 -15.501   1.797  1.00  0.00     0.050 A 
ENDROOT
BRANCH   1  11
HETATM   11  C   UNL     1      41.347 -16.321   4.027  1.00  0.00     0.257 C 
HETATM   12  N   UNL     1      42.689 -16.518   3.790  1.00  0.00    -0.322 N 
HETATM   13  H   UNL     1      43.160 -15.742   3.337  1.00  0.00     0.169 HD
HETATM   14  O   UNL     1      40.668 -16.846   4.899  1.00  0.00    -0.267 OA
BRANCH  12  15
HETATM   15  C   UNL     1      43.514 -17.631   4.086  1.00  0.00     0.043 A 
HETATM   16  C   UNL     1      44.097 -17.935   5.329  1.00  0.00    -0.032 A 
HETATM   17  C   UNL     1      43.993 -17.091   6.569  1.00  0.00     0.050 C 
HETATM   18  C   UNL     1      44.816 -19.144   5.465  1.00  0.00     0.048 A 
HETATM   19  C   UNL     1      44.916 -20.066   4.420  1.00  0.00     0.102 A 
HETATM   20  C   UNL     1      44.342 -19.762   3.181  1.00  0.00     0.103 A 
HETATM   21  C   UNL     1      43.643 -18.558   3.031  1.00  0.00     0.069 A 
BRANCH  19  22
HETATM   22  O   UNL     1      45.573 -21.267   4.522  1.00  0.00    -0.353 OA
HETATM   23  C   UNL     1      44.936 -22.269   5.306  1.00  0.00     0.210 C 
ENDBRANCH  19  22
BRANCH  20  24
HETATM   24  O   UNL     1      44.480 -20.713   2.201  1.00  0.00    -0.353 OA
HETATM   25  C   UNL     1      43.333 -21.474   1.853  1.00  0.00     0.210 C 
ENDBRANCH  20  24
ENDBRANCH  12  15
ENDBRANCH   1  11
BRANCH   9  26
HETATM   26  C   UNL     1      40.145 -14.664  -0.525  1.00  0.00    -0.007 A 
HETATM   27  C   UNL     1      39.260 -13.880  -1.295  1.00  0.00     0.014 A 
HETATM   28  C   UNL     1      39.256 -13.923  -2.693  1.00  0.00     0.001 A 
HETATM   29  C   UNL     1      40.141 -14.759  -3.363  1.00  0.00     0.000 A 
HETATM   30  C   UNL     1      41.023 -15.551  -2.634  1.00  0.00     0.001 A 
HETATM   31  C   UNL     1      41.022 -15.507  -1.234  1.00  0.00     0.014 A 
ENDBRANCH   9  26
TORSDOF 5
ENDMDL
MODEL 8
REMARK VINA RESULT:      -8.4      1.587      2.716
REMARK  5 active torsions:
REMARK  status: ('A' for Active; 'I' for Inactive)
REMARK    1  A    between atoms: C_3  and  N_4 
REMARK       I    between atoms: N_4  and  C_5 
REMARK    2  A    between atoms: C_5  and  C_6 
REMARK    3  A    between atoms: C_14  and  C_15 
REMARK    4  A    between atoms: C_24  and  O_25 
REMARK    5  A    between atoms: C_27  and  O_28 
ROOT
HETATM    1  C   UNL     1      42.559 -16.530   3.407  1.00  0.00     0.047 A 
HETATM    2  C   UNL     1      43.027 -15.922   4.599  1.00  0.00     0.008 A 
HETATM    3  C   UNL     1      43.913 -16.694   5.370  1.00  0.00     0.068 A 
HETATM    4  C   UNL     1      44.445 -16.157   6.533  1.00  0.00     0.032 A 
HETATM    5  C   UNL     1      44.107 -14.880   6.983  1.00  0.00     0.002 A 
HETATM    6  C   UNL     1      43.201 -14.120   6.263  1.00  0.00     0.001 A 
HETATM    7  C   UNL     1      42.659 -14.637   5.087  1.00  0.00     0.015 A 
HETATM    8  N   UNL     1      44.258 -17.950   5.047  1.00  0.00    -0.248 NA
HETATM    9  C   UNL     1      43.736 -18.550   3.949  1.00  0.00     0.068 A 
HETATM   10  C   UNL     1      42.890 -17.854   3.100  1.00  0.00     0.050 A 
ENDROOT
BRANCH   1  11
HETATM   11  C   UNL     1      41.656 -15.833   2.446  1.00  0.00     0.257 C 
HETATM   12  N   UNL     1      42.303 -15.107   1.472  1.00  0.00    -0.322 N 
HETATM   13  H   UNL     1      43.265 -15.381   1.304  1.00  0.00     0.169 HD
HETATM   14  O   UNL     1      40.451 -16.026   2.544  1.00  0.00    -0.267 OA
BRANCH  12  15
HETATM   15  C   UNL     1      41.831 -14.042   0.664  1.00  0.00     0.043 A 
HETATM   16  C   UNL     1      41.251 -14.151  -0.612  1.00  0.00    -0.032 A 
HETATM   17  C   UNL     1      41.074 -15.430  -1.382  1.00  0.00     0.050 C 
HETATM   18  C   UNL     1      40.750 -12.985  -1.232  1.00  0.00     0.048 A 
HETATM   19  C   UNL     1      40.765 -11.742  -0.593  1.00  0.00     0.102 A 
HETATM   20  C   UNL     1      41.349 -11.631   0.673  1.00  0.00     0.103 A 
HETATM   21  C   UNL     1      41.864 -12.778   1.290  1.00  0.00     0.069 A 
BRANCH  19  22
HETATM   22  O   UNL     1      40.257 -10.593  -1.146  1.00  0.00    -0.353 OA
HETATM   23  C   UNL     1      40.841 -10.172  -2.373  1.00  0.00     0.210 C 
ENDBRANCH  19  22
BRANCH  20  24
HETATM   24  O   UNL     1      41.330 -10.381   1.241  1.00  0.00    -0.353 OA
HETATM   25  C   UNL     1      40.529 -10.193   2.398  1.00  0.00     0.210 C 
ENDBRANCH  20  24
ENDBRANCH  12  15
ENDBRANCH   1  11
BRANCH   9  26
HETATM   26  C   UNL     1      44.104 -19.976   3.768  1.00  0.00    -0.007 A 
HETATM   27  C   UNL     1      44.586 -20.731   4.858  1.00  0.00     0.014 A 
HETATM   28  C   UNL     1      44.920 -22.084   4.733  1.00  0.00     0.001 A 
HETATM   29  C   UNL     1      44.782 -22.721   3.506  1.00  0.00     0.000 A 
HETATM   30  C   UNL     1      44.316 -22.004   2.408  1.00  0.00     0.001 A 
HETATM   31  C   UNL     1      43.986 -20.649   2.537  1.00  0.00     0.014 A 
ENDBRANCH   9  26
TORSDOF 5
ENDMDL
MODEL 9
REMARK VINA RESULT:      -8.4      3.406      7.121
REMARK  5 active torsions:
REMARK  status: ('A' for Active; 'I' for Inactive)
REMARK    1  A    between atoms: C_3  and  N_4 
REMARK       I    between atoms: N_4  and  C_5 
REMARK    2  A    between atoms: C_5  and  C_6 
REMARK    3  A    between atoms: C_14  and  C_15 
REMARK    4  A    between atoms: C_24  and  O_25 
REMARK    5  A    between atoms: C_27  and  O_28 
ROOT
HETATM    1  C   UNL     1      43.154 -15.517   2.933  1.00  0.00     0.047 A 
HETATM    2  C   UNL     1      42.421 -15.319   1.736  1.00  0.00     0.008 A 
HETATM    3  C   UNL     1      42.086 -16.485   1.026  1.00  0.00     0.068 A 
HETATM    4  C   UNL     1      41.338 -16.380  -0.139  1.00  0.00     0.032 A 
HETATM    5  C   UNL     1      40.930 -15.147  -0.649  1.00  0.00     0.002 A 
HETATM    6  C   UNL     1      41.289 -13.983   0.010  1.00  0.00     0.001 A 
HETATM    7  C   UNL     1      42.033 -14.065   1.185  1.00  0.00     0.015 A 
HETATM    8  N   UNL     1      42.476 -17.711   1.409  1.00  0.00    -0.248 NA
HETATM    9  C   UNL     1      43.249 -17.877   2.510  1.00  0.00     0.068 A 
HETATM   10  C   UNL     1      43.592 -16.793   3.302  1.00  0.00     0.050 A 
ENDROOT
BRANCH   1  11
HETATM   11  C   UNL     1      43.546 -14.395   3.834  1.00  0.00     0.257 C 
HETATM   12  N   UNL     1      42.806 -14.302   4.992  1.00  0.00    -0.322 N 
HETATM   13  H   UNL     1      42.330 -15.156   5.264  1.00  0.00     0.169 HD
HETATM   14  O   UNL     1      44.519 -13.721   3.525  1.00  0.00    -0.267 OA
BRANCH  12  15
HETATM   15  C   UNL     1      42.611 -13.201   5.863  1.00  0.00     0.043 A 
HETATM   16  C   UNL     1      41.541 -12.291   5.838  1.00  0.00    -0.032 A 
HETATM   17  C   UNL     1      40.423 -12.289   4.832  1.00  0.00     0.050 C 
HETATM   18  C   UNL     1      41.460 -11.307   6.849  1.00  0.00     0.048 A 
HETATM   19  C   UNL     1      42.381 -11.250   7.899  1.00  0.00     0.102 A 
HETATM   20  C   UNL     1      43.451 -12.150   7.922  1.00  0.00     0.103 A 
HETATM   21  C   UNL     1      43.549 -13.118   6.914  1.00  0.00     0.069 A 
BRANCH  19  22
HETATM   22  O   UNL     1      42.319 -10.333   8.919  1.00  0.00    -0.353 OA
HETATM   23  C   UNL     1      41.416  -9.248   8.737  1.00  0.00     0.210 C 
ENDBRANCH  19  22
BRANCH  20  24
HETATM   24  O   UNL     1      44.317 -12.035   8.981  1.00  0.00    -0.353 OA
HETATM   25  C   UNL     1      45.693 -12.285   8.739  1.00  0.00     0.210 C 
ENDBRANCH  20  24
ENDBRANCH  12  15
ENDBRANCH   1  11
BRANCH   9  26
HETATM   26  C   UNL     1      43.710 -19.266   2.759  1.00  0.00    -0.007 A 
HETATM   27  C   UNL     1      44.341 -19.601   3.975  1.00  0.00     0.014 A 
HETATM   28  C   UNL     1      44.766 -20.904   4.255  1.00  0.00     0.001 A 
HETATM   29  C   UNL     1      44.573 -21.913   3.320  1.00  0.00     0.000 A 
HETATM   30  C   UNL     1      43.961 -21.615   2.106  1.00  0.00     0.001 A 
HETATM   31  C   UNL     1      43.538 -20.309   1.828  1.00  0.00     0.014 A 
ENDBRANCH   9  26
TORSDOF 5
ENDMDL
MODEL 10
REMARK VINA RESULT:      -8.3      2.828      8.405
REMARK  5 active torsions:
REMARK  status: ('A' for Active; 'I' for Inactive)
REMARK    1  A    between atoms: C_3  and  N_4 
REMARK       I    between atoms: N_4  and  C_5 
REMARK    2  A    between atoms: C_5  and  C_6 
REMARK    3  A    between atoms: C_14  and  C_15 
REMARK    4  A    between atoms: C_24  and  O_25 
REMARK    5  A    between atoms: C_27  and  O_28 
ROOT
HETATM    1  C   UNL     1      41.015 -14.793   2.581  1.00  0.00     0.047 A 
HETATM    2  C   UNL     1      40.435 -13.907   3.523  1.00  0.00     0.008 A 
HETATM    3  C   UNL     1      40.300 -12.573   3.102  1.00  0.00     0.068 A 
HETATM    4  C   UNL     1      39.710 -11.649   3.953  1.00  0.00     0.032 A 
HETATM    5  C   UNL     1      39.270 -11.994   5.232  1.00  0.00     0.002 A 
HETATM    6  C   UNL     1      39.436 -13.292   5.684  1.00  0.00     0.001 A 
HETATM    7  C   UNL     1      40.020 -14.238   4.844  1.00  0.00     0.015 A 
HETATM    8  N   UNL     1      40.738 -12.135   1.912  1.00  0.00    -0.248 NA
HETATM    9  C   UNL     1      41.367 -12.976   1.054  1.00  0.00     0.068 A 
HETATM   10  C   UNL     1      41.506 -14.320   1.360  1.00  0.00     0.050 A 
ENDROOT
BRANCH   1  11
HETATM   11  C   UNL     1      41.185 -16.252   2.843  1.00  0.00     0.257 C 
HETATM   12  N   UNL     1      42.321 -16.581   3.547  1.00  0.00    -0.322 N 
HETATM   13  H   UNL     1      42.725 -15.821   4.085  1.00  0.00     0.169 HD
HETATM   14  O   UNL     1      40.287 -17.008   2.498  1.00  0.00    -0.267 OA
BRANCH  12  15
HETATM   15  C   UNL     1      43.009 -17.817   3.643  1.00  0.00     0.043 A 
HETATM   16  C   UNL     1      43.675 -18.488   2.602  1.00  0.00    -0.032 A 
HETATM   17  C   UNL     1      43.730 -18.036   1.169  1.00  0.00     0.050 C 
HETATM   18  C   UNL     1      44.391 -19.668   2.903  1.00  0.00     0.048 A 
HETATM   19  C   UNL     1      44.500 -20.153   4.209  1.00  0.00     0.102 A 
HETATM   20  C   UNL     1      43.833 -19.491   5.244  1.00  0.00     0.103 A 
HETATM   21  C   UNL     1      43.106 -18.330   4.954  1.00  0.00     0.069 A 
BRANCH  19  22
HETATM   22  O   UNL     1      45.215 -21.275   4.549  1.00  0.00    -0.353 OA
HETATM   23  C   UNL     1      44.703 -22.516   4.076  1.00  0.00     0.210 C 
ENDBRANCH  19  22
BRANCH  20  24
HETATM   24  O   UNL     1      43.984 -20.023   6.500  1.00  0.00    -0.353 OA
HETATM   25  C   UNL     1      43.826 -19.152   7.610  1.00  0.00     0.210 C 
ENDBRANCH  20  24
ENDBRANCH  12  15
ENDBRANCH   1  11
BRANCH   9  26
HETATM   26  C   UNL     1      41.907 -12.343  -0.175  1.00  0.00    -0.007 A 
HETATM   27  C   UNL     1      41.905 -13.044  -1.398  1.00  0.00     0.014 A 
HETATM   28  C   UNL     1      42.382 -12.473  -2.582  1.00  0.00     0.001 A 
HETATM   29  C   UNL     1      42.880 -11.175  -2.574  1.00  0.00     0.000 A 
HETATM   30  C   UNL     1      42.904 -10.457  -1.382  1.00  0.00     0.001 A 
HETATM   31  C   UNL     1      42.427 -11.035  -0.198  1.00  0.00     0.014 A 
ENDBRANCH   9  26
TORSDOF 5
ENDMDL
