MODEL 1
REMARK VINA RESULT:      -9.1      0.000      0.000
REMARK  6 active torsions:
REMARK  status: ('A' for Active; 'I' for Inactive)
REMARK    1  A    between atoms: C_2  and  C_3 
REMARK    2  A    between atoms: C_6  and  N_7 
REMARK    3  A    between atoms: N_7  and  C_8 
REMARK    4  A    between atoms: C_8  and  C_9 
REMARK    5  A    between atoms: N_15  and  C_16 
REMARK    6  A    between atoms: C_23  and  C_24 
ROOT
HETATM    1  C   UNL     1      42.051 -14.439   3.756  1.00  0.00     0.028 A 
HETATM    2  C   UNL     1      42.121 -13.056   4.303  1.00  0.00     0.255 A 
HETATM    3  O   UNL     1      41.553 -12.074   3.866  1.00  0.00    -0.268 OA
HETATM    4  N   UNL     1      42.908 -12.881   5.485  1.00  0.00    -0.307 N 
HETATM    5  C   UNL     1      43.502 -13.962   6.114  1.00  0.00     0.144 A 
HETATM    6  C   UNL     1      43.318 -15.239   5.647  1.00  0.00     0.038 A 
HETATM    7  N   UNL     1      44.266 -14.065   7.263  1.00  0.00    -0.216 N 
HETATM    8  N   UNL     1      44.413 -15.371   7.618  1.00  0.00    -0.169 NA
HETATM    9  C   UNL     1      43.892 -16.096   6.615  1.00  0.00     0.077 C 
HETATM   10  C   UNL     1      42.611 -15.457   4.437  1.00  0.00     0.032 A 
HETATM   11  H   UNL     1      42.924 -11.951   5.884  1.00  0.00     0.170 HD
ENDROOT
BRANCH   1  12
HETATM   12  C   UNL     1      41.283 -14.616   2.487  1.00  0.00     0.164 C 
BRANCH  12  13
HETATM   13  N   UNL     1      42.177 -15.152   1.475  1.00  0.00    -0.385 N 
HETATM   14  H   UNL     1      42.957 -14.550   1.219  1.00  0.00     0.160 HD
BRANCH  13  15
HETATM   15  C   UNL     1      42.612 -16.482   1.560  1.00  0.00     0.028 A 
HETATM   16  C   UNL     1      41.639 -17.487   1.646  1.00  0.00     0.029 A 
HETATM   17  C   UNL     1      41.989 -18.835   1.778  1.00  0.00     0.009 A 
HETATM   18  C   UNL     1      43.332 -19.214   1.842  1.00  0.00    -0.058 A 
HETATM   19  C   UNL     1      44.310 -18.218   1.785  1.00  0.00     0.009 A 
HETATM   20  C   UNL     1      43.951 -16.868   1.668  1.00  0.00     0.029 A 
BRANCH  18  21
HETATM   21  C   UNL     1      43.717 -20.666   1.962  1.00  0.00     0.034 C 
HETATM   22  C   UNL     1      44.694 -20.903   3.103  1.00  0.00     0.010 C 
ENDBRANCH  18  21
ENDBRANCH  13  15
ENDBRANCH  12  13
ENDBRANCH   1  12
BRANCH   9  23
HETATM   23  C   UNL     1      43.944 -17.622   6.670  1.00  0.00    -0.004 C 
HETATM   24  C   UNL     1      42.865 -18.267   5.766  1.00  0.00     0.021 C 
HETATM   25  C   UNL     1      45.314 -18.132   6.180  1.00  0.00     0.021 C 
HETATM   26  C   UNL     1      43.693 -18.118   8.107  1.00  0.00     0.021 C 
ENDBRANCH   9  23
BRANCH   7  27
HETATM   27  C   UNL     1      44.863 -13.040   8.044  1.00  0.00     0.060 A 
HETATM   28  C   UNL     1      46.162 -12.611   7.726  1.00  0.00     0.031 A 
HETATM   29  C   UNL     1      46.778 -11.608   8.477  1.00  0.00     0.002 A 
HETATM   30  C   UNL     1      46.098 -11.013   9.535  1.00  0.00     0.000 A 
HETATM   31  C   UNL     1      44.796 -11.411   9.839  1.00  0.00     0.002 A 
HETATM   32  C   UNL     1      44.174 -12.420   9.095  1.00  0.00     0.031 A 
ENDBRANCH   7  27
TORSDOF 6
ENDMDL
MODEL 2
REMARK VINA RESULT:      -8.8      1.943      8.488
REMARK  6 active torsions:
REMARK  status: ('A' for Active; 'I' for Inactive)
REMARK    1  A    between atoms: C_2  and  C_3 
REMARK    2  A    between atoms: C_6  and  N_7 
REMARK    3  A    between atoms: N_7  and  C_8 
REMARK    4  A    between atoms: C_8  and  C_9 
REMARK    5  A    between atoms: N_15  and  C_16 
REMARK    6  A    between atoms: C_23  and  C_24 
ROOT
HETATM    1  C   UNL     1      42.951 -14.464   5.541  1.00  0.00     0.028 A 
HETATM    2  C   UNL     1      43.414 -15.709   6.214  1.00  0.00     0.255 A 
HETATM    3  O   UNL     1      43.705 -15.833   7.387  1.00  0.00    -0.268 OA
HETATM    4  N   UNL     1      43.483 -16.882   5.397  1.00  0.00    -0.307 N 
HETATM    5  C   UNL     1      43.066 -16.858   4.077  1.00  0.00     0.144 A 
HETATM    6  C   UNL     1      42.534 -15.721   3.525  1.00  0.00     0.038 A 
HETATM    7  N   UNL     1      42.999 -17.841   3.105  1.00  0.00    -0.216 N 
HETATM    8  N   UNL     1      42.285 -17.399   2.034  1.00  0.00    -0.169 NA
HETATM    9  C   UNL     1      42.048 -16.096   2.250  1.00  0.00     0.077 C 
HETATM   10  C   UNL     1      42.515 -14.513   4.268  1.00  0.00     0.032 A 
HETATM   11  H   UNL     1      43.757 -17.739   5.860  1.00  0.00     0.170 HD
ENDROOT
BRANCH   1  12
HETATM   12  C   UNL     1      42.937 -13.223   6.373  1.00  0.00     0.164 C 
BRANCH  12  13
HETATM   13  N   UNL     1      44.138 -13.198   7.190  1.00  0.00    -0.385 N 
HETATM   14  H   UNL     1      45.007 -13.046   6.682  1.00  0.00     0.160 HD
BRANCH  13  15
HETATM   15  C   UNL     1      44.154 -12.472   8.388  1.00  0.00     0.028 A 
HETATM   16  C   UNL     1      43.131 -11.540   8.606  1.00  0.00     0.029 A 
HETATM   17  C   UNL     1      43.099 -10.743   9.755  1.00  0.00     0.009 A 
HETATM   18  C   UNL     1      44.105 -10.850  10.718  1.00  0.00    -0.058 A 
HETATM   19  C   UNL     1      45.145 -11.756  10.499  1.00  0.00     0.009 A 
HETATM   20  C   UNL     1      45.179 -12.540   9.338  1.00  0.00     0.029 A 
BRANCH  18  21
HETATM   21  C   UNL     1      44.064 -10.011  11.970  1.00  0.00     0.034 C 
HETATM   22  C   UNL     1      43.039 -10.528  12.969  1.00  0.00     0.010 C 
ENDBRANCH  18  21
ENDBRANCH  13  15
ENDBRANCH  12  13
ENDBRANCH   1  12
BRANCH   9  23
HETATM   23  C   UNL     1      41.305 -15.270   1.201  1.00  0.00    -0.004 C 
HETATM   24  C   UNL     1      41.932 -13.866   1.022  1.00  0.00     0.021 C 
HETATM   25  C   UNL     1      41.358 -15.971  -0.172  1.00  0.00     0.021 C 
HETATM   26  C   UNL     1      39.835 -15.066   1.618  1.00  0.00     0.021 C 
ENDBRANCH   9  23
BRANCH   7  27
HETATM   27  C   UNL     1      43.548 -19.151   3.108  1.00  0.00     0.060 A 
HETATM   28  C   UNL     1      43.342 -19.977   1.991  1.00  0.00     0.031 A 
HETATM   29  C   UNL     1      43.865 -21.271   1.965  1.00  0.00     0.002 A 
HETATM   30  C   UNL     1      44.612 -21.743   3.041  1.00  0.00     0.000 A 
HETATM   31  C   UNL     1      44.847 -20.919   4.140  1.00  0.00     0.002 A 
HETATM   32  C   UNL     1      44.322 -19.623   4.176  1.00  0.00     0.031 A 
ENDBRANCH   7  27
TORSDOF 6
ENDMDL
MODEL 3
REMARK VINA RESULT:      -8.5      3.783      7.432
REMARK  6 active torsions:
REMARK  status: ('A' for Active; 'I' for Inactive)
REMARK    1  A    between atoms: C_2  and  C_3 
REMARK    2  A    between atoms: C_6  and  N_7 
REMARK    3  A    between atoms: N_7  and  C_8 
REMARK    4  A    between atoms: C_8  and  C_9 
REMARK    5  A    between atoms: N_15  and  C_16 
REMARK    6  A    between atoms: C_23  and  C_24 
ROOT
HETATM    1  C   UNL     1      40.805 -15.306   1.406  1.00  0.00     0.028 A 
HETATM    2  C   UNL     1      41.445 -16.290   0.491  1.00  0.00     0.255 A 
HETATM    3  O   UNL     1      41.458 -16.249  -0.723  1.00  0.00    -0.268 OA
HETATM    4  N   UNL     1      42.147 -17.371   1.114  1.00  0.00    -0.307 N 
HETATM    5  C   UNL     1      42.277 -17.438   2.491  1.00  0.00     0.144 A 
HETATM    6  C   UNL     1      41.773 -16.449   3.297  1.00  0.00     0.038 A 
HETATM    7  N   UNL     1      42.920 -18.339   3.321  1.00  0.00    -0.216 N 
HETATM    8  N   UNL     1      42.984 -17.850   4.590  1.00  0.00    -0.169 NA
HETATM    9  C   UNL     1      42.241 -16.732   4.602  1.00  0.00     0.077 C 
HETATM   10  C   UNL     1      41.004 -15.398   2.735  1.00  0.00     0.032 A 
HETATM   11  H   UNL     1      42.619 -18.019   0.497  1.00  0.00     0.170 HD
ENDROOT
BRANCH   1  12
HETATM   12  C   UNL     1      40.017 -14.211   0.762  1.00  0.00     0.164 C 
BRANCH  12  13
HETATM   13  N   UNL     1      40.896 -13.076   0.541  1.00  0.00    -0.385 N 
HETATM   14  H   UNL     1      41.724 -13.045   1.132  1.00  0.00     0.160 HD
BRANCH  13  15
HETATM   15  C   UNL     1      41.229 -12.694  -0.766  1.00  0.00     0.028 A 
HETATM   16  C   UNL     1      42.405 -11.956  -0.955  1.00  0.00     0.029 A 
HETATM   17  C   UNL     1      42.786 -11.498  -2.221  1.00  0.00     0.009 A 
HETATM   18  C   UNL     1      41.987 -11.757  -3.337  1.00  0.00    -0.058 A 
HETATM   19  C   UNL     1      40.798 -12.468  -3.156  1.00  0.00     0.009 A 
HETATM   20  C   UNL     1      40.415 -12.910  -1.882  1.00  0.00     0.029 A 
BRANCH  18  21
HETATM   21  C   UNL     1      42.403 -11.286  -4.706  1.00  0.00     0.034 C 
HETATM   22  C   UNL     1      42.471  -9.768  -4.790  1.00  0.00     0.010 C 
ENDBRANCH  18  21
ENDBRANCH  13  15
ENDBRANCH  12  13
ENDBRANCH   1  12
BRANCH   9  23
HETATM   23  C   UNL     1      42.053 -15.954   5.903  1.00  0.00    -0.004 C 
HETATM   24  C   UNL     1      42.578 -16.743   7.128  1.00  0.00     0.021 C 
HETATM   25  C   UNL     1      42.830 -14.623   5.852  1.00  0.00     0.021 C 
HETATM   26  C   UNL     1      40.559 -15.669   6.149  1.00  0.00     0.021 C 
ENDBRANCH   9  23
BRANCH   7  27
HETATM   27  C   UNL     1      43.476 -19.610   3.015  1.00  0.00     0.060 A 
HETATM   28  C   UNL     1      44.373 -20.196   3.922  1.00  0.00     0.031 A 
HETATM   29  C   UNL     1      44.939 -21.443   3.648  1.00  0.00     0.002 A 
HETATM   30  C   UNL     1      44.602 -22.120   2.480  1.00  0.00     0.000 A 
HETATM   31  C   UNL     1      43.689 -21.559   1.589  1.00  0.00     0.002 A 
HETATM   32  C   UNL     1      43.121 -20.308   1.853  1.00  0.00     0.031 A 
ENDBRANCH   7  27
TORSDOF 6
ENDMDL
MODEL 4
REMARK VINA RESULT:      -8.5      2.619      4.725
REMARK  6 active torsions:
REMARK  status: ('A' for Active; 'I' for Inactive)
REMARK    1  A    between atoms: C_2  and  C_3 
REMARK    2  A    between atoms: C_6  and  N_7 
REMARK    3  A    between atoms: N_7  and  C_8 
REMARK    4  A    between atoms: C_8  and  C_9 
REMARK    5  A    between atoms: N_15  and  C_16 
REMARK    6  A    between atoms: C_23  and  C_24 
ROOT
HETATM    1  C   UNL     1      43.004 -14.024   5.435  1.00  0.00     0.028 A 
HETATM    2  C   UNL     1      43.974 -13.986   6.564  1.00  0.00     0.255 A 
HETATM    3  O   UNL     1      44.935 -14.713   6.720  1.00  0.00    -0.268 OA
HETATM    4  N   UNL     1      43.767 -12.961   7.542  1.00  0.00    -0.307 N 
HETATM    5  C   UNL     1      42.763 -12.020   7.389  1.00  0.00     0.144 A 
HETATM    6  C   UNL     1      41.963 -12.016   6.275  1.00  0.00     0.038 A 
HETATM    7  N   UNL     1      42.384 -10.931   8.154  1.00  0.00    -0.216 N 
HETATM    8  N   UNL     1      41.500 -10.156   7.469  1.00  0.00    -0.169 NA
HETATM    9  C   UNL     1      41.192 -10.833   6.351  1.00  0.00     0.077 C 
HETATM   10  C   UNL     1      42.077 -13.054   5.315  1.00  0.00     0.032 A 
HETATM   11  H   UNL     1      44.448 -12.905   8.288  1.00  0.00     0.170 HD
ENDROOT
BRANCH   1  12
HETATM   12  C   UNL     1      43.177 -15.130   4.446  1.00  0.00     0.164 C 
BRANCH  12  13
HETATM   13  N   UNL     1      42.982 -16.398   5.128  1.00  0.00    -0.385 N 
HETATM   14  H   UNL     1      42.047 -16.553   5.500  1.00  0.00     0.160 HD
BRANCH  13  15
HETATM   15  C   UNL     1      43.469 -17.581   4.558  1.00  0.00     0.028 A 
HETATM   16  C   UNL     1      43.030 -17.920   3.271  1.00  0.00     0.029 A 
HETATM   17  C   UNL     1      43.433 -19.107   2.649  1.00  0.00     0.009 A 
HETATM   18  C   UNL     1      44.282 -19.998   3.308  1.00  0.00    -0.058 A 
HETATM   19  C   UNL     1      44.704 -19.684   4.603  1.00  0.00     0.009 A 
HETATM   20  C   UNL     1      44.283 -18.502   5.226  1.00  0.00     0.029 A 
BRANCH  18  21
HETATM   21  C   UNL     1      44.738 -21.267   2.635  1.00  0.00     0.034 C 
HETATM   22  C   UNL     1      43.741 -21.748   1.591  1.00  0.00     0.010 C 
ENDBRANCH  18  21
ENDBRANCH  13  15
ENDBRANCH  12  13
ENDBRANCH   1  12
BRANCH   9  23
HETATM   23  C   UNL     1      40.169 -10.261   5.370  1.00  0.00    -0.004 C 
HETATM   24  C   UNL     1      39.432  -9.033   5.957  1.00  0.00     0.021 C 
HETATM   25  C   UNL     1      40.865  -9.799   4.074  1.00  0.00     0.021 C 
HETATM   26  C   UNL     1      39.100 -11.318   5.031  1.00  0.00     0.021 C 
ENDBRANCH   9  23
BRANCH   7  27
HETATM   27  C   UNL     1      42.787 -10.568   9.467  1.00  0.00     0.060 A 
HETATM   28  C   UNL     1      41.885  -9.870  10.287  1.00  0.00     0.031 A 
HETATM   29  C   UNL     1      42.252  -9.495  11.580  1.00  0.00     0.002 A 
HETATM   30  C   UNL     1      43.510  -9.829  12.072  1.00  0.00     0.000 A 
HETATM   31  C   UNL     1      44.401 -10.548  11.276  1.00  0.00     0.002 A 
HETATM   32  C   UNL     1      44.043 -10.923   9.977  1.00  0.00     0.031 A 
ENDBRANCH   7  27
TORSDOF 6
ENDMDL
MODEL 5
REMARK VINA RESULT:      -8.4      3.440      7.392
REMARK  6 active torsions:
REMARK  status: ('A' for Active; 'I' for Inactive)
REMARK    1  A    between atoms: C_2  and  C_3 
REMARK    2  A    between atoms: C_6  and  N_7 
REMARK    3  A    between atoms: N_7  and  C_8 
REMARK    4  A    between atoms: C_8  and  C_9 
REMARK    5  A    between atoms: N_15  and  C_16 
REMARK    6  A    between atoms: C_23  and  C_24 
ROOT
HETATM    1  C   UNL     1      41.128 -15.236   1.320  1.00  0.00     0.028 A 
HETATM    2  C   UNL     1      41.495 -16.425   0.502  1.00  0.00     0.255 A 
HETATM    3  O   UNL     1      41.263 -16.592  -0.679  1.00  0.00    -0.268 OA
HETATM    4  N   UNL     1      42.229 -17.453   1.174  1.00  0.00    -0.307 N 
HETATM    5  C   UNL     1      42.632 -17.299   2.490  1.00  0.00     0.144 A 
HETATM    6  C   UNL     1      42.377 -16.139   3.175  1.00  0.00     0.038 A 
HETATM    7  N   UNL     1      43.365 -18.109   3.339  1.00  0.00    -0.216 N 
HETATM    8  N   UNL     1      43.721 -17.422   4.459  1.00  0.00    -0.169 NA
HETATM    9  C   UNL     1      43.079 -16.245   4.399  1.00  0.00     0.077 C 
HETATM   10  C   UNL     1      41.587 -15.122   2.581  1.00  0.00     0.032 A 
HETATM   11  H   UNL     1      42.517 -18.244   0.612  1.00  0.00     0.170 HD
ENDROOT
BRANCH   1  12
HETATM   12  C   UNL     1      40.307 -14.188   0.640  1.00  0.00     0.164 C 
BRANCH  12  13
HETATM   13  N   UNL     1      40.970 -13.808  -0.595  1.00  0.00    -0.385 N 
HETATM   14  H   UNL     1      40.429 -13.960  -1.444  1.00  0.00     0.160 HD
BRANCH  13  15
HETATM   15  C   UNL     1      41.650 -12.586  -0.676  1.00  0.00     0.028 A 
HETATM   16  C   UNL     1      42.397 -12.325  -1.833  1.00  0.00     0.029 A 
HETATM   17  C   UNL     1      43.141 -11.148  -1.973  1.00  0.00     0.009 A 
HETATM   18  C   UNL     1      43.168 -10.201  -0.947  1.00  0.00    -0.058 A 
HETATM   19  C   UNL     1      42.449 -10.464   0.222  1.00  0.00     0.009 A 
HETATM   20  C   UNL     1      41.719 -11.651   0.362  1.00  0.00     0.029 A 
BRANCH  18  21
HETATM   21  C   UNL     1      43.949  -8.922  -1.102  1.00  0.00     0.034 C 
HETATM   22  C   UNL     1      43.288  -7.760  -0.374  1.00  0.00     0.010 C 
ENDBRANCH  18  21
ENDBRANCH  13  15
ENDBRANCH  12  13
ENDBRANCH   1  12
BRANCH   9  23
HETATM   23  C   UNL     1      43.217 -15.241   5.543  1.00  0.00    -0.004 C 
HETATM   24  C   UNL     1      43.898 -13.930   5.080  1.00  0.00     0.021 C 
HETATM   25  C   UNL     1      41.829 -14.862   6.098  1.00  0.00     0.021 C 
HETATM   26  C   UNL     1      44.081 -15.830   6.675  1.00  0.00     0.021 C 
ENDBRANCH   9  23
BRANCH   7  27
HETATM   27  C   UNL     1      43.753 -19.466   3.179  1.00  0.00     0.060 A 
HETATM   28  C   UNL     1      43.423 -20.131   1.986  1.00  0.00     0.031 A 
HETATM   29  C   UNL     1      43.786 -21.467   1.800  1.00  0.00     0.002 A 
HETATM   30  C   UNL     1      44.494 -22.141   2.790  1.00  0.00     0.000 A 
HETATM   31  C   UNL     1      44.851 -21.480   3.964  1.00  0.00     0.002 A 
HETATM   32  C   UNL     1      44.487 -20.144   4.161  1.00  0.00     0.031 A 
ENDBRANCH   7  27
TORSDOF 6
ENDMDL
MODEL 6
REMARK VINA RESULT:      -8.2      4.166      7.772
REMARK  6 active torsions:
REMARK  status: ('A' for Active; 'I' for Inactive)
REMARK    1  A    between atoms: C_2  and  C_3 
REMARK    2  A    between atoms: C_6  and  N_7 
REMARK    3  A    between atoms: N_7  and  C_8 
REMARK    4  A    between atoms: C_8  and  C_9 
REMARK    5  A    between atoms: N_15  and  C_16 
REMARK    6  A    between atoms: C_23  and  C_24 
ROOT
HETATM    1  C   UNL     1      41.041 -14.985   1.129  1.00  0.00     0.028 A 
HETATM    2  C   UNL     1      41.458 -16.140   0.286  1.00  0.00     0.255 A 
HETATM    3  O   UNL     1      41.289 -16.262  -0.911  1.00  0.00    -0.268 OA
HETATM    4  N   UNL     1      42.163 -17.190   0.955  1.00  0.00    -0.307 N 
HETATM    5  C   UNL     1      42.496 -17.086   2.296  1.00  0.00     0.144 A 
HETATM    6  C   UNL     1      42.198 -15.954   3.011  1.00  0.00     0.038 A 
HETATM    7  N   UNL     1      43.189 -17.925   3.150  1.00  0.00    -0.216 N 
HETATM    8  N   UNL     1      43.482 -17.281   4.312  1.00  0.00    -0.169 NA
HETATM    9  C   UNL     1      42.836 -16.105   4.264  1.00  0.00     0.077 C 
HETATM   10  C   UNL     1      41.434 -14.918   2.416  1.00  0.00     0.032 A 
HETATM   11  H   UNL     1      42.485 -17.957   0.379  1.00  0.00     0.170 HD
ENDROOT
BRANCH   1  12
HETATM   12  C   UNL     1      40.250 -13.915   0.449  1.00  0.00     0.164 C 
BRANCH  12  13
HETATM   13  N   UNL     1      39.106 -14.528  -0.204  1.00  0.00    -0.385 N 
HETATM   14  H   UNL     1      38.454 -15.005   0.416  1.00  0.00     0.160 HD
BRANCH  13  15
HETATM   15  C   UNL     1      38.398 -13.820  -1.184  1.00  0.00     0.028 A 
HETATM   16  C   UNL     1      38.330 -14.369  -2.471  1.00  0.00     0.029 A 
HETATM   17  C   UNL     1      37.682 -13.704  -3.518  1.00  0.00     0.009 A 
HETATM   18  C   UNL     1      37.090 -12.457  -3.304  1.00  0.00    -0.058 A 
HETATM   19  C   UNL     1      37.175 -11.887  -2.031  1.00  0.00     0.009 A 
HETATM   20  C   UNL     1      37.840 -12.552  -0.992  1.00  0.00     0.029 A 
BRANCH  18  21
HETATM   21  C   UNL     1      36.370 -11.746  -4.421  1.00  0.00     0.034 C 
HETATM   22  C   UNL     1      35.399 -12.665  -5.148  1.00  0.00     0.010 C 
ENDBRANCH  18  21
ENDBRANCH  13  15
ENDBRANCH  12  13
ENDBRANCH   1  12
BRANCH   9  23
HETATM   23  C   UNL     1      42.908 -15.145   5.452  1.00  0.00    -0.004 C 
HETATM   24  C   UNL     1      43.692 -13.856   5.104  1.00  0.00     0.021 C 
HETATM   25  C   UNL     1      41.492 -14.715   5.883  1.00  0.00     0.021 C 
HETATM   26  C   UNL     1      43.628 -15.812   6.640  1.00  0.00     0.021 C 
ENDBRANCH   9  23
BRANCH   7  27
HETATM   27  C   UNL     1      43.593 -19.273   2.958  1.00  0.00     0.060 A 
HETATM   28  C   UNL     1      44.417 -19.880   3.920  1.00  0.00     0.031 A 
HETATM   29  C   UNL     1      44.835 -21.202   3.758  1.00  0.00     0.002 A 
HETATM   30  C   UNL     1      44.421 -21.933   2.648  1.00  0.00     0.000 A 
HETATM   31  C   UNL     1      43.578 -21.348   1.703  1.00  0.00     0.002 A 
HETATM   32  C   UNL     1      43.160 -20.022   1.856  1.00  0.00     0.031 A 
ENDBRANCH   7  27
TORSDOF 6
ENDMDL
MODEL 7
REMARK VINA RESULT:      -8.2      2.545      7.528
REMARK  6 active torsions:
REMARK  status: ('A' for Active; 'I' for Inactive)
REMARK    1  A    between atoms: C_2  and  C_3 
REMARK    2  A    between atoms: C_6  and  N_7 
REMARK    3  A    between atoms: N_7  and  C_8 
REMARK    4  A    between atoms: C_8  and  C_9 
REMARK    5  A    between atoms: N_15  and  C_16 
REMARK    6  A    between atoms: C_23  and  C_24 
ROOT
HETATM    1  C   UNL     1      43.484 -14.888   5.379  1.00  0.00     0.028 A 
HETATM    2  C   UNL     1      43.967 -16.141   6.021  1.00  0.00     0.255 A 
HETATM    3  O   UNL     1      44.380 -16.261   7.157  1.00  0.00    -0.268 OA
HETATM    4  N   UNL     1      43.900 -17.328   5.224  1.00  0.00    -0.307 N 
HETATM    5  C   UNL     1      43.342 -17.305   3.956  1.00  0.00     0.144 A 
HETATM    6  C   UNL     1      42.799 -16.155   3.444  1.00  0.00     0.038 A 
HETATM    7  N   UNL     1      43.129 -18.298   3.016  1.00  0.00    -0.216 N 
HETATM    8  N   UNL     1      42.321 -17.842   2.021  1.00  0.00    -0.169 NA
HETATM    9  C   UNL     1      42.161 -16.527   2.237  1.00  0.00     0.077 C 
HETATM   10  C   UNL     1      42.909 -14.937   4.162  1.00  0.00     0.032 A 
HETATM   11  H   UNL     1      44.188 -18.189   5.669  1.00  0.00     0.170 HD
ENDROOT
BRANCH   1  12
HETATM   12  C   UNL     1      43.611 -13.635   6.184  1.00  0.00     0.164 C 
BRANCH  12  13
HETATM   13  N   UNL     1      42.281 -13.197   6.573  1.00  0.00    -0.385 N 
HETATM   14  H   UNL     1      42.241 -12.612   7.405  1.00  0.00     0.160 HD
BRANCH  13  15
HETATM   15  C   UNL     1      41.395 -12.706   5.604  1.00  0.00     0.028 A 
HETATM   16  C   UNL     1      40.128 -13.297   5.514  1.00  0.00     0.029 A 
HETATM   17  C   UNL     1      39.201 -12.896   4.545  1.00  0.00     0.009 A 
HETATM   18  C   UNL     1      39.527 -11.896   3.625  1.00  0.00    -0.058 A 
HETATM   19  C   UNL     1      40.798 -11.321   3.688  1.00  0.00     0.009 A 
HETATM   20  C   UNL     1      41.726 -11.738   4.651  1.00  0.00     0.029 A 
BRANCH  18  21
HETATM   21  C   UNL     1      38.525 -11.445   2.594  1.00  0.00     0.034 C 
HETATM   22  C   UNL     1      38.751 -12.119   1.248  1.00  0.00     0.010 C 
ENDBRANCH  18  21
ENDBRANCH  13  15
ENDBRANCH  12  13
ENDBRANCH   1  12
BRANCH   9  23
HETATM   23  C   UNL     1      41.342 -15.686   1.259  1.00  0.00    -0.004 C 
HETATM   24  C   UNL     1      41.344 -16.293  -0.165  1.00  0.00     0.021 C 
HETATM   25  C   UNL     1      39.871 -15.607   1.718  1.00  0.00     0.021 C 
HETATM   26  C   UNL     1      41.925 -14.264   1.152  1.00  0.00     0.021 C 
ENDBRANCH   9  23
BRANCH   7  27
HETATM   27  C   UNL     1      43.623 -19.630   2.984  1.00  0.00     0.060 A 
HETATM   28  C   UNL     1      43.400 -20.410   1.837  1.00  0.00     0.031 A 
HETATM   29  C   UNL     1      43.868 -21.724   1.776  1.00  0.00     0.002 A 
HETATM   30  C   UNL     1      44.577 -22.262   2.846  1.00  0.00     0.000 A 
HETATM   31  C   UNL     1      44.829 -21.484   3.976  1.00  0.00     0.002 A 
HETATM   32  C   UNL     1      44.358 -20.169   4.047  1.00  0.00     0.031 A 
ENDBRANCH   7  27
TORSDOF 6
ENDMDL
MODEL 8
REMARK VINA RESULT:      -8.1      4.639      9.130
REMARK  6 active torsions:
REMARK  status: ('A' for Active; 'I' for Inactive)
REMARK    1  A    between atoms: C_2  and  C_3 
REMARK    2  A    between atoms: C_6  and  N_7 
REMARK    3  A    between atoms: N_7  and  C_8 
REMARK    4  A    between atoms: C_8  and  C_9 
REMARK    5  A    between atoms: N_15  and  C_16 
REMARK    6  A    between atoms: C_23  and  C_24 
ROOT
HETATM    1  C   UNL     1      40.931 -14.094   1.710  1.00  0.00     0.028 A 
HETATM    2  C   UNL     1      39.675 -14.805   1.343  1.00  0.00     0.255 A 
HETATM    3  O   UNL     1      39.101 -15.648   2.003  1.00  0.00    -0.268 OA
HETATM    4  N   UNL     1      39.070 -14.424   0.104  1.00  0.00    -0.307 N 
HETATM    5  C   UNL     1      39.596 -13.395  -0.661  1.00  0.00     0.144 A 
HETATM    6  C   UNL     1      40.687 -12.684  -0.232  1.00  0.00     0.038 A 
HETATM    7  N   UNL     1      39.191 -12.822  -1.853  1.00  0.00    -0.216 N 
HETATM    8  N   UNL     1      39.884 -11.674  -2.086  1.00  0.00    -0.169 NA
HETATM    9  C   UNL     1      40.835 -11.610  -1.141  1.00  0.00     0.077 C 
HETATM   10  C   UNL     1      41.369 -13.072   0.949  1.00  0.00     0.032 A 
HETATM   11  H   UNL     1      38.195 -14.874  -0.129  1.00  0.00     0.170 HD
ENDROOT
BRANCH   1  12
HETATM   12  C   UNL     1      41.601 -14.533   2.971  1.00  0.00     0.164 C 
BRANCH  12  13
HETATM   13  N   UNL     1      42.957 -14.949   2.656  1.00  0.00    -0.385 N 
HETATM   14  H   UNL     1      43.694 -14.347   3.019  1.00  0.00     0.160 HD
BRANCH  13  15
HETATM   15  C   UNL     1      43.327 -16.293   2.799  1.00  0.00     0.028 A 
HETATM   16  C   UNL     1      43.668 -17.008   1.643  1.00  0.00     0.029 A 
HETATM   17  C   UNL     1      44.005 -18.365   1.694  1.00  0.00     0.009 A 
HETATM   18  C   UNL     1      43.997 -19.050   2.911  1.00  0.00    -0.058 A 
HETATM   19  C   UNL     1      43.632 -18.354   4.067  1.00  0.00     0.009 A 
HETATM   20  C   UNL     1      43.280 -16.999   4.005  1.00  0.00     0.029 A 
BRANCH  18  21
HETATM   21  C   UNL     1      44.382 -20.506   2.977  1.00  0.00     0.034 C 
HETATM   22  C   UNL     1      43.742 -21.314   1.857  1.00  0.00     0.010 C 
ENDBRANCH  18  21
ENDBRANCH  13  15
ENDBRANCH  12  13
ENDBRANCH   1  12
BRANCH   9  23
HETATM   23  C   UNL     1      41.838 -10.456  -1.145  1.00  0.00    -0.004 C 
HETATM   24  C   UNL     1      41.777  -9.635   0.166  1.00  0.00     0.021 C 
HETATM   25  C   UNL     1      43.277 -10.995  -1.278  1.00  0.00     0.021 C 
HETATM   26  C   UNL     1      41.541  -9.488  -2.306  1.00  0.00     0.021 C 
ENDBRANCH   9  23
BRANCH   7  27
HETATM   27  C   UNL     1      38.210 -13.267  -2.780  1.00  0.00     0.060 A 
HETATM   28  C   UNL     1      37.248 -12.353  -3.243  1.00  0.00     0.031 A 
HETATM   29  C   UNL     1      36.269 -12.760  -4.150  1.00  0.00     0.002 A 
HETATM   30  C   UNL     1      36.252 -14.072  -4.616  1.00  0.00     0.000 A 
HETATM   31  C   UNL     1      37.221 -14.977  -4.185  1.00  0.00     0.002 A 
HETATM   32  C   UNL     1      38.203 -14.578  -3.271  1.00  0.00     0.031 A 
ENDBRANCH   7  27
TORSDOF 6
ENDMDL
MODEL 9
REMARK VINA RESULT:      -8.0      2.911      4.997
REMARK  6 active torsions:
REMARK  status: ('A' for Active; 'I' for Inactive)
REMARK    1  A    between atoms: C_2  and  C_3 
REMARK    2  A    between atoms: C_6  and  N_7 
REMARK    3  A    between atoms: N_7  and  C_8 
REMARK    4  A    between atoms: C_8  and  C_9 
REMARK    5  A    between atoms: N_15  and  C_16 
REMARK    6  A    between atoms: C_23  and  C_24 
ROOT
HETATM    1  C   UNL     1      40.992 -15.201   4.200  1.00  0.00     0.028 A 
HETATM    2  C   UNL     1      41.554 -15.212   5.578  1.00  0.00     0.255 A 
HETATM    3  O   UNL     1      42.150 -16.127   6.111  1.00  0.00    -0.268 OA
HETATM    4  N   UNL     1      41.406 -14.005   6.332  1.00  0.00    -0.307 N 
HETATM    5  C   UNL     1      40.838 -12.875   5.767  1.00  0.00     0.144 A 
HETATM    6  C   UNL     1      40.438 -12.867   4.455  1.00  0.00     0.038 A 
HETATM    7  N   UNL     1      40.615 -11.601   6.259  1.00  0.00    -0.216 N 
HETATM    8  N   UNL     1      40.258 -10.761   5.250  1.00  0.00    -0.169 NA
HETATM    9  C   UNL     1      40.090 -11.528   4.161  1.00  0.00     0.077 C 
HETATM   10  C   UNL     1      40.492 -14.059   3.689  1.00  0.00     0.032 A 
HETATM   11  H   UNL     1      41.823 -13.994   7.254  1.00  0.00     0.170 HD
ENDROOT
BRANCH   1  12
HETATM   12  C   UNL     1      41.087 -16.479   3.431  1.00  0.00     0.164 C 
BRANCH  12  13
HETATM   13  N   UNL     1      42.483 -16.726   3.113  1.00  0.00    -0.385 N 
HETATM   14  H   UNL     1      43.153 -16.138   3.604  1.00  0.00     0.160 HD
BRANCH  13  15
HETATM   15  C   UNL     1      42.963 -18.041   3.048  1.00  0.00     0.028 A 
HETATM   16  C   UNL     1      43.690 -18.530   4.141  1.00  0.00     0.029 A 
HETATM   17  C   UNL     1      44.242 -19.816   4.137  1.00  0.00     0.009 A 
HETATM   18  C   UNL     1      44.090 -20.647   3.025  1.00  0.00    -0.058 A 
HETATM   19  C   UNL     1      43.392 -20.160   1.918  1.00  0.00     0.009 A 
HETATM   20  C   UNL     1      42.855 -18.866   1.923  1.00  0.00     0.029 A 
BRANCH  18  21
HETATM   21  C   UNL     1      44.663 -22.042   3.023  1.00  0.00     0.034 C 
HETATM   22  C   UNL     1      44.778 -22.611   4.429  1.00  0.00     0.010 C 
ENDBRANCH  18  21
ENDBRANCH  13  15
ENDBRANCH  12  13
ENDBRANCH   1  12
BRANCH   9  23
HETATM   23  C   UNL     1      39.627 -10.899   2.847  1.00  0.00    -0.004 C 
HETATM   24  C   UNL     1      39.328  -9.388   3.006  1.00  0.00     0.021 C 
HETATM   25  C   UNL     1      40.723 -11.036   1.770  1.00  0.00     0.021 C 
HETATM   26  C   UNL     1      38.333 -11.573   2.354  1.00  0.00     0.021 C 
ENDBRANCH   9  23
BRANCH   7  27
HETATM   27  C   UNL     1      40.714 -11.119   7.591  1.00  0.00     0.060 A 
HETATM   28  C   UNL     1      41.927 -10.559   8.024  1.00  0.00     0.031 A 
HETATM   29  C   UNL     1      42.057 -10.080   9.329  1.00  0.00     0.002 A 
HETATM   30  C   UNL     1      40.977 -10.139  10.204  1.00  0.00     0.000 A 
HETATM   31  C   UNL     1      39.760 -10.666   9.773  1.00  0.00     0.002 A 
HETATM   32  C   UNL     1      39.623 -11.153   8.469  1.00  0.00     0.031 A 
ENDBRANCH   7  27
TORSDOF 6
ENDMDL
MODEL 10
REMARK VINA RESULT:      -7.9      4.455      7.889
REMARK  6 active torsions:
REMARK  status: ('A' for Active; 'I' for Inactive)
REMARK    1  A    between atoms: C_2  and  C_3 
REMARK    2  A    between atoms: C_6  and  N_7 
REMARK    3  A    between atoms: N_7  and  C_8 
REMARK    4  A    between atoms: C_8  and  C_9 
REMARK    5  A    between atoms: N_15  and  C_16 
REMARK    6  A    between atoms: C_23  and  C_24 
ROOT
HETATM    1  C   UNL     1      41.231 -16.057   0.831  1.00  0.00     0.028 A 
HETATM    2  C   UNL     1      40.470 -15.513   1.989  1.00  0.00     0.255 A 
HETATM    3  O   UNL     1      40.456 -15.956   3.120  1.00  0.00    -0.268 OA
HETATM    4  N   UNL     1      39.710 -14.325   1.745  1.00  0.00    -0.307 N 
HETATM    5  C   UNL     1      39.754 -13.689   0.515  1.00  0.00     0.144 A 
HETATM    6  C   UNL     1      40.560 -14.155  -0.492  1.00  0.00     0.038 A 
HETATM    7  N   UNL     1      39.155 -12.534   0.043  1.00  0.00    -0.216 N 
HETATM    8  N   UNL     1      39.696 -12.175  -1.152  1.00  0.00    -0.169 NA
HETATM    9  C   UNL     1      40.507 -13.181  -1.517  1.00  0.00     0.077 C 
HETATM   10  C   UNL     1      41.272 -15.370  -0.327  1.00  0.00     0.032 A 
HETATM   11  H   UNL     1      39.225 -13.928   2.539  1.00  0.00     0.170 HD
ENDROOT
BRANCH   1  12
HETATM   12  C   UNL     1      41.975 -17.333   1.063  1.00  0.00     0.164 C 
BRANCH  12  13
HETATM   13  N   UNL     1      43.082 -17.066   1.965  1.00  0.00    -0.385 N 
HETATM   14  H   UNL     1      43.035 -16.180   2.463  1.00  0.00     0.160 HD
BRANCH  13  15
HETATM   15  C   UNL     1      43.538 -18.072   2.828  1.00  0.00     0.028 A 
HETATM   16  C   UNL     1      43.901 -19.304   2.267  1.00  0.00     0.029 A 
HETATM   17  C   UNL     1      44.324 -20.374   3.063  1.00  0.00     0.009 A 
HETATM   18  C   UNL     1      44.383 -20.243   4.452  1.00  0.00    -0.058 A 
HETATM   19  C   UNL     1      43.996 -19.028   5.024  1.00  0.00     0.009 A 
HETATM   20  C   UNL     1      43.559 -17.966   4.222  1.00  0.00     0.029 A 
BRANCH  18  21
HETATM   21  C   UNL     1      44.859 -21.384   5.313  1.00  0.00     0.034 C 
HETATM   22  C   UNL     1      44.795 -22.715   4.579  1.00  0.00     0.010 C 
ENDBRANCH  18  21
ENDBRANCH  13  15
ENDBRANCH  12  13
ENDBRANCH   1  12
BRANCH   9  23
HETATM   23  C   UNL     1      41.241 -13.123  -2.856  1.00  0.00    -0.004 C 
HETATM   24  C   UNL     1      40.666 -12.024  -3.782  1.00  0.00     0.021 C 
HETATM   25  C   UNL     1      42.734 -12.801  -2.639  1.00  0.00     0.021 C 
HETATM   26  C   UNL     1      41.108 -14.466  -3.601  1.00  0.00     0.021 C 
ENDBRANCH   9  23
BRANCH   7  27
HETATM   27  C   UNL     1      38.124 -11.751   0.626  1.00  0.00     0.060 A 
HETATM   28  C   UNL     1      36.820 -11.850   0.112  1.00  0.00     0.031 A 
HETATM   29  C   UNL     1      35.786 -11.090   0.660  1.00  0.00     0.002 A 
HETATM   30  C   UNL     1      36.038 -10.241   1.734  1.00  0.00     0.000 A 
HETATM   31  C   UNL     1      37.322 -10.159   2.270  1.00  0.00     0.002 A 
HETATM   32  C   UNL     1      38.366 -10.914   1.723  1.00  0.00     0.031 A 
ENDBRANCH   7  27
TORSDOF 6
ENDMDL
