MODEL 1
REMARK VINA RESULT:      -8.6      0.000      0.000
REMARK  6 active torsions:
REMARK  status: ('A' for Active; 'I' for Inactive)
REMARK    1  A    between atoms: O_2  and  C_3 
REMARK    2  A    between atoms: C_7  and  O_8 
REMARK    3  A    between atoms: O_8  and  C_9 
REMARK    4  A    between atoms: C_9  and  C_10 
REMARK    5  A    between atoms: C_13  and  O_14 
REMARK    6  A    between atoms: C_17  and  C_23 
ROOT
HETATM    1  C   UNL     1      43.695 -14.835   6.245  1.00  0.00     0.132 A 
HETATM    2  N   UNL     1      43.479 -15.044   4.988  1.00  0.00    -0.229 NA
HETATM    3  C   UNL     1      43.598 -16.361   4.491  1.00  0.00     0.108 A 
HETATM    4  C   UNL     1      43.332 -16.632   3.136  1.00  0.00     0.098 A 
HETATM    5  C   UNL     1      43.476 -17.938   2.640  1.00  0.00     0.051 A 
HETATM    6  C   UNL     1      43.867 -18.997   3.479  1.00  0.00    -0.019 A 
HETATM    7  C   UNL     1      44.110 -18.728   4.828  1.00  0.00     0.032 A 
HETATM    8  C   UNL     1      43.971 -17.425   5.318  1.00  0.00     0.064 A 
HETATM    9  C   UNL     1      44.207 -17.136   6.743  1.00  0.00     0.259 A 
HETATM   10  O   UNL     1      44.514 -18.012   7.543  1.00  0.00    -0.267 OA
HETATM   11  N   UNL     1      44.055 -15.829   7.116  1.00  0.00    -0.309 N 
HETATM   12  H   UNL     1      44.156 -15.623   8.102  1.00  0.00     0.170 HD
ENDROOT
BRANCH   1  13
HETATM   13  C   UNL     1      43.605 -13.441   6.836  1.00  0.00     0.254 C 
BRANCH  13  14
HETATM   14  O   UNL     1      44.714 -13.280   7.722  1.00  0.00    -0.344 OA
BRANCH  14  15
HETATM   15  C   UNL     1      44.526 -12.336   8.695  1.00  0.00     0.071 A 
HETATM   16  C   UNL     1      45.590 -12.162   9.580  1.00  0.00     0.037 A 
HETATM   17  C   UNL     1      45.507 -11.210  10.594  1.00  0.00     0.005 A 
HETATM   18  C   UNL     1      44.366 -10.417  10.706  1.00  0.00     0.037 A 
HETATM   19  C   UNL     1      43.308 -10.562   9.804  1.00  0.00     0.070 A 
HETATM   20  C   UNL     1      43.389 -11.529   8.797  1.00  0.00     0.073 A 
BRANCH  19  21
HETATM   21  O   UNL     1      42.262  -9.704  10.012  1.00  0.00    -0.356 OA
HETATM   22  C   UNL     1      41.063 -10.263  10.532  1.00  0.00     0.210 C 
ENDBRANCH  19  21
ENDBRANCH  14  15
ENDBRANCH  13  14
ENDBRANCH   1  13
BRANCH   4  23
HETATM   23  O   UNL     1      42.960 -15.556   2.366  1.00  0.00    -0.354 OA
HETATM   24  C   UNL     1      42.097 -15.811   1.267  1.00  0.00     0.210 C 
ENDBRANCH   4  23
BRANCH   6  25
HETATM   25  C   UNL     1      44.022 -20.338   2.937  1.00  0.00     0.010 A 
HETATM   26  C   UNL     1      44.640 -21.492   3.478  1.00  0.00     0.152 A 
HETATM   27  N   UNL     1      44.583 -22.544   2.658  1.00  0.00    -0.187 NA
HETATM   28  N   UNL     1      43.926 -22.073   1.588  1.00  0.00    -0.289 N 
HETATM   29  H   UNL     1      43.754 -22.705   0.812  1.00  0.00     0.188 HD
HETATM   30  C   UNL     1      43.571 -20.760   1.703  1.00  0.00     0.123 A 
ENDBRANCH   6  25
TORSDOF 6
ENDMDL
MODEL 2
REMARK VINA RESULT:      -8.1      5.432      9.551
REMARK  6 active torsions:
REMARK  status: ('A' for Active; 'I' for Inactive)
REMARK    1  A    between atoms: O_2  and  C_3 
REMARK    2  A    between atoms: C_7  and  O_8 
REMARK    3  A    between atoms: O_8  and  C_9 
REMARK    4  A    between atoms: C_9  and  C_10 
REMARK    5  A    between atoms: C_13  and  O_14 
REMARK    6  A    between atoms: C_17  and  C_23 
ROOT
HETATM    1  C   UNL     1      41.262 -15.738   0.643  1.00  0.00     0.132 A 
HETATM    2  N   UNL     1      41.076 -15.763  -0.636  1.00  0.00    -0.229 NA
HETATM    3  C   UNL     1      41.374 -14.603  -1.385  1.00  0.00     0.108 A 
HETATM    4  C   UNL     1      41.220 -14.606  -2.784  1.00  0.00     0.098 A 
HETATM    5  C   UNL     1      41.492 -13.442  -3.522  1.00  0.00     0.051 A 
HETATM    6  C   UNL     1      41.936 -12.267  -2.892  1.00  0.00    -0.019 A 
HETATM    7  C   UNL     1      42.108 -12.273  -1.506  1.00  0.00     0.032 A 
HETATM    8  C   UNL     1      41.831 -13.432  -0.772  1.00  0.00     0.064 A 
HETATM    9  C   UNL     1      42.026 -13.453   0.688  1.00  0.00     0.259 A 
HETATM   10  O   UNL     1      42.446 -12.480   1.303  1.00  0.00    -0.267 OA
HETATM   11  N   UNL     1      41.715 -14.631   1.310  1.00  0.00    -0.309 N 
HETATM   12  H   UNL     1      41.899 -14.682   2.304  1.00  0.00     0.170 HD
ENDROOT
BRANCH   1  13
HETATM   13  C   UNL     1      40.941 -16.943   1.507  1.00  0.00     0.254 C 
BRANCH  13  14
HETATM   14  O   UNL     1      41.677 -16.806   2.722  1.00  0.00    -0.344 OA
BRANCH  14  15
HETATM   15  C   UNL     1      42.556 -17.827   2.969  1.00  0.00     0.071 A 
HETATM   16  C   UNL     1      42.699 -18.761   1.943  1.00  0.00     0.037 A 
HETATM   17  C   UNL     1      43.585 -19.826   2.087  1.00  0.00     0.005 A 
HETATM   18  C   UNL     1      44.346 -19.940   3.251  1.00  0.00     0.037 A 
HETATM   19  C   UNL     1      44.232 -18.991   4.270  1.00  0.00     0.070 A 
HETATM   20  C   UNL     1      43.331 -17.932   4.128  1.00  0.00     0.073 A 
BRANCH  19  21
HETATM   21  O   UNL     1      45.053 -19.209   5.343  1.00  0.00    -0.356 OA
HETATM   22  C   UNL     1      45.108 -18.188   6.331  1.00  0.00     0.210 C 
ENDBRANCH  19  21
ENDBRANCH  14  15
ENDBRANCH  13  14
ENDBRANCH   1  13
BRANCH   4  23
HETATM   23  O   UNL     1      40.778 -15.781  -3.341  1.00  0.00    -0.354 OA
HETATM   24  C   UNL     1      39.462 -15.792  -3.878  1.00  0.00     0.210 C 
ENDBRANCH   4  23
BRANCH   6  25
HETATM   25  C   UNL     1      42.198 -11.071  -3.679  1.00  0.00     0.010 A 
HETATM   26  C   UNL     1      42.254  -9.707  -3.303  1.00  0.00     0.152 A 
HETATM   27  N   UNL     1      42.516  -8.895  -4.331  1.00  0.00    -0.187 NA
HETATM   28  N   UNL     1      42.633  -9.734  -5.371  1.00  0.00    -0.289 N 
HETATM   29  H   UNL     1      42.838  -9.342  -6.285  1.00  0.00     0.188 HD
HETATM   30  C   UNL     1      42.449 -11.045  -5.035  1.00  0.00     0.123 A 
ENDBRANCH   6  25
TORSDOF 6
ENDMDL
MODEL 3
REMARK VINA RESULT:      -8.0      2.461      3.186
REMARK  6 active torsions:
REMARK  status: ('A' for Active; 'I' for Inactive)
REMARK    1  A    between atoms: O_2  and  C_3 
REMARK    2  A    between atoms: C_7  and  O_8 
REMARK    3  A    between atoms: O_8  and  C_9 
REMARK    4  A    between atoms: C_9  and  C_10 
REMARK    5  A    between atoms: C_13  and  O_14 
REMARK    6  A    between atoms: C_17  and  C_23 
ROOT
HETATM    1  C   UNL     1      40.164 -14.456   5.168  1.00  0.00     0.132 A 
HETATM    2  N   UNL     1      40.480 -14.759   3.952  1.00  0.00    -0.229 NA
HETATM    3  C   UNL     1      41.207 -15.948   3.719  1.00  0.00     0.108 A 
HETATM    4  C   UNL     1      41.535 -16.329   2.405  1.00  0.00     0.098 A 
HETATM    5  C   UNL     1      42.280 -17.498   2.179  1.00  0.00     0.051 A 
HETATM    6  C   UNL     1      42.696 -18.315   3.245  1.00  0.00    -0.019 A 
HETATM    7  C   UNL     1      42.351 -17.944   4.547  1.00  0.00     0.032 A 
HETATM    8  C   UNL     1      41.613 -16.776   4.770  1.00  0.00     0.064 A 
HETATM    9  C   UNL     1      41.230 -16.388   6.138  1.00  0.00     0.259 A 
HETATM   10  O   UNL     1      41.522 -17.067   7.114  1.00  0.00    -0.267 OA
HETATM   11  N   UNL     1      40.519 -15.223   6.246  1.00  0.00    -0.309 N 
HETATM   12  H   UNL     1      40.198 -14.972   7.172  1.00  0.00     0.170 HD
ENDROOT
BRANCH   1  13
HETATM   13  C   UNL     1      39.404 -13.183   5.488  1.00  0.00     0.254 C 
BRANCH  13  14
HETATM   14  O   UNL     1      40.345 -12.109   5.481  1.00  0.00    -0.344 OA
BRANCH  14  15
HETATM   15  C   UNL     1      40.604 -11.577   6.715  1.00  0.00     0.071 A 
HETATM   16  C   UNL     1      39.515 -11.507   7.583  1.00  0.00     0.037 A 
HETATM   17  C   UNL     1      39.678 -11.000   8.870  1.00  0.00     0.005 A 
HETATM   18  C   UNL     1      40.940 -10.586   9.295  1.00  0.00     0.037 A 
HETATM   19  C   UNL     1      42.044 -10.682   8.443  1.00  0.00     0.070 A 
HETATM   20  C   UNL     1      41.873 -11.177   7.147  1.00  0.00     0.073 A 
BRANCH  19  21
HETATM   21  O   UNL     1      43.225 -10.265   8.994  1.00  0.00    -0.356 OA
HETATM   22  C   UNL     1      44.003 -11.245   9.671  1.00  0.00     0.210 C 
ENDBRANCH  19  21
ENDBRANCH  14  15
ENDBRANCH  13  14
ENDBRANCH   1  13
BRANCH   4  23
HETATM   23  O   UNL     1      41.107 -15.488   1.406  1.00  0.00    -0.354 OA
HETATM   24  C   UNL     1      41.297 -15.919   0.066  1.00  0.00     0.210 C 
ENDBRANCH   4  23
BRANCH   6  25
HETATM   25  C   UNL     1      43.478 -19.513   2.984  1.00  0.00     0.010 A 
HETATM   26  C   UNL     1      43.478 -20.400   1.880  1.00  0.00     0.152 A 
HETATM   27  N   UNL     1      44.347 -21.404   2.019  1.00  0.00    -0.187 NA
HETATM   28  N   UNL     1      44.913 -21.165   3.211  1.00  0.00    -0.289 N 
HETATM   29  H   UNL     1      45.626 -21.808   3.543  1.00  0.00     0.188 HD
HETATM   30  C   UNL     1      44.427 -20.049   3.830  1.00  0.00     0.123 A 
ENDBRANCH   6  25
TORSDOF 6
ENDMDL
MODEL 4
REMARK VINA RESULT:      -8.0      1.950      3.806
REMARK  6 active torsions:
REMARK  status: ('A' for Active; 'I' for Inactive)
REMARK    1  A    between atoms: O_2  and  C_3 
REMARK    2  A    between atoms: C_7  and  O_8 
REMARK    3  A    between atoms: O_8  and  C_9 
REMARK    4  A    between atoms: C_9  and  C_10 
REMARK    5  A    between atoms: C_13  and  O_14 
REMARK    6  A    between atoms: C_17  and  C_23 
ROOT
HETATM    1  C   UNL     1      42.796 -14.585   3.933  1.00  0.00     0.132 A 
HETATM    2  N   UNL     1      43.106 -15.367   4.915  1.00  0.00    -0.229 NA
HETATM    3  C   UNL     1      43.445 -16.709   4.630  1.00  0.00     0.108 A 
HETATM    4  C   UNL     1      43.825 -17.578   5.669  1.00  0.00     0.098 A 
HETATM    5  C   UNL     1      44.136 -18.918   5.385  1.00  0.00     0.051 A 
HETATM    6  C   UNL     1      44.093 -19.413   4.070  1.00  0.00    -0.019 A 
HETATM    7  C   UNL     1      43.737 -18.542   3.038  1.00  0.00     0.032 A 
HETATM    8  C   UNL     1      43.421 -17.208   3.324  1.00  0.00     0.064 A 
HETATM    9  C   UNL     1      43.061 -16.279   2.240  1.00  0.00     0.259 A 
HETATM   10  O   UNL     1      43.039 -16.626   1.065  1.00  0.00    -0.267 OA
HETATM   11  N   UNL     1      42.761 -15.002   2.629  1.00  0.00    -0.309 N 
HETATM   12  H   UNL     1      42.569 -14.337   1.892  1.00  0.00     0.170 HD
ENDROOT
BRANCH   1  13
HETATM   13  C   UNL     1      42.401 -13.141   4.174  1.00  0.00     0.254 C 
BRANCH  13  14
HETATM   14  O   UNL     1      41.143 -13.148   4.848  1.00  0.00    -0.344 OA
BRANCH  14  15
HETATM   15  C   UNL     1      41.069 -12.294   5.915  1.00  0.00     0.071 A 
HETATM   16  C   UNL     1      39.782 -11.951   6.327  1.00  0.00     0.037 A 
HETATM   17  C   UNL     1      39.599 -11.104   7.417  1.00  0.00     0.005 A 
HETATM   18  C   UNL     1      40.708 -10.620   8.110  1.00  0.00     0.037 A 
HETATM   19  C   UNL     1      42.001 -10.984   7.726  1.00  0.00     0.070 A 
HETATM   20  C   UNL     1      42.181 -11.822   6.621  1.00  0.00     0.073 A 
BRANCH  19  21
HETATM   21  O   UNL     1      42.995 -10.460   8.507  1.00  0.00    -0.356 OA
HETATM   22  C   UNL     1      43.845 -11.383   9.176  1.00  0.00     0.210 C 
ENDBRANCH  19  21
ENDBRANCH  14  15
ENDBRANCH  13  14
ENDBRANCH   1  13
BRANCH   4  23
HETATM   23  O   UNL     1      43.841 -17.038   6.933  1.00  0.00    -0.354 OA
HETATM   24  C   UNL     1      43.542 -17.909   8.015  1.00  0.00     0.210 C 
ENDBRANCH   4  23
BRANCH   6  25
HETATM   25  C   UNL     1      44.407 -20.808   3.805  1.00  0.00     0.010 A 
HETATM   26  C   UNL     1      44.419 -21.543   2.594  1.00  0.00     0.152 A 
HETATM   27  N   UNL     1      44.756 -22.823   2.767  1.00  0.00    -0.187 NA
HETATM   28  N   UNL     1      44.967 -22.917   4.088  1.00  0.00    -0.289 N 
HETATM   29  H   UNL     1      45.244 -23.817   4.469  1.00  0.00     0.188 HD
HETATM   30  C   UNL     1      44.770 -21.741   4.754  1.00  0.00     0.123 A 
ENDBRANCH   6  25
TORSDOF 6
ENDMDL
MODEL 5
REMARK VINA RESULT:      -8.0      3.137      5.031
REMARK  6 active torsions:
REMARK  status: ('A' for Active; 'I' for Inactive)
REMARK    1  A    between atoms: O_2  and  C_3 
REMARK    2  A    between atoms: C_7  and  O_8 
REMARK    3  A    between atoms: O_8  and  C_9 
REMARK    4  A    between atoms: C_9  and  C_10 
REMARK    5  A    between atoms: C_13  and  O_14 
REMARK    6  A    between atoms: C_17  and  C_23 
ROOT
HETATM    1  C   UNL     1      42.696 -14.895   5.473  1.00  0.00     0.132 A 
HETATM    2  N   UNL     1      43.033 -15.378   4.322  1.00  0.00    -0.229 NA
HETATM    3  C   UNL     1      43.348 -16.752   4.231  1.00  0.00     0.108 A 
HETATM    4  C   UNL     1      43.682 -17.319   2.988  1.00  0.00     0.098 A 
HETATM    5  C   UNL     1      44.020 -18.680   2.905  1.00  0.00     0.051 A 
HETATM    6  C   UNL     1      44.016 -19.502   4.045  1.00  0.00    -0.019 A 
HETATM    7  C   UNL     1      43.664 -18.941   5.275  1.00  0.00     0.032 A 
HETATM    8  C   UNL     1      43.333 -17.583   5.355  1.00  0.00     0.064 A 
HETATM    9  C   UNL     1      42.943 -16.987   6.645  1.00  0.00     0.259 A 
HETATM   10  O   UNL     1      42.879 -17.647   7.674  1.00  0.00    -0.267 OA
HETATM   11  N   UNL     1      42.650 -15.651   6.615  1.00  0.00    -0.309 N 
HETATM   12  H   UNL     1      42.324 -15.239   7.480  1.00  0.00     0.170 HD
ENDROOT
BRANCH   1  13
HETATM   13  C   UNL     1      42.367 -13.424   5.643  1.00  0.00     0.254 C 
BRANCH  13  14
HETATM   14  O   UNL     1      40.946 -13.307   5.696  1.00  0.00    -0.344 OA
BRANCH  14  15
HETATM   15  C   UNL     1      40.358 -13.016   4.494  1.00  0.00     0.071 A 
HETATM   16  C   UNL     1      40.453 -11.687   4.081  1.00  0.00     0.037 A 
HETATM   17  C   UNL     1      39.905 -11.293   2.863  1.00  0.00     0.005 A 
HETATM   18  C   UNL     1      39.283 -12.237   2.047  1.00  0.00     0.037 A 
HETATM   19  C   UNL     1      39.212 -13.577   2.437  1.00  0.00     0.070 A 
HETATM   20  C   UNL     1      39.749 -13.966   3.668  1.00  0.00     0.073 A 
BRANCH  19  21
HETATM   21  O   UNL     1      38.598 -14.401   1.532  1.00  0.00    -0.356 OA
HETATM   22  C   UNL     1      38.371 -13.873   0.231  1.00  0.00     0.210 C 
ENDBRANCH  19  21
ENDBRANCH  14  15
ENDBRANCH  13  14
ENDBRANCH   1  13
BRANCH   4  23
HETATM   23  O   UNL     1      43.675 -16.464   1.911  1.00  0.00    -0.354 OA
HETATM   24  C   UNL     1      42.580 -16.562   1.011  1.00  0.00     0.210 C 
ENDBRANCH   4  23
BRANCH   6  25
HETATM   25  C   UNL     1      44.383 -20.905   3.935  1.00  0.00     0.010 A 
HETATM   26  C   UNL     1      44.425 -21.768   2.812  1.00  0.00     0.152 A 
HETATM   27  N   UNL     1      44.811 -23.008   3.124  1.00  0.00    -0.187 NA
HETATM   28  N   UNL     1      45.022 -22.947   4.447  1.00  0.00    -0.289 N 
HETATM   29  H   UNL     1      45.332 -23.789   4.925  1.00  0.00     0.188 HD
HETATM   30  C   UNL     1      44.778 -21.714   4.980  1.00  0.00     0.123 A 
ENDBRANCH   6  25
TORSDOF 6
ENDMDL
MODEL 6
REMARK VINA RESULT:      -7.9      3.719      5.715
REMARK  6 active torsions:
REMARK  status: ('A' for Active; 'I' for Inactive)
REMARK    1  A    between atoms: O_2  and  C_3 
REMARK    2  A    between atoms: C_7  and  O_8 
REMARK    3  A    between atoms: O_8  and  C_9 
REMARK    4  A    between atoms: C_9  and  C_10 
REMARK    5  A    between atoms: C_13  and  O_14 
REMARK    6  A    between atoms: C_17  and  C_23 
ROOT
HETATM    1  C   UNL     1      42.851 -14.685   3.693  1.00  0.00     0.132 A 
HETATM    2  N   UNL     1      43.208 -15.402   4.708  1.00  0.00    -0.229 NA
HETATM    3  C   UNL     1      43.534 -16.760   4.495  1.00  0.00     0.108 A 
HETATM    4  C   UNL     1      43.964 -17.561   5.569  1.00  0.00     0.098 A 
HETATM    5  C   UNL     1      44.262 -18.917   5.358  1.00  0.00     0.051 A 
HETATM    6  C   UNL     1      44.157 -19.496   4.082  1.00  0.00    -0.019 A 
HETATM    7  C   UNL     1      43.751 -18.693   3.013  1.00  0.00     0.032 A 
HETATM    8  C   UNL     1      43.449 -17.343   3.227  1.00  0.00     0.064 A 
HETATM    9  C   UNL     1      43.036 -16.486   2.103  1.00  0.00     0.259 A 
HETATM   10  O   UNL     1      42.959 -16.908   0.956  1.00  0.00    -0.267 OA
HETATM   11  N   UNL     1      42.754 -15.186   2.422  1.00  0.00    -0.309 N 
HETATM   12  H   UNL     1      42.526 -14.569   1.653  1.00  0.00     0.170 HD
ENDROOT
BRANCH   1  13
HETATM   13  C   UNL     1      42.467 -13.227   3.858  1.00  0.00     0.254 C 
BRANCH  13  14
HETATM   14  O   UNL     1      41.226 -13.189   4.562  1.00  0.00    -0.344 OA
BRANCH  14  15
HETATM   15  C   UNL     1      40.219 -12.542   3.896  1.00  0.00     0.071 A 
HETATM   16  C   UNL     1      39.980 -11.227   4.292  1.00  0.00     0.037 A 
HETATM   17  C   UNL     1      38.990 -10.476   3.662  1.00  0.00     0.005 A 
HETATM   18  C   UNL     1      38.256 -11.037   2.618  1.00  0.00     0.037 A 
HETATM   19  C   UNL     1      38.511 -12.344   2.192  1.00  0.00     0.070 A 
HETATM   20  C   UNL     1      39.494 -13.100   2.837  1.00  0.00     0.073 A 
BRANCH  19  21
HETATM   21  O   UNL     1      37.737 -12.760   1.143  1.00  0.00    -0.356 OA
HETATM   22  C   UNL     1      37.693 -14.159   0.889  1.00  0.00     0.210 C 
ENDBRANCH  19  21
ENDBRANCH  14  15
ENDBRANCH  13  14
ENDBRANCH   1  13
BRANCH   4  23
HETATM   23  O   UNL     1      44.040 -16.940   6.793  1.00  0.00    -0.354 OA
HETATM   24  C   UNL     1      43.153 -17.392   7.807  1.00  0.00     0.210 C 
ENDBRANCH   4  23
BRANCH   6  25
HETATM   25  C   UNL     1      44.460 -20.906   3.893  1.00  0.00     0.010 A 
HETATM   26  C   UNL     1      44.441 -21.712   2.728  1.00  0.00     0.152 A 
HETATM   27  N   UNL     1      44.777 -22.982   2.969  1.00  0.00    -0.187 NA
HETATM   28  N   UNL     1      45.017 -22.998   4.289  1.00  0.00    -0.289 N 
HETATM   29  H   UNL     1      45.298 -23.875   4.716  1.00  0.00     0.188 HD
HETATM   30  C   UNL     1      44.839 -21.784   4.888  1.00  0.00     0.123 A 
ENDBRANCH   6  25
TORSDOF 6
ENDMDL
MODEL 7
REMARK VINA RESULT:      -7.9      4.184      8.199
REMARK  6 active torsions:
REMARK  status: ('A' for Active; 'I' for Inactive)
REMARK    1  A    between atoms: O_2  and  C_3 
REMARK    2  A    between atoms: C_7  and  O_8 
REMARK    3  A    between atoms: O_8  and  C_9 
REMARK    4  A    between atoms: C_9  and  C_10 
REMARK    5  A    between atoms: C_13  and  O_14 
REMARK    6  A    between atoms: C_17  and  C_23 
ROOT
HETATM    1  C   UNL     1      42.000 -12.621   2.210  1.00  0.00     0.132 A 
HETATM    2  N   UNL     1      42.393 -13.834   2.001  1.00  0.00    -0.229 NA
HETATM    3  C   UNL     1      42.629 -14.670   3.115  1.00  0.00     0.108 A 
HETATM    4  C   UNL     1      43.019 -16.009   2.924  1.00  0.00     0.098 A 
HETATM    5  C   UNL     1      43.278 -16.829   4.034  1.00  0.00     0.051 A 
HETATM    6  C   UNL     1      43.137 -16.345   5.346  1.00  0.00    -0.019 A 
HETATM    7  C   UNL     1      42.729 -15.023   5.532  1.00  0.00     0.032 A 
HETATM    8  C   UNL     1      42.477 -14.205   4.424  1.00  0.00     0.064 A 
HETATM    9  C   UNL     1      42.029 -12.815   4.612  1.00  0.00     0.259 A 
HETATM   10  O   UNL     1      41.847 -12.333   5.723  1.00  0.00    -0.267 OA
HETATM   11  N   UNL     1      41.822 -12.099   3.464  1.00  0.00    -0.309 N 
HETATM   12  H   UNL     1      41.458 -11.161   3.574  1.00  0.00     0.170 HD
ENDROOT
BRANCH   1  13
HETATM   13  C   UNL     1      41.751 -11.666   1.058  1.00  0.00     0.254 C 
BRANCH  13  14
HETATM   14  O   UNL     1      42.880 -11.741   0.188  1.00  0.00    -0.344 OA
BRANCH  14  15
HETATM   15  C   UNL     1      42.564 -11.912  -1.133  1.00  0.00     0.071 A 
HETATM   16  C   UNL     1      42.794 -10.809  -1.956  1.00  0.00     0.037 A 
HETATM   17  C   UNL     1      42.526 -10.888  -3.320  1.00  0.00     0.005 A 
HETATM   18  C   UNL     1      42.049 -12.080  -3.864  1.00  0.00     0.037 A 
HETATM   19  C   UNL     1      41.846 -13.200  -3.053  1.00  0.00     0.070 A 
HETATM   20  C   UNL     1      42.102 -13.113  -1.681  1.00  0.00     0.073 A 
BRANCH  19  21
HETATM   21  O   UNL     1      41.401 -14.310  -3.718  1.00  0.00    -0.356 OA
HETATM   22  C   UNL     1      40.015 -14.613  -3.613  1.00  0.00     0.210 C 
ENDBRANCH  19  21
ENDBRANCH  14  15
ENDBRANCH  13  14
ENDBRANCH   1  13
BRANCH   4  23
HETATM   23  O   UNL     1      43.146 -16.421   1.619  1.00  0.00    -0.354 OA
HETATM   24  C   UNL     1      44.064 -17.473   1.356  1.00  0.00     0.210 C 
ENDBRANCH   4  23
BRANCH   6  25
HETATM   25  C   UNL     1      43.425 -17.212   6.478  1.00  0.00     0.010 A 
HETATM   26  C   UNL     1      43.879 -18.553   6.529  1.00  0.00     0.152 A 
HETATM   27  N   UNL     1      44.016 -19.008   7.777  1.00  0.00    -0.187 NA
HETATM   28  N   UNL     1      43.653 -17.962   8.534  1.00  0.00    -0.289 N 
HETATM   29  H   UNL     1      43.677 -18.068   9.544  1.00  0.00     0.188 HD
HETATM   30  C   UNL     1      43.288 -16.866   7.807  1.00  0.00     0.123 A 
ENDBRANCH   6  25
TORSDOF 6
ENDMDL
MODEL 8
REMARK VINA RESULT:      -7.8      3.049      3.952
REMARK  6 active torsions:
REMARK  status: ('A' for Active; 'I' for Inactive)
REMARK    1  A    between atoms: O_2  and  C_3 
REMARK    2  A    between atoms: C_7  and  O_8 
REMARK    3  A    between atoms: O_8  and  C_9 
REMARK    4  A    between atoms: C_9  and  C_10 
REMARK    5  A    between atoms: C_13  and  O_14 
REMARK    6  A    between atoms: C_17  and  C_23 
ROOT
HETATM    1  C   UNL     1      42.792 -14.882   5.609  1.00  0.00     0.132 A 
HETATM    2  N   UNL     1      43.087 -15.353   4.442  1.00  0.00    -0.229 NA
HETATM    3  C   UNL     1      43.389 -16.728   4.325  1.00  0.00     0.108 A 
HETATM    4  C   UNL     1      43.676 -17.283   3.064  1.00  0.00     0.098 A 
HETATM    5  C   UNL     1      44.001 -18.645   2.955  1.00  0.00     0.051 A 
HETATM    6  C   UNL     1      44.028 -19.481   4.085  1.00  0.00    -0.019 A 
HETATM    7  C   UNL     1      43.721 -18.932   5.332  1.00  0.00     0.032 A 
HETATM    8  C   UNL     1      43.404 -17.572   5.439  1.00  0.00     0.064 A 
HETATM    9  C   UNL     1      43.061 -16.989   6.747  1.00  0.00     0.259 A 
HETATM   10  O   UNL     1      43.027 -17.661   7.771  1.00  0.00    -0.267 OA
HETATM   11  N   UNL     1      42.778 -15.650   6.743  1.00  0.00    -0.309 N 
HETATM   12  H   UNL     1      42.484 -15.246   7.623  1.00  0.00     0.170 HD
ENDROOT
BRANCH   1  13
HETATM   13  C   UNL     1      42.480 -13.411   5.807  1.00  0.00     0.254 C 
BRANCH  13  14
HETATM   14  O   UNL     1      41.061 -13.279   5.871  1.00  0.00    -0.344 OA
BRANCH  14  15
HETATM   15  C   UNL     1      40.565 -12.181   5.220  1.00  0.00     0.071 A 
HETATM   16  C   UNL     1      39.212 -12.234   4.889  1.00  0.00     0.037 A 
HETATM   17  C   UNL     1      38.607 -11.158   4.244  1.00  0.00     0.005 A 
HETATM   18  C   UNL     1      39.355 -10.018   3.952  1.00  0.00     0.037 A 
HETATM   19  C   UNL     1      40.704  -9.942   4.309  1.00  0.00     0.070 A 
HETATM   20  C   UNL     1      41.311 -11.030   4.943  1.00  0.00     0.073 A 
BRANCH  19  21
HETATM   21  O   UNL     1      41.311  -8.759   3.987  1.00  0.00    -0.356 OA
HETATM   22  C   UNL     1      41.890  -8.020   5.055  1.00  0.00     0.210 C 
ENDBRANCH  19  21
ENDBRANCH  14  15
ENDBRANCH  13  14
ENDBRANCH   1  13
BRANCH   4  23
HETATM   23  O   UNL     1      43.640 -16.416   1.999  1.00  0.00    -0.354 OA
HETATM   24  C   UNL     1      42.678 -16.671   0.985  1.00  0.00     0.210 C 
ENDBRANCH   4  23
BRANCH   6  25
HETATM   25  C   UNL     1      44.381 -20.885   3.946  1.00  0.00     0.010 A 
HETATM   26  C   UNL     1      44.389 -21.732   2.811  1.00  0.00     0.152 A 
HETATM   27  N   UNL     1      44.771 -22.980   3.096  1.00  0.00    -0.187 NA
HETATM   28  N   UNL     1      45.014 -22.940   4.414  1.00  0.00    -0.289 N 
HETATM   29  H   UNL     1      45.327 -23.790   4.872  1.00  0.00     0.188 HD
HETATM   30  C   UNL     1      44.793 -21.712   4.970  1.00  0.00     0.123 A 
ENDBRANCH   6  25
TORSDOF 6
ENDMDL
MODEL 9
REMARK VINA RESULT:      -7.7      2.463      3.764
REMARK  6 active torsions:
REMARK  status: ('A' for Active; 'I' for Inactive)
REMARK    1  A    between atoms: O_2  and  C_3 
REMARK    2  A    between atoms: C_7  and  O_8 
REMARK    3  A    between atoms: O_8  and  C_9 
REMARK    4  A    between atoms: C_9  and  C_10 
REMARK    5  A    between atoms: C_13  and  O_14 
REMARK    6  A    between atoms: C_17  and  C_23 
ROOT
HETATM    1  C   UNL     1      42.229 -14.672   4.239  1.00  0.00     0.132 A 
HETATM    2  N   UNL     1      42.826 -15.406   5.120  1.00  0.00    -0.229 NA
HETATM    3  C   UNL     1      43.207 -16.718   4.759  1.00  0.00     0.108 A 
HETATM    4  C   UNL     1      43.894 -17.533   5.678  1.00  0.00     0.098 A 
HETATM    5  C   UNL     1      44.248 -18.845   5.325  1.00  0.00     0.051 A 
HETATM    6  C   UNL     1      43.945 -19.364   4.054  1.00  0.00    -0.019 A 
HETATM    7  C   UNL     1      43.283 -18.546   3.136  1.00  0.00     0.032 A 
HETATM    8  C   UNL     1      42.926 -17.240   3.493  1.00  0.00     0.064 A 
HETATM    9  C   UNL     1      42.243 -16.365   2.525  1.00  0.00     0.259 A 
HETATM   10  O   UNL     1      41.979 -16.733   1.387  1.00  0.00    -0.267 OA
HETATM   11  N   UNL     1      41.929 -15.113   2.978  1.00  0.00    -0.309 N 
HETATM   12  H   UNL     1      41.512 -14.479   2.308  1.00  0.00     0.170 HD
ENDROOT
BRANCH   1  13
HETATM   13  C   UNL     1      41.774 -13.263   4.570  1.00  0.00     0.254 C 
BRANCH  13  14
HETATM   14  O   UNL     1      40.710 -13.368   5.516  1.00  0.00    -0.344 OA
BRANCH  14  15
HETATM   15  C   UNL     1      40.623 -12.315   6.387  1.00  0.00     0.071 A 
HETATM   16  C   UNL     1      41.739 -11.480   6.440  1.00  0.00     0.037 A 
HETATM   17  C   UNL     1      41.741 -10.369   7.279  1.00  0.00     0.005 A 
HETATM   18  C   UNL     1      40.614 -10.081   8.048  1.00  0.00     0.037 A 
HETATM   19  C   UNL     1      39.479 -10.893   7.978  1.00  0.00     0.070 A 
HETATM   20  C   UNL     1      39.487 -12.017   7.146  1.00  0.00     0.073 A 
BRANCH  19  21
HETATM   21  O   UNL     1      38.437 -10.483   8.764  1.00  0.00    -0.356 OA
HETATM   22  C   UNL     1      38.761  -9.704   9.909  1.00  0.00     0.210 C 
ENDBRANCH  19  21
ENDBRANCH  14  15
ENDBRANCH  13  14
ENDBRANCH   1  13
BRANCH   4  23
HETATM   23  O   UNL     1      44.155 -16.972   6.905  1.00  0.00    -0.354 OA
HETATM   24  C   UNL     1      43.349 -17.392   7.997  1.00  0.00     0.210 C 
ENDBRANCH   4  23
BRANCH   6  25
HETATM   25  C   UNL     1      44.312 -20.731   3.719  1.00  0.00     0.010 A 
HETATM   26  C   UNL     1      44.334 -21.408   2.474  1.00  0.00     0.152 A 
HETATM   27  N   UNL     1      44.726 -22.680   2.581  1.00  0.00    -0.187 NA
HETATM   28  N   UNL     1      44.961 -22.826   3.893  1.00  0.00    -0.289 N 
HETATM   29  H   UNL     1      45.280 -23.731   4.227  1.00  0.00     0.188 HD
HETATM   30  C   UNL     1      44.726 -21.693   4.617  1.00  0.00     0.123 A 
ENDBRANCH   6  25
TORSDOF 6
ENDMDL
MODEL 10
REMARK VINA RESULT:      -7.7      4.733      8.126
REMARK  6 active torsions:
REMARK  status: ('A' for Active; 'I' for Inactive)
REMARK    1  A    between atoms: O_2  and  C_3 
REMARK    2  A    between atoms: C_7  and  O_8 
REMARK    3  A    between atoms: O_8  and  C_9 
REMARK    4  A    between atoms: C_9  and  C_10 
REMARK    5  A    between atoms: C_13  and  O_14 
REMARK    6  A    between atoms: C_17  and  C_23 
ROOT
HETATM    1  C   UNL     1      39.938 -14.644   2.170  1.00  0.00     0.132 A 
HETATM    2  N   UNL     1      40.722 -15.661   2.018  1.00  0.00    -0.229 NA
HETATM    3  C   UNL     1      41.280 -16.262   3.168  1.00  0.00     0.108 A 
HETATM    4  C   UNL     1      42.107 -17.394   3.043  1.00  0.00     0.098 A 
HETATM    5  C   UNL     1      42.681 -17.974   4.186  1.00  0.00     0.051 A 
HETATM    6  C   UNL     1      42.432 -17.455   5.469  1.00  0.00    -0.019 A 
HETATM    7  C   UNL     1      41.594 -16.345   5.592  1.00  0.00     0.032 A 
HETATM    8  C   UNL     1      41.028 -15.765   4.450  1.00  0.00     0.064 A 
HETATM    9  C   UNL     1      40.129 -14.605   4.572  1.00  0.00     0.259 A 
HETATM   10  O   UNL     1      39.834 -14.121   5.658  1.00  0.00    -0.267 OA
HETATM   11  N   UNL     1      39.638 -14.109   3.395  1.00  0.00    -0.309 N 
HETATM   12  H   UNL     1      38.973 -13.350   3.465  1.00  0.00     0.170 HD
ENDROOT
BRANCH   1  13
HETATM   13  C   UNL     1      39.324 -13.939   0.976  1.00  0.00     0.254 C 
BRANCH  13  14
HETATM   14  O   UNL     1      40.189 -12.860   0.625  1.00  0.00    -0.344 OA
BRANCH  14  15
HETATM   15  C   UNL     1      40.839 -13.021  -0.569  1.00  0.00     0.071 A 
HETATM   16  C   UNL     1      41.974 -12.232  -0.750  1.00  0.00     0.037 A 
HETATM   17  C   UNL     1      42.718 -12.337  -1.923  1.00  0.00     0.005 A 
HETATM   18  C   UNL     1      42.337 -13.251  -2.904  1.00  0.00     0.037 A 
HETATM   19  C   UNL     1      41.220 -14.070  -2.717  1.00  0.00     0.070 A 
HETATM   20  C   UNL     1      40.467 -13.950  -1.546  1.00  0.00     0.073 A 
BRANCH  19  21
HETATM   21  O   UNL     1      40.974 -14.938  -3.746  1.00  0.00    -0.356 OA
HETATM   22  C   UNL     1      39.891 -15.845  -3.579  1.00  0.00     0.210 C 
ENDBRANCH  19  21
ENDBRANCH  14  15
ENDBRANCH  13  14
ENDBRANCH   1  13
BRANCH   4  23
HETATM   23  O   UNL     1      42.318 -17.850   1.763  1.00  0.00    -0.354 OA
HETATM   24  C   UNL     1      43.634 -17.733   1.240  1.00  0.00     0.210 C 
ENDBRANCH   4  23
BRANCH   6  25
HETATM   25  C   UNL     1      43.050 -18.066   6.635  1.00  0.00     0.010 A 
HETATM   26  C   UNL     1      43.590 -19.361   6.828  1.00  0.00     0.152 A 
HETATM   27  N   UNL     1      44.064 -19.548   8.062  1.00  0.00    -0.187 NA
HETATM   28  N   UNL     1      43.835 -18.373   8.667  1.00  0.00    -0.289 N 
HETATM   29  H   UNL     1      44.117 -18.268   9.637  1.00  0.00     0.188 HD
HETATM   30  C   UNL     1      43.228 -17.455   7.859  1.00  0.00     0.123 A 
ENDBRANCH   6  25
TORSDOF 6
ENDMDL
