MODEL 1
REMARK VINA RESULT:      -9.3      0.000      0.000
REMARK  6 active torsions:
REMARK  status: ('A' for Active; 'I' for Inactive)
REMARK    1  A    between atoms: C_5  and  N_6 
REMARK       I    between atoms: N_6  and  C_7 
REMARK    2  A    between atoms: C_7  and  C_8 
REMARK    3  A    between atoms: C_8  and  N_9 
REMARK    4  A    between atoms: C_8  and  C_17 
REMARK       I    between atoms: N_9  and  C_10 
REMARK    5  A    between atoms: C_10  and  C_11 
REMARK    6  A    between atoms: C_17  and  C_18 
ROOT
HETATM    1  C   UNL     1      42.642 -15.981   5.042  1.00  0.00     0.181 C 
ENDROOT
BRANCH   1   2
HETATM    2  C   UNL     1      41.268 -15.365   4.658  1.00  0.00     0.245 C 
HETATM    3  N   UNL     1      41.231 -14.889   3.353  1.00  0.00    -0.325 N 
HETATM    4  H   UNL     1      42.075 -14.969   2.803  1.00  0.00     0.169 HD
HETATM    5  O   UNL     1      40.310 -15.397   5.428  1.00  0.00    -0.271 OA
BRANCH   3   6
HETATM    6  C   UNL     1      40.124 -14.349   2.663  1.00  0.00     0.034 A 
HETATM    7  C   UNL     1      39.278 -15.085   1.833  1.00  0.00     0.030 A 
HETATM    8  C   UNL     1      38.218 -14.461   1.164  1.00  0.00     0.009 A 
HETATM    9  C   UNL     1      37.986 -13.091   1.313  1.00  0.00    -0.062 A 
HETATM   10  C   UNL     1      36.849 -12.417   0.603  1.00  0.00     0.048 C 
HETATM   11  C   UNL     1      38.821 -12.355   2.158  1.00  0.00     0.009 A 
HETATM   12  C   UNL     1      39.880 -12.978   2.825  1.00  0.00     0.030 A 
ENDBRANCH   3   6
ENDBRANCH   1   2
BRANCH   1  13
HETATM   13  N   UNL     1      43.480 -14.993   5.719  1.00  0.00    -0.342 N 
HETATM   14  C   UNL     1      43.930 -15.109   7.016  1.00  0.00     0.276 C 
HETATM   15  O   UNL     1      43.577 -16.007   7.774  1.00  0.00    -0.265 OA
HETATM   16  H   UNL     1      43.962 -14.304   5.154  1.00  0.00     0.163 HD
BRANCH  14  17
HETATM   17  C   UNL     1      44.849 -14.058   7.402  1.00  0.00     0.142 A 
HETATM   18  O   UNL     1      44.699 -13.440   8.620  1.00  0.00    -0.317 OA
HETATM   19  C   UNL     1      45.684 -12.513   8.724  1.00  0.00     0.143 A 
HETATM   20  C   UNL     1      46.474 -12.519   7.600  1.00  0.00     0.027 A 
HETATM   21  C   UNL     1      45.937 -13.511   6.746  1.00  0.00     0.045 A 
ENDBRANCH  14  17
ENDBRANCH   1  13
BRANCH   1  22
HETATM   22  C   UNL     1      43.319 -16.716   3.869  1.00  0.00     0.075 C 
BRANCH  22  23
HETATM   23  C   UNL     1      43.899 -18.045   4.259  1.00  0.00    -0.028 A 
HETATM   24  C   UNL     1      43.921 -19.249   3.480  1.00  0.00    -0.002 A 
HETATM   25  C   UNL     1      44.529 -20.236   4.255  1.00  0.00     0.042 A 
HETATM   26  C   UNL     1      43.467 -19.595   2.189  1.00  0.00     0.014 A 
HETATM   27  C   UNL     1      44.700 -21.553   3.810  1.00  0.00     0.030 A 
HETATM   28  N   UNL     1      44.883 -19.654   5.449  1.00  0.00    -0.365 N 
HETATM   29  C   UNL     1      44.235 -21.871   2.532  1.00  0.00     0.002 A 
HETATM   30  C   UNL     1      43.628 -20.908   1.730  1.00  0.00     0.001 A 
HETATM   31  H   UNL     1      45.344 -20.136   6.210  1.00  0.00     0.165 HD
HETATM   32  C   UNL     1      44.513 -18.338   5.462  1.00  0.00     0.096 A 
ENDBRANCH  22  23
ENDBRANCH   1  22
TORSDOF 6
ENDMDL
MODEL 2
REMARK VINA RESULT:      -9.2      2.492      6.204
REMARK  6 active torsions:
REMARK  status: ('A' for Active; 'I' for Inactive)
REMARK    1  A    between atoms: C_5  and  N_6 
REMARK       I    between atoms: N_6  and  C_7 
REMARK    2  A    between atoms: C_7  and  C_8 
REMARK    3  A    between atoms: C_8  and  N_9 
REMARK    4  A    between atoms: C_8  and  C_17 
REMARK       I    between atoms: N_9  and  C_10 
REMARK    5  A    between atoms: C_10  and  C_11 
REMARK    6  A    between atoms: C_17  and  C_18 
ROOT
HETATM    1  C   UNL     1      43.647 -14.971   6.403  1.00  0.00     0.181 C 
ENDROOT
BRANCH   1   2
HETATM    2  C   UNL     1      43.890 -16.478   6.695  1.00  0.00     0.245 C 
HETATM    3  N   UNL     1      43.795 -17.274   5.559  1.00  0.00    -0.325 N 
HETATM    4  H   UNL     1      43.568 -16.817   4.687  1.00  0.00     0.169 HD
HETATM    5  O   UNL     1      44.219 -16.873   7.811  1.00  0.00    -0.271 OA
BRANCH   3   6
HETATM    6  C   UNL     1      44.037 -18.661   5.455  1.00  0.00     0.034 A 
HETATM    7  C   UNL     1      43.768 -19.585   6.464  1.00  0.00     0.030 A 
HETATM    8  C   UNL     1      44.067 -20.942   6.285  1.00  0.00     0.009 A 
HETATM    9  C   UNL     1      44.639 -21.397   5.094  1.00  0.00    -0.062 A 
HETATM   10  C   UNL     1      44.956 -22.849   4.894  1.00  0.00     0.048 C 
HETATM   11  C   UNL     1      44.891 -20.476   4.074  1.00  0.00     0.009 A 
HETATM   12  C   UNL     1      44.594 -19.121   4.254  1.00  0.00     0.030 A 
ENDBRANCH   3   6
ENDBRANCH   1   2
BRANCH   1  13
HETATM   13  N   UNL     1      43.996 -14.158   7.567  1.00  0.00    -0.342 N 
HETATM   14  C   UNL     1      45.101 -13.338   7.642  1.00  0.00     0.276 C 
HETATM   15  O   UNL     1      45.968 -13.295   6.775  1.00  0.00    -0.265 OA
HETATM   16  H   UNL     1      43.283 -13.988   8.265  1.00  0.00     0.163 HD
BRANCH  14  17
HETATM   17  C   UNL     1      45.146 -12.543   8.852  1.00  0.00     0.142 A 
HETATM   18  O   UNL     1      44.466 -12.970   9.968  1.00  0.00    -0.317 OA
HETATM   19  C   UNL     1      44.682 -12.052  10.944  1.00  0.00     0.143 A 
HETATM   20  C   UNL     1      45.491 -11.040  10.486  1.00  0.00     0.027 A 
HETATM   21  C   UNL     1      45.789 -11.353   9.138  1.00  0.00     0.045 A 
ENDBRANCH  14  17
ENDBRANCH   1  13
BRANCH   1  22
HETATM   22  C   UNL     1      42.254 -14.692   5.807  1.00  0.00     0.075 C 
BRANCH  22  23
HETATM   23  C   UNL     1      42.286 -14.418   4.331  1.00  0.00    -0.028 A 
HETATM   24  C   UNL     1      41.851 -15.284   3.275  1.00  0.00    -0.002 A 
HETATM   25  C   UNL     1      42.100 -14.628   2.069  1.00  0.00     0.042 A 
HETATM   26  C   UNL     1      41.281 -16.574   3.230  1.00  0.00     0.014 A 
HETATM   27  C   UNL     1      41.815 -15.197   0.822  1.00  0.00     0.030 A 
HETATM   28  N   UNL     1      42.643 -13.403   2.378  1.00  0.00    -0.365 N 
HETATM   29  C   UNL     1      41.258 -16.478   0.805  1.00  0.00     0.002 A 
HETATM   30  C   UNL     1      40.992 -17.159   1.991  1.00  0.00     0.001 A 
HETATM   31  H   UNL     1      42.924 -12.711   1.697  1.00  0.00     0.165 HD
HETATM   32  C   UNL     1      42.756 -13.264   3.733  1.00  0.00     0.096 A 
ENDBRANCH  22  23
ENDBRANCH   1  22
TORSDOF 6
ENDMDL
MODEL 3
REMARK VINA RESULT:      -8.9      2.346      2.973
REMARK  6 active torsions:
REMARK  status: ('A' for Active; 'I' for Inactive)
REMARK    1  A    between atoms: C_5  and  N_6 
REMARK       I    between atoms: N_6  and  C_7 
REMARK    2  A    between atoms: C_7  and  C_8 
REMARK    3  A    between atoms: C_8  and  N_9 
REMARK    4  A    between atoms: C_8  and  C_17 
REMARK       I    between atoms: N_9  and  C_10 
REMARK    5  A    between atoms: C_10  and  C_11 
REMARK    6  A    between atoms: C_17  and  C_18 
ROOT
HETATM    1  C   UNL     1      43.543 -15.633   6.937  1.00  0.00     0.181 C 
ENDROOT
BRANCH   1   2
HETATM    2  C   UNL     1      42.716 -15.079   5.744  1.00  0.00     0.245 C 
HETATM    3  N   UNL     1      43.383 -15.174   4.528  1.00  0.00    -0.325 N 
HETATM    4  H   UNL     1      44.316 -15.563   4.537  1.00  0.00     0.169 HD
HETATM    5  O   UNL     1      41.558 -14.690   5.888  1.00  0.00    -0.271 OA
BRANCH   3   6
HETATM    6  C   UNL     1      42.892 -14.842   3.246  1.00  0.00     0.034 A 
HETATM    7  C   UNL     1      42.639 -13.541   2.812  1.00  0.00     0.030 A 
HETATM    8  C   UNL     1      42.125 -13.306   1.531  1.00  0.00     0.009 A 
HETATM    9  C   UNL     1      41.857 -14.367   0.662  1.00  0.00    -0.062 A 
HETATM   10  C   UNL     1      41.312 -14.121  -0.713  1.00  0.00     0.048 C 
HETATM   11  C   UNL     1      42.128 -15.670   1.088  1.00  0.00     0.009 A 
HETATM   12  C   UNL     1      42.640 -15.904   2.368  1.00  0.00     0.030 A 
ENDBRANCH   3   6
ENDBRANCH   1   2
BRANCH   1  13
HETATM   13  N   UNL     1      43.984 -14.545   7.808  1.00  0.00    -0.342 N 
HETATM   14  C   UNL     1      44.878 -13.564   7.439  1.00  0.00     0.276 C 
HETATM   15  O   UNL     1      45.482 -13.570   6.371  1.00  0.00    -0.265 OA
HETATM   16  H   UNL     1      43.441 -14.346   8.639  1.00  0.00     0.163 HD
BRANCH  14  17
HETATM   17  C   UNL     1      45.046 -12.533   8.443  1.00  0.00     0.142 A 
HETATM   18  O   UNL     1      43.991 -12.205   9.259  1.00  0.00    -0.317 OA
HETATM   19  C   UNL     1      44.421 -11.227  10.098  1.00  0.00     0.143 A 
HETATM   20  C   UNL     1      45.736 -10.918   9.844  1.00  0.00     0.027 A 
HETATM   21  C   UNL     1      46.139 -11.755   8.777  1.00  0.00     0.045 A 
ENDBRANCH  14  17
ENDBRANCH   1  13
BRANCH   1  22
HETATM   22  C   UNL     1      44.654 -16.606   6.496  1.00  0.00     0.075 C 
BRANCH  22  23
HETATM   23  C   UNL     1      44.363 -18.036   6.851  1.00  0.00    -0.028 A 
HETATM   24  C   UNL     1      44.548 -19.194   6.026  1.00  0.00    -0.002 A 
HETATM   25  C   UNL     1      44.116 -20.300   6.757  1.00  0.00     0.042 A 
HETATM   26  C   UNL     1      45.033 -19.403   4.717  1.00  0.00     0.014 A 
HETATM   27  C   UNL     1      44.134 -21.603   6.245  1.00  0.00     0.030 A 
HETATM   28  N   UNL     1      43.703 -19.839   7.985  1.00  0.00    -0.365 N 
HETATM   29  C   UNL     1      44.611 -21.782   4.944  1.00  0.00     0.002 A 
HETATM   30  C   UNL     1      45.056 -20.700   4.189  1.00  0.00     0.001 A 
HETATM   31  H   UNL     1      43.337 -20.423   8.725  1.00  0.00     0.165 HD
HETATM   32  C   UNL     1      43.851 -18.482   8.055  1.00  0.00     0.096 A 
ENDBRANCH  22  23
ENDBRANCH   1  22
TORSDOF 6
ENDMDL
MODEL 4
REMARK VINA RESULT:      -8.7      3.597      7.976
REMARK  6 active torsions:
REMARK  status: ('A' for Active; 'I' for Inactive)
REMARK    1  A    between atoms: C_5  and  N_6 
REMARK       I    between atoms: N_6  and  C_7 
REMARK    2  A    between atoms: C_7  and  C_8 
REMARK    3  A    between atoms: C_8  and  N_9 
REMARK    4  A    between atoms: C_8  and  C_17 
REMARK       I    between atoms: N_9  and  C_10 
REMARK    5  A    between atoms: C_10  and  C_11 
REMARK    6  A    between atoms: C_17  and  C_18 
ROOT
HETATM    1  C   UNL     1      41.750 -16.717   0.411  1.00  0.00     0.181 C 
ENDROOT
BRANCH   1   2
HETATM    2  C   UNL     1      42.889 -17.453   1.171  1.00  0.00     0.245 C 
HETATM    3  N   UNL     1      42.457 -18.607   1.815  1.00  0.00    -0.325 N 
HETATM    4  H   UNL     1      41.476 -18.840   1.745  1.00  0.00     0.169 HD
HETATM    5  O   UNL     1      44.056 -17.071   1.108  1.00  0.00    -0.271 OA
BRANCH   3   6
HETATM    6  C   UNL     1      43.241 -19.546   2.519  1.00  0.00     0.034 A 
HETATM    7  C   UNL     1      43.638 -20.781   2.008  1.00  0.00     0.030 A 
HETATM    8  C   UNL     1      44.393 -21.666   2.789  1.00  0.00     0.009 A 
HETATM    9  C   UNL     1      44.763 -21.329   4.094  1.00  0.00    -0.062 A 
HETATM   10  C   UNL     1      45.576 -22.269   4.933  1.00  0.00     0.048 C 
HETATM   11  C   UNL     1      44.383 -20.084   4.601  1.00  0.00     0.009 A 
HETATM   12  C   UNL     1      43.628 -19.203   3.821  1.00  0.00     0.030 A 
ENDBRANCH   3   6
ENDBRANCH   1   2
BRANCH   1  13
HETATM   13  N   UNL     1      42.147 -15.348   0.086  1.00  0.00    -0.342 N 
HETATM   14  C   UNL     1      41.645 -14.622  -0.971  1.00  0.00     0.276 C 
HETATM   15  O   UNL     1      40.893 -15.095  -1.817  1.00  0.00    -0.265 OA
HETATM   16  H   UNL     1      42.628 -14.807   0.793  1.00  0.00     0.163 HD
BRANCH  14  17
HETATM   17  C   UNL     1      42.105 -13.248  -0.995  1.00  0.00     0.142 A 
HETATM   18  O   UNL     1      41.878 -12.439   0.092  1.00  0.00    -0.317 OA
HETATM   19  C   UNL     1      42.412 -11.224  -0.193  1.00  0.00     0.143 A 
HETATM   20  C   UNL     1      42.985 -11.230  -1.442  1.00  0.00     0.027 A 
HETATM   21  C   UNL     1      42.787 -12.531  -1.961  1.00  0.00     0.045 A 
ENDBRANCH  14  17
ENDBRANCH   1  13
BRANCH   1  22
HETATM   22  C   UNL     1      40.381 -16.852   1.105  1.00  0.00     0.075 C 
BRANCH  22  23
HETATM   23  C   UNL     1      40.080 -15.719   2.044  1.00  0.00    -0.028 A 
HETATM   24  C   UNL     1      40.482 -15.592   3.414  1.00  0.00    -0.002 A 
HETATM   25  C   UNL     1      39.949 -14.396   3.896  1.00  0.00     0.042 A 
HETATM   26  C   UNL     1      41.241 -16.390   4.296  1.00  0.00     0.014 A 
HETATM   27  C   UNL     1      40.128 -13.961   5.215  1.00  0.00     0.030 A 
HETATM   28  N   UNL     1      39.268 -13.808   2.857  1.00  0.00    -0.365 N 
HETATM   29  C   UNL     1      40.877 -14.774   6.069  1.00  0.00     0.002 A 
HETATM   30  C   UNL     1      41.428 -15.972   5.619  1.00  0.00     0.001 A 
HETATM   31  H   UNL     1      38.777 -12.925   2.917  1.00  0.00     0.165 HD
HETATM   32  C   UNL     1      39.343 -14.590   1.738  1.00  0.00     0.096 A 
ENDBRANCH  22  23
ENDBRANCH   1  22
TORSDOF 6
ENDMDL
MODEL 5
REMARK VINA RESULT:      -8.6      2.002      2.948
REMARK  6 active torsions:
REMARK  status: ('A' for Active; 'I' for Inactive)
REMARK    1  A    between atoms: C_5  and  N_6 
REMARK       I    between atoms: N_6  and  C_7 
REMARK    2  A    between atoms: C_7  and  C_8 
REMARK    3  A    between atoms: C_8  and  N_9 
REMARK    4  A    between atoms: C_8  and  C_17 
REMARK       I    between atoms: N_9  and  C_10 
REMARK    5  A    between atoms: C_10  and  C_11 
REMARK    6  A    between atoms: C_17  and  C_18 
ROOT
HETATM    1  C   UNL     1      42.601 -17.763   2.731  1.00  0.00     0.181 C 
ENDROOT
BRANCH   1   2
HETATM    2  C   UNL     1      41.464 -17.247   1.807  1.00  0.00     0.245 C 
HETATM    3  N   UNL     1      41.218 -15.887   1.953  1.00  0.00    -0.325 N 
HETATM    4  H   UNL     1      41.770 -15.384   2.633  1.00  0.00     0.169 HD
HETATM    5  O   UNL     1      40.923 -17.980   0.980  1.00  0.00    -0.271 OA
BRANCH   3   6
HETATM    6  C   UNL     1      40.318 -15.088   1.214  1.00  0.00     0.034 A 
HETATM    7  C   UNL     1      40.607 -14.515  -0.024  1.00  0.00     0.030 A 
HETATM    8  C   UNL     1      39.662 -13.712  -0.674  1.00  0.00     0.009 A 
HETATM    9  C   UNL     1      38.413 -13.469  -0.099  1.00  0.00    -0.062 A 
HETATM   10  C   UNL     1      37.394 -12.614  -0.792  1.00  0.00     0.048 C 
HETATM   11  C   UNL     1      38.114 -14.058   1.133  1.00  0.00     0.009 A 
HETATM   12  C   UNL     1      39.058 -14.858   1.783  1.00  0.00     0.030 A 
ENDBRANCH   3   6
ENDBRANCH   1   2
BRANCH   1  13
HETATM   13  N   UNL     1      42.979 -16.740   3.705  1.00  0.00    -0.342 N 
HETATM   14  C   UNL     1      42.654 -16.780   5.042  1.00  0.00     0.276 C 
HETATM   15  O   UNL     1      41.913 -17.627   5.531  1.00  0.00    -0.265 OA
HETATM   16  H   UNL     1      43.715 -16.091   3.457  1.00  0.00     0.163 HD
BRANCH  14  17
HETATM   17  C   UNL     1      43.259 -15.712   5.813  1.00  0.00     0.142 A 
HETATM   18  O   UNL     1      42.884 -14.412   5.579  1.00  0.00    -0.317 OA
HETATM   19  C   UNL     1      43.594 -13.630   6.432  1.00  0.00     0.143 A 
HETATM   20  C   UNL     1      44.419 -14.398   7.218  1.00  0.00     0.027 A 
HETATM   21  C   UNL     1      44.207 -15.739   6.819  1.00  0.00     0.045 A 
ENDBRANCH  14  17
ENDBRANCH   1  13
BRANCH   1  22
HETATM   22  C   UNL     1      43.775 -18.384   1.949  1.00  0.00     0.075 C 
BRANCH  22  23
HETATM   23  C   UNL     1      43.968 -19.846   2.232  1.00  0.00    -0.028 A 
HETATM   24  C   UNL     1      44.235 -20.460   3.501  1.00  0.00    -0.002 A 
HETATM   25  C   UNL     1      44.370 -21.831   3.279  1.00  0.00     0.042 A 
HETATM   26  C   UNL     1      44.387 -19.975   4.817  1.00  0.00     0.014 A 
HETATM   27  C   UNL     1      44.658 -22.740   4.304  1.00  0.00     0.030 A 
HETATM   28  N   UNL     1      44.173 -22.046   1.936  1.00  0.00    -0.365 N 
HETATM   29  C   UNL     1      44.812 -22.233   5.597  1.00  0.00     0.002 A 
HETATM   30  C   UNL     1      44.678 -20.870   5.853  1.00  0.00     0.001 A 
HETATM   31  H   UNL     1      44.213 -22.952   1.488  1.00  0.00     0.165 HD
HETATM   32  C   UNL     1      43.927 -20.863   1.298  1.00  0.00     0.096 A 
ENDBRANCH  22  23
ENDBRANCH   1  22
TORSDOF 6
ENDMDL
MODEL 6
REMARK VINA RESULT:      -8.5      2.413      3.116
REMARK  6 active torsions:
REMARK  status: ('A' for Active; 'I' for Inactive)
REMARK    1  A    between atoms: C_5  and  N_6 
REMARK       I    between atoms: N_6  and  C_7 
REMARK    2  A    between atoms: C_7  and  C_8 
REMARK    3  A    between atoms: C_8  and  N_9 
REMARK    4  A    between atoms: C_8  and  C_17 
REMARK       I    between atoms: N_9  and  C_10 
REMARK    5  A    between atoms: C_10  and  C_11 
REMARK    6  A    between atoms: C_17  and  C_18 
ROOT
HETATM    1  C   UNL     1      42.033 -16.500   3.082  1.00  0.00     0.181 C 
ENDROOT
BRANCH   1   2
HETATM    2  C   UNL     1      41.207 -16.500   1.766  1.00  0.00     0.245 C 
HETATM    3  N   UNL     1      40.963 -15.222   1.277  1.00  0.00    -0.325 N 
HETATM    4  H   UNL     1      41.317 -14.442   1.813  1.00  0.00     0.169 HD
HETATM    5  O   UNL     1      40.900 -17.546   1.198  1.00  0.00    -0.271 OA
BRANCH   3   6
HETATM    6  C   UNL     1      40.320 -14.867   0.070  1.00  0.00     0.034 A 
HETATM    7  C   UNL     1      40.831 -15.131  -1.200  1.00  0.00     0.030 A 
HETATM    8  C   UNL     1      40.139 -14.718  -2.345  1.00  0.00     0.009 A 
HETATM    9  C   UNL     1      38.924 -14.035  -2.239  1.00  0.00    -0.062 A 
HETATM   10  C   UNL     1      38.175 -13.595  -3.461  1.00  0.00     0.048 C 
HETATM   11  C   UNL     1      38.401 -13.787  -0.967  1.00  0.00     0.009 A 
HETATM   12  C   UNL     1      39.094 -14.199   0.175  1.00  0.00     0.030 A 
ENDBRANCH   3   6
ENDBRANCH   1   2
BRANCH   1  13
HETATM   13  N   UNL     1      41.808 -15.266   3.833  1.00  0.00    -0.342 N 
HETATM   14  C   UNL     1      41.207 -15.205   5.070  1.00  0.00     0.276 C 
HETATM   15  O   UNL     1      40.694 -16.175   5.619  1.00  0.00    -0.265 OA
HETATM   16  H   UNL     1      42.324 -14.438   3.561  1.00  0.00     0.163 HD
BRANCH  14  17
HETATM   17  C   UNL     1      41.224 -13.878   5.653  1.00  0.00     0.142 A 
HETATM   18  O   UNL     1      40.056 -13.334   6.131  1.00  0.00    -0.317 OA
HETATM   19  C   UNL     1      40.358 -12.104   6.620  1.00  0.00     0.143 A 
HETATM   20  C   UNL     1      41.699 -11.841   6.471  1.00  0.00     0.027 A 
HETATM   21  C   UNL     1      42.258 -12.981   5.847  1.00  0.00     0.045 A 
ENDBRANCH  14  17
ENDBRANCH   1  13
BRANCH   1  22
HETATM   22  C   UNL     1      43.513 -16.870   2.862  1.00  0.00     0.075 C 
BRANCH  22  23
HETATM   23  C   UNL     1      43.944 -18.076   3.646  1.00  0.00    -0.028 A 
HETATM   24  C   UNL     1      44.048 -19.427   3.178  1.00  0.00    -0.002 A 
HETATM   25  C   UNL     1      44.455 -20.212   4.258  1.00  0.00     0.042 A 
HETATM   26  C   UNL     1      43.822 -20.061   1.938  1.00  0.00     0.014 A 
HETATM   27  C   UNL     1      44.639 -21.596   4.164  1.00  0.00     0.030 A 
HETATM   28  N   UNL     1      44.613 -19.370   5.334  1.00  0.00    -0.365 N 
HETATM   29  C   UNL     1      44.400 -22.200   2.927  1.00  0.00     0.002 A 
HETATM   30  C   UNL     1      43.998 -21.445   1.827  1.00  0.00     0.001 A 
HETATM   31  H   UNL     1      44.903 -19.665   6.257  1.00  0.00     0.165 HD
HETATM   32  C   UNL     1      44.313 -18.085   4.978  1.00  0.00     0.096 A 
ENDBRANCH  22  23
ENDBRANCH   1  22
TORSDOF 6
ENDMDL
MODEL 7
REMARK VINA RESULT:      -8.5      1.545      6.179
REMARK  6 active torsions:
REMARK  status: ('A' for Active; 'I' for Inactive)
REMARK    1  A    between atoms: C_5  and  N_6 
REMARK       I    between atoms: N_6  and  C_7 
REMARK    2  A    between atoms: C_7  and  C_8 
REMARK    3  A    between atoms: C_8  and  N_9 
REMARK    4  A    between atoms: C_8  and  C_17 
REMARK       I    between atoms: N_9  and  C_10 
REMARK    5  A    between atoms: C_10  and  C_11 
REMARK    6  A    between atoms: C_17  and  C_18 
ROOT
HETATM    1  C   UNL     1      42.651 -15.567   4.072  1.00  0.00     0.181 C 
ENDROOT
BRANCH   1   2
HETATM    2  C   UNL     1      43.317 -14.353   4.777  1.00  0.00     0.245 C 
HETATM    3  N   UNL     1      43.132 -14.354   6.155  1.00  0.00    -0.325 N 
HETATM    4  H   UNL     1      42.588 -15.108   6.552  1.00  0.00     0.169 HD
HETATM    5  O   UNL     1      44.004 -13.545   4.156  1.00  0.00    -0.271 OA
BRANCH   3   6
HETATM    6  C   UNL     1      43.669 -13.452   7.099  1.00  0.00     0.034 A 
HETATM    7  C   UNL     1      42.974 -12.367   7.633  1.00  0.00     0.030 A 
HETATM    8  C   UNL     1      43.594 -11.504   8.545  1.00  0.00     0.009 A 
HETATM    9  C   UNL     1      44.919 -11.712   8.939  1.00  0.00    -0.062 A 
HETATM   10  C   UNL     1      45.588 -10.795   9.919  1.00  0.00     0.048 C 
HETATM   11  C   UNL     1      45.611 -12.809   8.419  1.00  0.00     0.009 A 
HETATM   12  C   UNL     1      44.991 -13.669   7.507  1.00  0.00     0.030 A 
ENDBRANCH   3   6
ENDBRANCH   1   2
BRANCH   1  13
HETATM   13  N   UNL     1      41.525 -15.132   3.248  1.00  0.00    -0.342 N 
HETATM   14  C   UNL     1      40.341 -14.634   3.746  1.00  0.00     0.276 C 
HETATM   15  O   UNL     1      40.069 -14.611   4.942  1.00  0.00    -0.265 OA
HETATM   16  H   UNL     1      41.689 -14.953   2.265  1.00  0.00     0.163 HD
BRANCH  14  17
HETATM   17  C   UNL     1      39.441 -14.154   2.717  1.00  0.00     0.142 A 
HETATM   18  O   UNL     1      39.137 -12.816   2.653  1.00  0.00    -0.317 OA
HETATM   19  C   UNL     1      38.290 -12.646   1.606  1.00  0.00     0.143 A 
HETATM   20  C   UNL     1      38.040 -13.848   0.987  1.00  0.00     0.027 A 
HETATM   21  C   UNL     1      38.778 -14.821   1.702  1.00  0.00     0.045 A 
ENDBRANCH  14  17
ENDBRANCH   1  13
BRANCH   1  22
HETATM   22  C   UNL     1      42.341 -16.726   5.039  1.00  0.00     0.075 C 
BRANCH  22  23
HETATM   23  C   UNL     1      43.355 -17.832   4.982  1.00  0.00    -0.028 A 
HETATM   24  C   UNL     1      43.534 -18.797   3.936  1.00  0.00    -0.002 A 
HETATM   25  C   UNL     1      44.570 -19.646   4.326  1.00  0.00     0.042 A 
HETATM   26  C   UNL     1      42.902 -19.035   2.697  1.00  0.00     0.014 A 
HETATM   27  C   UNL     1      45.000 -20.726   3.546  1.00  0.00     0.030 A 
HETATM   28  N   UNL     1      45.017 -19.206   5.549  1.00  0.00    -0.365 N 
HETATM   29  C   UNL     1      44.352 -20.945   2.328  1.00  0.00     0.002 A 
HETATM   30  C   UNL     1      43.319 -20.112   1.905  1.00  0.00     0.001 A 
HETATM   31  H   UNL     1      45.767 -19.634   6.075  1.00  0.00     0.165 HD
HETATM   32  C   UNL     1      44.299 -18.115   5.951  1.00  0.00     0.096 A 
ENDBRANCH  22  23
ENDBRANCH   1  22
TORSDOF 6
ENDMDL
MODEL 8
REMARK VINA RESULT:      -8.4      3.604      7.554
REMARK  6 active torsions:
REMARK  status: ('A' for Active; 'I' for Inactive)
REMARK    1  A    between atoms: C_5  and  N_6 
REMARK       I    between atoms: N_6  and  C_7 
REMARK    2  A    between atoms: C_7  and  C_8 
REMARK    3  A    between atoms: C_8  and  N_9 
REMARK    4  A    between atoms: C_8  and  C_17 
REMARK       I    between atoms: N_9  and  C_10 
REMARK    5  A    between atoms: C_10  and  C_11 
REMARK    6  A    between atoms: C_17  and  C_18 
ROOT
HETATM    1  C   UNL     1      41.653 -15.049   1.605  1.00  0.00     0.181 C 
ENDROOT
BRANCH   1   2
HETATM    2  C   UNL     1      41.862 -16.533   2.016  1.00  0.00     0.245 C 
HETATM    3  N   UNL     1      43.152 -16.797   2.462  1.00  0.00    -0.325 N 
HETATM    4  H   UNL     1      43.813 -16.032   2.459  1.00  0.00     0.169 HD
HETATM    5  O   UNL     1      40.933 -17.337   2.020  1.00  0.00    -0.271 OA
BRANCH   3   6
HETATM    6  C   UNL     1      43.653 -18.010   2.984  1.00  0.00     0.034 A 
HETATM    7  C   UNL     1      43.989 -19.121   2.211  1.00  0.00     0.030 A 
HETATM    8  C   UNL     1      44.454 -20.295   2.816  1.00  0.00     0.009 A 
HETATM    9  C   UNL     1      44.591 -20.378   4.204  1.00  0.00    -0.062 A 
HETATM   10  C   UNL     1      45.093 -21.631   4.858  1.00  0.00     0.048 C 
HETATM   11  C   UNL     1      44.273 -19.260   4.979  1.00  0.00     0.009 A 
HETATM   12  C   UNL     1      43.807 -18.088   4.375  1.00  0.00     0.030 A 
ENDBRANCH   3   6
ENDBRANCH   1   2
BRANCH   1  13
HETATM   13  N   UNL     1      41.500 -14.202   2.786  1.00  0.00    -0.342 N 
HETATM   14  C   UNL     1      42.534 -13.538   3.408  1.00  0.00     0.276 C 
HETATM   15  O   UNL     1      43.712 -13.683   3.098  1.00  0.00    -0.265 OA
HETATM   16  H   UNL     1      40.571 -13.881   3.030  1.00  0.00     0.163 HD
BRANCH  14  17
HETATM   17  C   UNL     1      42.095 -12.664   4.477  1.00  0.00     0.142 A 
HETATM   18  O   UNL     1      41.544 -11.444   4.170  1.00  0.00    -0.317 OA
HETATM   19  C   UNL     1      41.221 -10.843   5.344  1.00  0.00     0.143 A 
HETATM   20  C   UNL     1      41.548 -11.651   6.406  1.00  0.00     0.027 A 
HETATM   21  C   UNL     1      42.114 -12.823   5.851  1.00  0.00     0.045 A 
ENDBRANCH  14  17
ENDBRANCH   1  13
BRANCH   1  22
HETATM   22  C   UNL     1      40.562 -14.872   0.531  1.00  0.00     0.075 C 
BRANCH  22  23
HETATM   23  C   UNL     1      41.108 -14.454  -0.804  1.00  0.00    -0.028 A 
HETATM   24  C   UNL     1      41.710 -13.197  -1.144  1.00  0.00    -0.002 A 
HETATM   25  C   UNL     1      42.038 -13.246  -2.500  1.00  0.00     0.042 A 
HETATM   26  C   UNL     1      41.996 -12.016  -0.428  1.00  0.00     0.014 A 
HETATM   27  C   UNL     1      42.628 -12.172  -3.177  1.00  0.00     0.030 A 
HETATM   28  N   UNL     1      41.670 -14.487  -2.962  1.00  0.00    -0.365 N 
HETATM   29  C   UNL     1      42.893 -11.011  -2.446  1.00  0.00     0.002 A 
HETATM   30  C   UNL     1      42.584 -10.932  -1.090  1.00  0.00     0.001 A 
HETATM   31  H   UNL     1      41.789 -14.804  -3.915  1.00  0.00     0.165 HD
HETATM   32  C   UNL     1      41.115 -15.223  -1.952  1.00  0.00     0.096 A 
ENDBRANCH  22  23
ENDBRANCH   1  22
TORSDOF 6
ENDMDL
MODEL 9
REMARK VINA RESULT:      -8.3      2.076      2.379
REMARK  6 active torsions:
REMARK  status: ('A' for Active; 'I' for Inactive)
REMARK    1  A    between atoms: C_5  and  N_6 
REMARK       I    between atoms: N_6  and  C_7 
REMARK    2  A    between atoms: C_7  and  C_8 
REMARK    3  A    between atoms: C_8  and  N_9 
REMARK    4  A    between atoms: C_8  and  C_17 
REMARK       I    between atoms: N_9  and  C_10 
REMARK    5  A    between atoms: C_10  and  C_11 
REMARK    6  A    between atoms: C_17  and  C_18 
ROOT
HETATM    1  C   UNL     1      41.990 -15.553   5.100  1.00  0.00     0.181 C 
ENDROOT
BRANCH   1   2
HETATM    2  C   UNL     1      42.307 -15.459   3.582  1.00  0.00     0.245 C 
HETATM    3  N   UNL     1      41.169 -15.499   2.784  1.00  0.00    -0.325 N 
HETATM    4  H   UNL     1      40.278 -15.600   3.249  1.00  0.00     0.169 HD
HETATM    5  O   UNL     1      43.453 -15.276   3.173  1.00  0.00    -0.271 OA
BRANCH   3   6
HETATM    6  C   UNL     1      41.093 -15.355   1.382  1.00  0.00     0.034 A 
HETATM    7  C   UNL     1      41.392 -16.367   0.469  1.00  0.00     0.030 A 
HETATM    8  C   UNL     1      41.315 -16.128  -0.908  1.00  0.00     0.009 A 
HETATM    9  C   UNL     1      40.939 -14.874  -1.397  1.00  0.00    -0.062 A 
HETATM   10  C   UNL     1      40.850 -14.613  -2.871  1.00  0.00     0.048 C 
HETATM   11  C   UNL     1      40.620 -13.864  -0.484  1.00  0.00     0.009 A 
HETATM   12  C   UNL     1      40.698 -14.103   0.891  1.00  0.00     0.030 A 
ENDBRANCH   3   6
ENDBRANCH   1   2
BRANCH   1  13
HETATM   13  N   UNL     1      43.028 -14.889   5.887  1.00  0.00    -0.342 N 
HETATM   14  C   UNL     1      43.033 -13.546   6.195  1.00  0.00     0.276 C 
HETATM   15  O   UNL     1      42.220 -12.747   5.741  1.00  0.00    -0.265 OA
HETATM   16  H   UNL     1      43.651 -15.462   6.442  1.00  0.00     0.163 HD
BRANCH  14  17
HETATM   17  C   UNL     1      44.104 -13.167   7.094  1.00  0.00     0.142 A 
HETATM   18  O   UNL     1      43.834 -12.339   8.157  1.00  0.00    -0.317 OA
HETATM   19  C   UNL     1      44.999 -12.155   8.828  1.00  0.00     0.143 A 
HETATM   20  C   UNL     1      46.020 -12.850   8.224  1.00  0.00     0.027 A 
HETATM   21  C   UNL     1      45.446 -13.501   7.106  1.00  0.00     0.045 A 
ENDBRANCH  14  17
ENDBRANCH   1  13
BRANCH   1  22
HETATM   22  C   UNL     1      41.645 -16.985   5.553  1.00  0.00     0.075 C 
BRANCH  22  23
HETATM   23  C   UNL     1      42.820 -17.919   5.509  1.00  0.00    -0.028 A 
HETATM   24  C   UNL     1      43.277 -18.691   4.390  1.00  0.00    -0.002 A 
HETATM   25  C   UNL     1      44.377 -19.435   4.819  1.00  0.00     0.042 A 
HETATM   26  C   UNL     1      42.849 -18.839   3.054  1.00  0.00     0.014 A 
HETATM   27  C   UNL     1      45.066 -20.323   3.984  1.00  0.00     0.030 A 
HETATM   28  N   UNL     1      44.595 -19.113   6.138  1.00  0.00    -0.365 N 
HETATM   29  C   UNL     1      44.617 -20.456   2.668  1.00  0.00     0.002 A 
HETATM   30  C   UNL     1      43.525 -19.724   2.206  1.00  0.00     0.001 A 
HETATM   31  H   UNL     1      45.332 -19.503   6.710  1.00  0.00     0.165 HD
HETATM   32  C   UNL     1      43.669 -18.201   6.562  1.00  0.00     0.096 A 
ENDBRANCH  22  23
ENDBRANCH   1  22
TORSDOF 6
ENDMDL
MODEL 10
REMARK VINA RESULT:      -8.3      3.041      7.022
REMARK  6 active torsions:
REMARK  status: ('A' for Active; 'I' for Inactive)
REMARK    1  A    between atoms: C_5  and  N_6 
REMARK       I    between atoms: N_6  and  C_7 
REMARK    2  A    between atoms: C_7  and  C_8 
REMARK    3  A    between atoms: C_8  and  N_9 
REMARK    4  A    between atoms: C_8  and  C_17 
REMARK       I    between atoms: N_9  and  C_10 
REMARK    5  A    between atoms: C_10  and  C_11 
REMARK    6  A    between atoms: C_17  and  C_18 
ROOT
HETATM    1  C   UNL     1      40.314 -14.563   2.424  1.00  0.00     0.181 C 
ENDROOT
BRANCH   1   2
HETATM    2  C   UNL     1      40.702 -16.065   2.344  1.00  0.00     0.245 C 
HETATM    3  N   UNL     1      42.067 -16.284   2.498  1.00  0.00    -0.325 N 
HETATM    4  H   UNL     1      42.657 -15.473   2.625  1.00  0.00     0.169 HD
HETATM    5  O   UNL     1      39.851 -16.946   2.244  1.00  0.00    -0.271 OA
BRANCH   3   6
HETATM    6  C   UNL     1      42.740 -17.523   2.559  1.00  0.00     0.034 A 
HETATM    7  C   UNL     1      42.754 -18.464   1.530  1.00  0.00     0.030 A 
HETATM    8  C   UNL     1      43.427 -19.682   1.687  1.00  0.00     0.009 A 
HETATM    9  C   UNL     1      44.098 -19.979   2.876  1.00  0.00    -0.062 A 
HETATM   10  C   UNL     1      44.824 -21.279   3.050  1.00  0.00     0.048 C 
HETATM   11  C   UNL     1      44.102 -19.030   3.902  1.00  0.00     0.009 A 
HETATM   12  C   UNL     1      43.428 -17.815   3.745  1.00  0.00     0.030 A 
ENDBRANCH   3   6
ENDBRANCH   1   2
BRANCH   1  13
HETATM   13  N   UNL     1      41.122 -13.770   1.498  1.00  0.00    -0.342 N 
HETATM   14  C   UNL     1      40.938 -13.738   0.134  1.00  0.00     0.276 C 
HETATM   15  O   UNL     1      40.143 -14.463  -0.457  1.00  0.00    -0.265 OA
HETATM   16  H   UNL     1      41.689 -13.021   1.876  1.00  0.00     0.163 HD
BRANCH  14  17
HETATM   17  C   UNL     1      41.786 -12.774  -0.538  1.00  0.00     0.142 A 
HETATM   18  O   UNL     1      42.475 -11.845   0.204  1.00  0.00    -0.317 OA
HETATM   19  C   UNL     1      43.185 -11.083  -0.666  1.00  0.00     0.143 A 
HETATM   20  C   UNL     1      42.974 -11.502  -1.958  1.00  0.00     0.027 A 
HETATM   21  C   UNL     1      42.072 -12.590  -1.878  1.00  0.00     0.045 A 
ENDBRANCH  14  17
ENDBRANCH   1  13
BRANCH   1  22
HETATM   22  C   UNL     1      40.269 -14.031   3.869  1.00  0.00     0.075 C 
BRANCH  22  23
HETATM   23  C   UNL     1      41.589 -14.132   4.578  1.00  0.00    -0.028 A 
HETATM   24  C   UNL     1      41.982 -15.108   5.553  1.00  0.00    -0.002 A 
HETATM   25  C   UNL     1      43.279 -14.791   5.960  1.00  0.00     0.042 A 
HETATM   26  C   UNL     1      41.350 -16.226   6.138  1.00  0.00     0.014 A 
HETATM   27  C   UNL     1      43.972 -15.529   6.926  1.00  0.00     0.030 A 
HETATM   28  N   UNL     1      43.668 -13.681   5.248  1.00  0.00    -0.365 N 
HETATM   29  C   UNL     1      43.321 -16.626   7.496  1.00  0.00     0.002 A 
HETATM   30  C   UNL     1      42.029 -16.973   7.108  1.00  0.00     0.001 A 
HETATM   31  H   UNL     1      44.567 -13.227   5.337  1.00  0.00     0.165 HD
HETATM   32  C   UNL     1      42.663 -13.279   4.412  1.00  0.00     0.096 A 
ENDBRANCH  22  23
ENDBRANCH   1  22
TORSDOF 6
ENDMDL
