MODEL 1
REMARK VINA RESULT:      -8.7      0.000      0.000
REMARK  9 active torsions:
REMARK  status: ('A' for Active; 'I' for Inactive)
REMARK    1  A    between atoms: C_2  and  O_3 
REMARK    2  A    between atoms: O_3  and  C_4 
REMARK    3  A    between atoms: C_7  and  N_8 
REMARK    4  A    between atoms: C_12  and  N_13 
REMARK       I    between atoms: N_13  and  C_14 
REMARK       I    between atoms: C_14  and  N_15 
REMARK    5  A    between atoms: N_15  and  C_16 
REMARK    6  A    between atoms: C_16  and  C_17 
REMARK    7  A    between atoms: C_17  and  C_18 
REMARK    8  A    between atoms: C_21  and  S_22 
REMARK    9  A    between atoms: S_22  and  N_23 
ROOT
HETATM    1  N   UNL     1      39.907 -13.213   6.854  1.00  0.00    -0.336 N 
HETATM    2  C   UNL     1      39.410 -11.989   7.226  1.00  0.00     0.316 C 
HETATM    3  N   UNL     1      39.233 -11.926   8.580  1.00  0.00    -0.343 N 
HETATM    4  O   UNL     1      39.133 -11.092   6.444  1.00  0.00    -0.248 OA
HETATM    5  H   UNL     1      40.574 -13.583   7.519  1.00  0.00     0.164 HD
HETATM    6  H   UNL     1      39.088 -12.813   9.042  1.00  0.00     0.164 HD
ENDROOT
BRANCH   1   7
HETATM    7  C   UNL     1      40.145 -13.504   5.446  1.00  0.00     0.113 C 
HETATM    8  C   UNL     1      41.412 -12.835   4.938  1.00  0.00     0.130 C 
HETATM    9  C   UNL     1      41.955 -13.791   3.907  1.00  0.00     0.226 C 
HETATM   10  N   UNL     1      41.357 -15.040   4.102  1.00  0.00    -0.316 N 
HETATM   11  O   UNL     1      42.823 -13.464   3.113  1.00  0.00    -0.273 OA
HETATM   12  C   UNL     1      40.378 -14.988   5.164  1.00  0.00     0.157 C 
BRANCH  10  13
HETATM   13  C   UNL     1      41.764 -16.276   3.522  1.00  0.00     0.037 A 
HETATM   14  C   UNL     1      41.291 -16.705   2.276  1.00  0.00     0.032 A 
HETATM   15  C   UNL     1      41.776 -17.877   1.674  1.00  0.00     0.039 A 
HETATM   16  C   UNL     1      42.746 -18.642   2.313  1.00  0.00     0.068 A 
HETATM   17  C   UNL     1      43.177 -18.268   3.580  1.00  0.00     0.039 A 
HETATM   18  C   UNL     1      42.698 -17.096   4.175  1.00  0.00     0.032 A 
BRANCH  16  19
HETATM   19  O   UNL     1      43.321 -19.772   1.804  1.00  0.00    -0.352 OA
BRANCH  19  20
HETATM   20  C   UNL     1      44.206 -20.459   2.692  1.00  0.00     0.171 C 
HETATM   21  C   UNL     1      44.414 -21.861   2.148  1.00  0.00     0.034 C 
ENDBRANCH  19  20
ENDBRANCH  16  19
ENDBRANCH  10  13
ENDBRANCH   1   7
BRANCH   3  22
HETATM   22  C   UNL     1      38.677 -10.738   9.199  1.00  0.00     0.129 C 
BRANCH  22  23
HETATM   23  C   UNL     1      39.609 -10.110  10.241  1.00  0.00     0.058 C 
BRANCH  23  24
HETATM   24  C   UNL     1      41.062 -10.510  10.110  1.00  0.00    -0.057 A 
HETATM   25  C   UNL     1      41.768 -10.284   8.919  1.00  0.00     0.009 A 
HETATM   26  C   UNL     1      43.102 -10.678   8.801  1.00  0.00     0.025 A 
HETATM   27  C   UNL     1      43.743 -11.283   9.885  1.00  0.00     0.074 A 
HETATM   28  C   UNL     1      43.057 -11.509  11.080  1.00  0.00     0.025 A 
HETATM   29  C   UNL     1      41.722 -11.116  11.191  1.00  0.00     0.009 A 
BRANCH  27  30
HETATM   30  S   UNL     1      45.415 -11.829   9.716  1.00  0.00     0.239 S 
HETATM   31  O   UNL     1      46.218 -10.746   9.195  1.00  0.00    -0.206 OA
HETATM   32  O   UNL     1      45.792 -12.571  10.896  1.00  0.00    -0.206 OA
BRANCH  30  33
HETATM   33  N   UNL     1      45.294 -12.953   8.477  1.00  0.00    -0.225 NA
HETATM   34  H   UNL     1      44.326 -13.264   8.385  1.00  0.00     0.136 HD
HETATM   35  H   UNL     1      45.685 -12.565   7.619  1.00  0.00     0.136 HD
ENDBRANCH  30  33
ENDBRANCH  27  30
ENDBRANCH  23  24
ENDBRANCH  22  23
ENDBRANCH   3  22
TORSDOF 9
ENDMDL
MODEL 2
REMARK VINA RESULT:      -8.7      3.264      5.030
REMARK  9 active torsions:
REMARK  status: ('A' for Active; 'I' for Inactive)
REMARK    1  A    between atoms: C_2  and  O_3 
REMARK    2  A    between atoms: O_3  and  C_4 
REMARK    3  A    between atoms: C_7  and  N_8 
REMARK    4  A    between atoms: C_12  and  N_13 
REMARK       I    between atoms: N_13  and  C_14 
REMARK       I    between atoms: C_14  and  N_15 
REMARK    5  A    between atoms: N_15  and  C_16 
REMARK    6  A    between atoms: C_16  and  C_17 
REMARK    7  A    between atoms: C_17  and  C_18 
REMARK    8  A    between atoms: C_21  and  S_22 
REMARK    9  A    between atoms: S_22  and  N_23 
ROOT
HETATM    1  N   UNL     1      43.530 -14.661   7.045  1.00  0.00    -0.336 N 
HETATM    2  C   UNL     1      44.713 -14.001   7.261  1.00  0.00     0.316 C 
HETATM    3  N   UNL     1      44.619 -13.173   8.344  1.00  0.00    -0.343 N 
HETATM    4  O   UNL     1      45.704 -14.116   6.556  1.00  0.00    -0.248 OA
HETATM    5  H   UNL     1      43.066 -14.923   7.905  1.00  0.00     0.164 HD
HETATM    6  H   UNL     1      43.687 -12.850   8.565  1.00  0.00     0.164 HD
ENDROOT
BRANCH   1   7
HETATM    7  C   UNL     1      43.403 -15.578   5.919  1.00  0.00     0.113 C 
HETATM    8  C   UNL     1      42.355 -16.647   6.178  1.00  0.00     0.130 C 
HETATM    9  C   UNL     1      41.760 -16.927   4.822  1.00  0.00     0.226 C 
HETATM   10  N   UNL     1      42.080 -15.866   3.969  1.00  0.00    -0.316 N 
HETATM   11  O   UNL     1      41.067 -17.910   4.608  1.00  0.00    -0.273 OA
HETATM   12  C   UNL     1      42.923 -14.900   4.636  1.00  0.00     0.157 C 
BRANCH  10  13
HETATM   13  C   UNL     1      41.513 -15.604   2.689  1.00  0.00     0.037 A 
HETATM   14  C   UNL     1      40.387 -14.788   2.526  1.00  0.00     0.032 A 
HETATM   15  C   UNL     1      39.900 -14.460   1.251  1.00  0.00     0.039 A 
HETATM   16  C   UNL     1      40.535 -14.947   0.113  1.00  0.00     0.068 A 
HETATM   17  C   UNL     1      41.613 -15.812   0.257  1.00  0.00     0.039 A 
HETATM   18  C   UNL     1      42.102 -16.131   1.529  1.00  0.00     0.032 A 
BRANCH  16  19
HETATM   19  O   UNL     1      40.179 -14.658  -1.174  1.00  0.00    -0.352 OA
BRANCH  19  20
HETATM   20  C   UNL     1      40.937 -15.328  -2.183  1.00  0.00     0.171 C 
HETATM   21  C   UNL     1      41.421 -14.284  -3.172  1.00  0.00     0.034 C 
ENDBRANCH  19  20
ENDBRANCH  16  19
ENDBRANCH  10  13
ENDBRANCH   1   7
BRANCH   3  22
HETATM   22  C   UNL     1      45.739 -12.340   8.739  1.00  0.00     0.129 C 
BRANCH  22  23
HETATM   23  C   UNL     1      45.309 -10.979   9.298  1.00  0.00     0.058 C 
BRANCH  23  24
HETATM   24  C   UNL     1      44.081 -11.019  10.181  1.00  0.00    -0.057 A 
HETATM   25  C   UNL     1      42.816 -10.685   9.673  1.00  0.00     0.009 A 
HETATM   26  C   UNL     1      41.693 -10.704  10.502  1.00  0.00     0.025 A 
HETATM   27  C   UNL     1      41.829 -11.078  11.841  1.00  0.00     0.074 A 
HETATM   28  C   UNL     1      43.079 -11.420  12.360  1.00  0.00     0.025 A 
HETATM   29  C   UNL     1      44.199 -11.397  11.528  1.00  0.00     0.009 A 
BRANCH  27  30
HETATM   30  S   UNL     1      40.415 -11.051  12.902  1.00  0.00     0.239 S 
HETATM   31  O   UNL     1      40.845 -10.806  14.260  1.00  0.00    -0.206 OA
HETATM   32  O   UNL     1      39.367 -10.283  12.273  1.00  0.00    -0.206 OA
BRANCH  30  33
HETATM   33  N   UNL     1      39.913 -12.651  12.858  1.00  0.00    -0.225 NA
HETATM   34  H   UNL     1      39.131 -12.751  12.210  1.00  0.00     0.136 HD
HETATM   35  H   UNL     1      40.705 -13.256  12.644  1.00  0.00     0.136 HD
ENDBRANCH  30  33
ENDBRANCH  27  30
ENDBRANCH  23  24
ENDBRANCH  22  23
ENDBRANCH   3  22
TORSDOF 9
ENDMDL
MODEL 3
REMARK VINA RESULT:      -8.4      2.653      3.872
REMARK  9 active torsions:
REMARK  status: ('A' for Active; 'I' for Inactive)
REMARK    1  A    between atoms: C_2  and  O_3 
REMARK    2  A    between atoms: O_3  and  C_4 
REMARK    3  A    between atoms: C_7  and  N_8 
REMARK    4  A    between atoms: C_12  and  N_13 
REMARK       I    between atoms: N_13  and  C_14 
REMARK       I    between atoms: C_14  and  N_15 
REMARK    5  A    between atoms: N_15  and  C_16 
REMARK    6  A    between atoms: C_16  and  C_17 
REMARK    7  A    between atoms: C_17  and  C_18 
REMARK    8  A    between atoms: C_21  and  S_22 
REMARK    9  A    between atoms: S_22  and  N_23 
ROOT
HETATM    1  N   UNL     1      42.622 -13.746   6.638  1.00  0.00    -0.336 N 
HETATM    2  C   UNL     1      43.970 -13.534   6.781  1.00  0.00     0.316 C 
HETATM    3  N   UNL     1      44.246 -12.940   7.980  1.00  0.00    -0.343 N 
HETATM    4  O   UNL     1      44.804 -13.812   5.932  1.00  0.00    -0.248 OA
HETATM    5  H   UNL     1      42.174 -14.012   7.506  1.00  0.00     0.164 HD
HETATM    6  H   UNL     1      43.494 -12.395   8.379  1.00  0.00     0.164 HD
ENDROOT
BRANCH   1   7
HETATM    7  C   UNL     1      42.105 -14.347   5.415  1.00  0.00     0.113 C 
HETATM    8  C   UNL     1      42.682 -13.687   4.175  1.00  0.00     0.130 C 
HETATM    9  C   UNL     1      42.773 -14.801   3.164  1.00  0.00     0.226 C 
HETATM   10  N   UNL     1      42.694 -16.022   3.840  1.00  0.00    -0.316 N 
HETATM   11  O   UNL     1      42.954 -14.584   1.974  1.00  0.00    -0.273 OA
HETATM   12  C   UNL     1      42.483 -15.820   5.255  1.00  0.00     0.157 C 
BRANCH  10  13
HETATM   13  C   UNL     1      42.989 -17.309   3.306  1.00  0.00     0.037 A 
HETATM   14  C   UNL     1      43.956 -18.148   3.874  1.00  0.00     0.032 A 
HETATM   15  C   UNL     1      44.165 -19.451   3.397  1.00  0.00     0.039 A 
HETATM   16  C   UNL     1      43.406 -19.939   2.338  1.00  0.00     0.068 A 
HETATM   17  C   UNL     1      42.488 -19.098   1.719  1.00  0.00     0.039 A 
HETATM   18  C   UNL     1      42.276 -17.802   2.201  1.00  0.00     0.032 A 
BRANCH  16  19
HETATM   19  O   UNL     1      43.490 -21.201   1.822  1.00  0.00    -0.352 OA
BRANCH  19  20
HETATM   20  C   UNL     1      44.734 -21.869   2.043  1.00  0.00     0.171 C 
HETATM   21  C   UNL     1      44.617 -22.653   3.337  1.00  0.00     0.034 C 
ENDBRANCH  19  20
ENDBRANCH  16  19
ENDBRANCH  10  13
ENDBRANCH   1   7
BRANCH   3  22
HETATM   22  C   UNL     1      45.607 -12.581   8.332  1.00  0.00     0.129 C 
BRANCH  22  23
HETATM   23  C   UNL     1      45.684 -11.540   9.455  1.00  0.00     0.058 C 
BRANCH  23  24
HETATM   24  C   UNL     1      44.419 -11.402  10.274  1.00  0.00    -0.057 A 
HETATM   25  C   UNL     1      43.401 -10.518   9.887  1.00  0.00     0.009 A 
HETATM   26  C   UNL     1      42.249 -10.381  10.662  1.00  0.00     0.025 A 
HETATM   27  C   UNL     1      42.101 -11.148  11.821  1.00  0.00     0.074 A 
HETATM   28  C   UNL     1      43.101 -12.038  12.217  1.00  0.00     0.025 A 
HETATM   29  C   UNL     1      44.252 -12.168  11.439  1.00  0.00     0.009 A 
BRANCH  27  30
HETATM   30  S   UNL     1      40.664 -10.936  12.830  1.00  0.00     0.239 S 
HETATM   31  O   UNL     1      41.074 -10.606  14.176  1.00  0.00    -0.206 OA
HETATM   32  O   UNL     1      39.689 -10.155  12.106  1.00  0.00    -0.206 OA
BRANCH  30  33
HETATM   33  N   UNL     1      40.054 -12.496  12.902  1.00  0.00    -0.225 NA
HETATM   34  H   UNL     1      40.816 -13.171  12.823  1.00  0.00     0.136 HD
HETATM   35  H   UNL     1      39.489 -12.608  13.743  1.00  0.00     0.136 HD
ENDBRANCH  30  33
ENDBRANCH  27  30
ENDBRANCH  23  24
ENDBRANCH  22  23
ENDBRANCH   3  22
TORSDOF 9
ENDMDL
MODEL 4
REMARK VINA RESULT:      -8.3      2.659      3.538
REMARK  9 active torsions:
REMARK  status: ('A' for Active; 'I' for Inactive)
REMARK    1  A    between atoms: C_2  and  O_3 
REMARK    2  A    between atoms: O_3  and  C_4 
REMARK    3  A    between atoms: C_7  and  N_8 
REMARK    4  A    between atoms: C_12  and  N_13 
REMARK       I    between atoms: N_13  and  C_14 
REMARK       I    between atoms: C_14  and  N_15 
REMARK    5  A    between atoms: N_15  and  C_16 
REMARK    6  A    between atoms: C_16  and  C_17 
REMARK    7  A    between atoms: C_17  and  C_18 
REMARK    8  A    between atoms: C_21  and  S_22 
REMARK    9  A    between atoms: S_22  and  N_23 
ROOT
HETATM    1  N   UNL     1      40.360 -13.548   3.573  1.00  0.00    -0.336 N 
HETATM    2  C   UNL     1      40.041 -12.896   4.738  1.00  0.00     0.316 C 
HETATM    3  N   UNL     1      40.305 -11.559   4.636  1.00  0.00    -0.343 N 
HETATM    4  O   UNL     1      39.609 -13.447   5.739  1.00  0.00    -0.248 OA
HETATM    5  H   UNL     1      40.149 -13.002   2.748  1.00  0.00     0.164 HD
HETATM    6  H   UNL     1      41.020 -11.307   3.968  1.00  0.00     0.164 HD
ENDROOT
BRANCH   1   7
HETATM    7  C   UNL     1      40.181 -14.992   3.475  1.00  0.00     0.113 C 
HETATM    8  C   UNL     1      40.096 -15.451   2.029  1.00  0.00     0.130 C 
HETATM    9  C   UNL     1      40.730 -16.818   2.031  1.00  0.00     0.226 C 
HETATM   10  N   UNL     1      41.486 -16.955   3.199  1.00  0.00    -0.316 N 
HETATM   11  O   UNL     1      40.608 -17.592   1.093  1.00  0.00    -0.273 OA
HETATM   12  C   UNL     1      41.355 -15.789   4.043  1.00  0.00     0.157 C 
BRANCH  10  13
HETATM   13  C   UNL     1      42.440 -17.975   3.479  1.00  0.00     0.037 A 
HETATM   14  C   UNL     1      43.157 -18.624   2.467  1.00  0.00     0.032 A 
HETATM   15  C   UNL     1      44.163 -19.556   2.765  1.00  0.00     0.039 A 
HETATM   16  C   UNL     1      44.469 -19.856   4.088  1.00  0.00     0.068 A 
HETATM   17  C   UNL     1      43.722 -19.273   5.105  1.00  0.00     0.039 A 
HETATM   18  C   UNL     1      42.725 -18.338   4.806  1.00  0.00     0.032 A 
BRANCH  16  19
HETATM   19  O   UNL     1      45.455 -20.709   4.496  1.00  0.00    -0.352 OA
BRANCH  19  20
HETATM   20  C   UNL     1      45.003 -21.893   5.157  1.00  0.00     0.171 C 
HETATM   21  C   UNL     1      44.635 -22.909   4.091  1.00  0.00     0.034 C 
ENDBRANCH  19  20
ENDBRANCH  16  19
ENDBRANCH  10  13
ENDBRANCH   1   7
BRANCH   3  22
HETATM   22  C   UNL     1      40.084 -10.673   5.763  1.00  0.00     0.129 C 
BRANCH  22  23
HETATM   23  C   UNL     1      41.364 -10.365   6.547  1.00  0.00     0.058 C 
BRANCH  23  24
HETATM   24  C   UNL     1      41.255 -10.576   8.041  1.00  0.00    -0.057 A 
HETATM   25  C   UNL     1      40.008 -10.780   8.652  1.00  0.00     0.009 A 
HETATM   26  C   UNL     1      39.916 -10.951  10.034  1.00  0.00     0.025 A 
HETATM   27  C   UNL     1      41.078 -10.938  10.810  1.00  0.00     0.074 A 
HETATM   28  C   UNL     1      42.327 -10.743  10.218  1.00  0.00     0.025 A 
HETATM   29  C   UNL     1      42.412 -10.570   8.836  1.00  0.00     0.009 A 
BRANCH  27  30
HETATM   30  S   UNL     1      40.955 -11.102  12.566  1.00  0.00     0.239 S 
HETATM   31  O   UNL     1      42.242 -11.488  13.098  1.00  0.00    -0.206 OA
HETATM   32  O   UNL     1      40.203  -9.988  13.094  1.00  0.00    -0.206 OA
BRANCH  30  33
HETATM   33  N   UNL     1      39.967 -12.449  12.724  1.00  0.00    -0.225 NA
HETATM   34  H   UNL     1      40.461 -13.281  12.397  1.00  0.00     0.136 HD
HETATM   35  H   UNL     1      39.629 -12.520  13.683  1.00  0.00     0.136 HD
ENDBRANCH  30  33
ENDBRANCH  27  30
ENDBRANCH  23  24
ENDBRANCH  22  23
ENDBRANCH   3  22
TORSDOF 9
ENDMDL
MODEL 5
REMARK VINA RESULT:      -7.9      2.621      3.096
REMARK  9 active torsions:
REMARK  status: ('A' for Active; 'I' for Inactive)
REMARK    1  A    between atoms: C_2  and  O_3 
REMARK    2  A    between atoms: O_3  and  C_4 
REMARK    3  A    between atoms: C_7  and  N_8 
REMARK    4  A    between atoms: C_12  and  N_13 
REMARK       I    between atoms: N_13  and  C_14 
REMARK       I    between atoms: C_14  and  N_15 
REMARK    5  A    between atoms: N_15  and  C_16 
REMARK    6  A    between atoms: C_16  and  C_17 
REMARK    7  A    between atoms: C_17  and  C_18 
REMARK    8  A    between atoms: C_21  and  S_22 
REMARK    9  A    between atoms: S_22  and  N_23 
ROOT
HETATM    1  N   UNL     1      40.375 -13.072   6.614  1.00  0.00    -0.336 N 
HETATM    2  C   UNL     1      39.619 -11.971   6.929  1.00  0.00     0.316 C 
HETATM    3  N   UNL     1      39.540 -11.806   8.284  1.00  0.00    -0.343 N 
HETATM    4  O   UNL     1      39.068 -11.256   6.106  1.00  0.00    -0.248 OA
HETATM    5  H   UNL     1      41.163 -13.197   7.235  1.00  0.00     0.164 HD
HETATM    6  H   UNL     1      39.657 -12.647   8.832  1.00  0.00     0.164 HD
ENDROOT
BRANCH   1   7
HETATM    7  C   UNL     1      40.566 -13.448   5.218  1.00  0.00     0.113 C 
HETATM    8  C   UNL     1      41.761 -12.740   4.602  1.00  0.00     0.130 C 
HETATM    9  C   UNL     1      42.317 -13.732   3.614  1.00  0.00     0.226 C 
HETATM   10  N   UNL     1      41.812 -14.998   3.923  1.00  0.00    -0.316 N 
HETATM   11  O   UNL     1      43.125 -13.410   2.755  1.00  0.00    -0.273 OA
HETATM   12  C   UNL     1      40.882 -14.931   5.027  1.00  0.00     0.157 C 
BRANCH  10  13
HETATM   13  C   UNL     1      42.271 -16.245   3.409  1.00  0.00     0.037 A 
HETATM   14  C   UNL     1      43.195 -17.041   4.098  1.00  0.00     0.032 A 
HETATM   15  C   UNL     1      43.561 -18.311   3.626  1.00  0.00     0.039 A 
HETATM   16  C   UNL     1      43.007 -18.807   2.451  1.00  0.00     0.068 A 
HETATM   17  C   UNL     1      42.140 -18.005   1.719  1.00  0.00     0.039 A 
HETATM   18  C   UNL     1      41.769 -16.742   2.196  1.00  0.00     0.032 A 
BRANCH  16  19
HETATM   19  O   UNL     1      43.254 -20.043   1.922  1.00  0.00    -0.352 OA
BRANCH  19  20
HETATM   20  C   UNL     1      44.419 -20.700   2.424  1.00  0.00     0.171 C 
HETATM   21  C   UNL     1      44.355 -22.154   1.994  1.00  0.00     0.034 C 
ENDBRANCH  19  20
ENDBRANCH  16  19
ENDBRANCH  10  13
ENDBRANCH   1   7
BRANCH   3  22
HETATM   22  C   UNL     1      38.756 -10.727   8.853  1.00  0.00     0.129 C 
BRANCH  22  23
HETATM   23  C   UNL     1      39.562  -9.438   9.052  1.00  0.00     0.058 C 
BRANCH  23  24
HETATM   24  C   UNL     1      40.238  -9.320  10.401  1.00  0.00    -0.057 A 
HETATM   25  C   UNL     1      41.162  -8.297  10.658  1.00  0.00     0.009 A 
HETATM   26  C   UNL     1      41.797  -8.210  11.898  1.00  0.00     0.025 A 
HETATM   27  C   UNL     1      41.493  -9.139  12.896  1.00  0.00     0.074 A 
HETATM   28  C   UNL     1      40.571 -10.161  12.659  1.00  0.00     0.025 A 
HETATM   29  C   UNL     1      39.941 -10.243  11.417  1.00  0.00     0.009 A 
BRANCH  27  30
HETATM   30  S   UNL     1      42.337  -9.060  14.447  1.00  0.00     0.239 S 
HETATM   31  O   UNL     1      41.623  -9.860  15.417  1.00  0.00    -0.206 OA
HETATM   32  O   UNL     1      43.755  -9.203  14.222  1.00  0.00    -0.206 OA
BRANCH  30  33
HETATM   33  N   UNL     1      42.093  -7.463  14.897  1.00  0.00    -0.225 NA
HETATM   34  H   UNL     1      42.052  -7.392  15.915  1.00  0.00     0.136 HD
HETATM   35  H   UNL     1      42.806  -6.871  14.471  1.00  0.00     0.136 HD
ENDBRANCH  30  33
ENDBRANCH  27  30
ENDBRANCH  23  24
ENDBRANCH  22  23
ENDBRANCH   3  22
TORSDOF 9
ENDMDL
MODEL 6
REMARK VINA RESULT:      -7.9      2.903      9.011
REMARK  9 active torsions:
REMARK  status: ('A' for Active; 'I' for Inactive)
REMARK    1  A    between atoms: C_2  and  O_3 
REMARK    2  A    between atoms: O_3  and  C_4 
REMARK    3  A    between atoms: C_7  and  N_8 
REMARK    4  A    between atoms: C_12  and  N_13 
REMARK       I    between atoms: N_13  and  C_14 
REMARK       I    between atoms: C_14  and  N_15 
REMARK    5  A    between atoms: N_15  and  C_16 
REMARK    6  A    between atoms: C_16  and  C_17 
REMARK    7  A    between atoms: C_17  and  C_18 
REMARK    8  A    between atoms: C_21  and  S_22 
REMARK    9  A    between atoms: S_22  and  N_23 
ROOT
HETATM    1  N   UNL     1      40.787 -12.422   4.240  1.00  0.00    -0.336 N 
HETATM    2  C   UNL     1      41.298 -13.283   3.302  1.00  0.00     0.316 C 
HETATM    3  N   UNL     1      40.298 -13.987   2.690  1.00  0.00    -0.343 N 
HETATM    4  O   UNL     1      42.489 -13.422   3.071  1.00  0.00    -0.248 OA
HETATM    5  H   UNL     1      39.910 -12.006   3.953  1.00  0.00     0.164 HD
HETATM    6  H   UNL     1      39.452 -14.101   3.232  1.00  0.00     0.164 HD
ENDROOT
BRANCH   1   7
HETATM    7  C   UNL     1      41.686 -11.592   5.032  1.00  0.00     0.113 C 
HETATM    8  C   UNL     1      41.183 -10.162   5.142  1.00  0.00     0.130 C 
HETATM    9  C   UNL     1      41.630  -9.711   6.509  1.00  0.00     0.226 C 
HETATM   10  N   UNL     1      41.946 -10.841   7.268  1.00  0.00    -0.316 N 
HETATM   11  O   UNL     1      41.622  -8.534   6.838  1.00  0.00    -0.273 OA
HETATM   12  C   UNL     1      41.812 -12.048   6.485  1.00  0.00     0.157 C 
BRANCH  10  13
HETATM   13  C   UNL     1      42.165 -10.885   8.675  1.00  0.00     0.037 A 
HETATM   14  C   UNL     1      41.123 -10.727   9.597  1.00  0.00     0.032 A 
HETATM   15  C   UNL     1      41.339 -10.871  10.976  1.00  0.00     0.039 A 
HETATM   16  C   UNL     1      42.607 -11.177  11.458  1.00  0.00     0.068 A 
HETATM   17  C   UNL     1      43.667 -11.272  10.563  1.00  0.00     0.039 A 
HETATM   18  C   UNL     1      43.448 -11.136   9.188  1.00  0.00     0.032 A 
BRANCH  16  19
HETATM   19  O   UNL     1      42.924 -11.385  12.770  1.00  0.00    -0.352 OA
BRANCH  19  20
HETATM   20  C   UNL     1      42.362 -10.447  13.690  1.00  0.00     0.171 C 
HETATM   21  C   UNL     1      43.319  -9.275  13.802  1.00  0.00     0.034 C 
ENDBRANCH  19  20
ENDBRANCH  16  19
ENDBRANCH  10  13
ENDBRANCH   1   7
BRANCH   3  22
HETATM   22  C   UNL     1      40.605 -14.990   1.688  1.00  0.00     0.129 C 
BRANCH  22  23
HETATM   23  C   UNL     1      40.223 -16.410   2.121  1.00  0.00     0.058 C 
BRANCH  23  24
HETATM   24  C   UNL     1      41.274 -17.121   2.946  1.00  0.00    -0.057 A 
HETATM   25  C   UNL     1      42.278 -17.885   2.333  1.00  0.00     0.009 A 
HETATM   26  C   UNL     1      43.228 -18.555   3.104  1.00  0.00     0.025 A 
HETATM   27  C   UNL     1      43.190 -18.446   4.497  1.00  0.00     0.074 A 
HETATM   28  C   UNL     1      42.202 -17.685   5.123  1.00  0.00     0.025 A 
HETATM   29  C   UNL     1      41.252 -17.018   4.347  1.00  0.00     0.009 A 
BRANCH  27  30
HETATM   30  S   UNL     1      44.362 -19.338   5.474  1.00  0.00     0.239 S 
HETATM   31  O   UNL     1      45.398 -18.433   5.916  1.00  0.00    -0.206 OA
HETATM   32  O   UNL     1      43.655 -20.207   6.385  1.00  0.00    -0.206 OA
BRANCH  30  33
HETATM   33  N   UNL     1      45.078 -20.339   4.334  1.00  0.00    -0.225 NA
HETATM   34  H   UNL     1      46.089 -20.194   4.332  1.00  0.00     0.136 HD
HETATM   35  H   UNL     1      44.801 -21.306   4.500  1.00  0.00     0.136 HD
ENDBRANCH  30  33
ENDBRANCH  27  30
ENDBRANCH  23  24
ENDBRANCH  22  23
ENDBRANCH   3  22
TORSDOF 9
ENDMDL
MODEL 7
REMARK VINA RESULT:      -7.8      2.782      4.421
REMARK  9 active torsions:
REMARK  status: ('A' for Active; 'I' for Inactive)
REMARK    1  A    between atoms: C_2  and  O_3 
REMARK    2  A    between atoms: O_3  and  C_4 
REMARK    3  A    between atoms: C_7  and  N_8 
REMARK    4  A    between atoms: C_12  and  N_13 
REMARK       I    between atoms: N_13  and  C_14 
REMARK       I    between atoms: C_14  and  N_15 
REMARK    5  A    between atoms: N_15  and  C_16 
REMARK    6  A    between atoms: C_16  and  C_17 
REMARK    7  A    between atoms: C_17  and  C_18 
REMARK    8  A    between atoms: C_21  and  S_22 
REMARK    9  A    between atoms: S_22  and  N_23 
ROOT
HETATM    1  N   UNL     1      44.688 -13.432   6.953  1.00  0.00    -0.336 N 
HETATM    2  C   UNL     1      44.879 -13.169   8.286  1.00  0.00     0.316 C 
HETATM    3  N   UNL     1      45.844 -12.217   8.462  1.00  0.00    -0.343 N 
HETATM    4  O   UNL     1      44.285 -13.735   9.191  1.00  0.00    -0.248 OA
HETATM    5  H   UNL     1      44.763 -12.604   6.376  1.00  0.00     0.164 HD
HETATM    6  H   UNL     1      46.526 -12.147   7.719  1.00  0.00     0.164 HD
ENDROOT
BRANCH   1   7
HETATM    7  C   UNL     1      43.718 -14.439   6.541  1.00  0.00     0.113 C 
HETATM    8  C   UNL     1      43.072 -14.089   5.211  1.00  0.00     0.130 C 
HETATM    9  C   UNL     1      42.818 -15.422   4.555  1.00  0.00     0.226 C 
HETATM   10  N   UNL     1      43.605 -16.387   5.190  1.00  0.00    -0.316 N 
HETATM   11  O   UNL     1      42.081 -15.538   3.587  1.00  0.00    -0.273 OA
HETATM   12  C   UNL     1      44.338 -15.814   6.296  1.00  0.00     0.157 C 
BRANCH  10  13
HETATM   13  C   UNL     1      43.861 -17.711   4.731  1.00  0.00     0.037 A 
HETATM   14  C   UNL     1      43.676 -18.086   3.395  1.00  0.00     0.032 A 
HETATM   15  C   UNL     1      44.027 -19.366   2.939  1.00  0.00     0.039 A 
HETATM   16  C   UNL     1      44.570 -20.297   3.818  1.00  0.00     0.068 A 
HETATM   17  C   UNL     1      44.698 -19.966   5.161  1.00  0.00     0.039 A 
HETATM   18  C   UNL     1      44.356 -18.686   5.612  1.00  0.00     0.032 A 
BRANCH  16  19
HETATM   19  O   UNL     1      44.989 -21.552   3.478  1.00  0.00    -0.352 OA
BRANCH  19  20
HETATM   20  C   UNL     1      44.050 -22.327   2.729  1.00  0.00     0.171 C 
HETATM   21  C   UNL     1      44.274 -22.033   1.257  1.00  0.00     0.034 C 
ENDBRANCH  19  20
ENDBRANCH  16  19
ENDBRANCH  10  13
ENDBRANCH   1   7
BRANCH   3  22
HETATM   22  C   UNL     1      46.245 -11.807   9.794  1.00  0.00     0.129 C 
BRANCH  22  23
HETATM   23  C   UNL     1      45.698 -10.431  10.190  1.00  0.00     0.058 C 
BRANCH  23  24
HETATM   24  C   UNL     1      44.298 -10.450  10.764  1.00  0.00    -0.057 A 
HETATM   25  C   UNL     1      44.088 -10.510  12.150  1.00  0.00     0.009 A 
HETATM   26  C   UNL     1      42.792 -10.550  12.668  1.00  0.00     0.025 A 
HETATM   27  C   UNL     1      41.699 -10.510  11.800  1.00  0.00     0.074 A 
HETATM   28  C   UNL     1      41.891 -10.444  10.418  1.00  0.00     0.025 A 
HETATM   29  C   UNL     1      43.188 -10.407   9.906  1.00  0.00     0.009 A 
BRANCH  27  30
HETATM   30  S   UNL     1      40.060 -10.614  12.454  1.00  0.00     0.239 S 
HETATM   31  O   UNL     1      39.871 -11.914  13.056  1.00  0.00    -0.206 OA
HETATM   32  O   UNL     1      39.751  -9.387  13.150  1.00  0.00    -0.206 OA
BRANCH  30  33
HETATM   33  N   UNL     1      39.126 -10.609  11.061  1.00  0.00    -0.225 NA
HETATM   34  H   UNL     1      38.165 -10.350  11.289  1.00  0.00     0.136 HD
HETATM   35  H   UNL     1      39.559 -10.013  10.356  1.00  0.00     0.136 HD
ENDBRANCH  30  33
ENDBRANCH  27  30
ENDBRANCH  23  24
ENDBRANCH  22  23
ENDBRANCH   3  22
TORSDOF 9
ENDMDL
MODEL 8
REMARK VINA RESULT:      -7.8      4.770      8.096
REMARK  9 active torsions:
REMARK  status: ('A' for Active; 'I' for Inactive)
REMARK    1  A    between atoms: C_2  and  O_3 
REMARK    2  A    between atoms: O_3  and  C_4 
REMARK    3  A    between atoms: C_7  and  N_8 
REMARK    4  A    between atoms: C_12  and  N_13 
REMARK       I    between atoms: N_13  and  C_14 
REMARK       I    between atoms: C_14  and  N_15 
REMARK    5  A    between atoms: N_15  and  C_16 
REMARK    6  A    between atoms: C_16  and  C_17 
REMARK    7  A    between atoms: C_17  and  C_18 
REMARK    8  A    between atoms: C_21  and  S_22 
REMARK    9  A    between atoms: S_22  and  N_23 
ROOT
HETATM    1  N   UNL     1      41.112 -14.466   5.838  1.00  0.00    -0.336 N 
HETATM    2  C   UNL     1      41.353 -15.761   6.220  1.00  0.00     0.316 C 
HETATM    3  N   UNL     1      42.500 -15.845   6.960  1.00  0.00    -0.343 N 
HETATM    4  O   UNL     1      40.652 -16.713   5.911  1.00  0.00    -0.248 OA
HETATM    5  H   UNL     1      41.363 -13.794   6.551  1.00  0.00     0.164 HD
HETATM    6  H   UNL     1      43.181 -15.119   6.790  1.00  0.00     0.164 HD
ENDROOT
BRANCH   1   7
HETATM    7  C   UNL     1      39.949 -14.155   5.015  1.00  0.00     0.113 C 
HETATM    8  C   UNL     1      39.741 -12.656   4.877  1.00  0.00     0.130 C 
HETATM    9  C   UNL     1      39.166 -12.482   3.495  1.00  0.00     0.226 C 
HETATM   10  N   UNL     1      39.423 -13.641   2.758  1.00  0.00    -0.316 N 
HETATM   11  O   UNL     1      38.639 -11.438   3.139  1.00  0.00    -0.273 OA
HETATM   12  C   UNL     1      40.080 -14.639   3.571  1.00  0.00     0.157 C 
BRANCH  10  13
HETATM   13  C   UNL     1      39.280 -13.802   1.350  1.00  0.00     0.037 A 
HETATM   14  C   UNL     1      38.029 -13.797   0.722  1.00  0.00     0.032 A 
HETATM   15  C   UNL     1      37.912 -13.857  -0.676  1.00  0.00     0.039 A 
HETATM   16  C   UNL     1      39.051 -13.926  -1.471  1.00  0.00     0.068 A 
HETATM   17  C   UNL     1      40.298 -14.001  -0.863  1.00  0.00     0.039 A 
HETATM   18  C   UNL     1      40.413 -13.932   0.531  1.00  0.00     0.032 A 
BRANCH  16  19
HETATM   19  O   UNL     1      39.060 -13.944  -2.837  1.00  0.00    -0.352 OA
BRANCH  19  20
HETATM   20  C   UNL     1      39.974 -14.867  -3.430  1.00  0.00     0.171 C 
HETATM   21  C   UNL     1      39.167 -16.008  -4.021  1.00  0.00     0.034 C 
ENDBRANCH  19  20
ENDBRANCH  16  19
ENDBRANCH  10  13
ENDBRANCH   1   7
BRANCH   3  22
HETATM   22  C   UNL     1      42.978 -17.127   7.440  1.00  0.00     0.129 C 
BRANCH  22  23
HETATM   23  C   UNL     1      44.358 -17.501   6.888  1.00  0.00     0.058 C 
BRANCH  23  24
HETATM   24  C   UNL     1      44.337 -18.541   5.789  1.00  0.00    -0.057 A 
HETATM   25  C   UNL     1      44.708 -19.869   6.046  1.00  0.00     0.009 A 
HETATM   26  C   UNL     1      44.707 -20.816   5.020  1.00  0.00     0.025 A 
HETATM   27  C   UNL     1      44.314 -20.440   3.734  1.00  0.00     0.074 A 
HETATM   28  C   UNL     1      43.935 -19.124   3.462  1.00  0.00     0.025 A 
HETATM   29  C   UNL     1      43.940 -18.181   4.491  1.00  0.00     0.009 A 
BRANCH  27  30
HETATM   30  S   UNL     1      44.363 -21.627   2.424  1.00  0.00     0.239 S 
HETATM   31  O   UNL     1      43.051 -21.731   1.829  1.00  0.00    -0.206 OA
HETATM   32  O   UNL     1      45.554 -21.413   1.637  1.00  0.00    -0.206 OA
BRANCH  30  33
HETATM   33  N   UNL     1      44.606 -23.060   3.261  1.00  0.00    -0.225 NA
HETATM   34  H   UNL     1      44.914 -23.790   2.616  1.00  0.00     0.136 HD
HETATM   35  H   UNL     1      45.244 -22.902   4.040  1.00  0.00     0.136 HD
ENDBRANCH  30  33
ENDBRANCH  27  30
ENDBRANCH  23  24
ENDBRANCH  22  23
ENDBRANCH   3  22
TORSDOF 9
ENDMDL
MODEL 9
REMARK VINA RESULT:      -7.7      4.985      7.832
REMARK  9 active torsions:
REMARK  status: ('A' for Active; 'I' for Inactive)
REMARK    1  A    between atoms: C_2  and  O_3 
REMARK    2  A    between atoms: O_3  and  C_4 
REMARK    3  A    between atoms: C_7  and  N_8 
REMARK    4  A    between atoms: C_12  and  N_13 
REMARK       I    between atoms: N_13  and  C_14 
REMARK       I    between atoms: C_14  and  N_15 
REMARK    5  A    between atoms: N_15  and  C_16 
REMARK    6  A    between atoms: C_16  and  C_17 
REMARK    7  A    between atoms: C_17  and  C_18 
REMARK    8  A    between atoms: C_21  and  S_22 
REMARK    9  A    between atoms: S_22  and  N_23 
ROOT
HETATM    1  N   UNL     1      39.626 -13.572   3.772  1.00  0.00    -0.336 N 
HETATM    2  C   UNL     1      39.773 -12.305   3.266  1.00  0.00     0.316 C 
HETATM    3  N   UNL     1      38.611 -11.872   2.690  1.00  0.00    -0.343 N 
HETATM    4  O   UNL     1      40.814 -11.667   3.300  1.00  0.00    -0.248 OA
HETATM    5  H   UNL     1      38.713 -13.728   4.179  1.00  0.00     0.164 HD
HETATM    6  H   UNL     1      37.996 -12.600   2.354  1.00  0.00     0.164 HD
ENDROOT
BRANCH   1   7
HETATM    7  C   UNL     1      40.757 -14.238   4.408  1.00  0.00     0.113 C 
HETATM    8  C   UNL     1      40.334 -15.003   5.650  1.00  0.00     0.130 C 
HETATM    9  C   UNL     1      41.255 -16.195   5.689  1.00  0.00     0.226 C 
HETATM   10  N   UNL     1      41.826 -16.356   4.423  1.00  0.00    -0.316 N 
HETATM   11  O   UNL     1      41.372 -16.892   6.686  1.00  0.00    -0.273 OA
HETATM   12  C   UNL     1      41.408 -15.302   3.527  1.00  0.00     0.157 C 
BRANCH  10  13
HETATM   13  C   UNL     1      42.548 -17.491   3.955  1.00  0.00     0.037 A 
HETATM   14  C   UNL     1      42.273 -18.092   2.721  1.00  0.00     0.032 A 
HETATM   15  C   UNL     1      43.059 -19.148   2.230  1.00  0.00     0.039 A 
HETATM   16  C   UNL     1      44.136 -19.621   2.971  1.00  0.00     0.068 A 
HETATM   17  C   UNL     1      44.383 -19.082   4.228  1.00  0.00     0.039 A 
HETATM   18  C   UNL     1      43.604 -18.025   4.712  1.00  0.00     0.032 A 
BRANCH  16  19
HETATM   19  O   UNL     1      44.993 -20.608   2.575  1.00  0.00    -0.352 OA
BRANCH  19  20
HETATM   20  C   UNL     1      44.396 -21.890   2.371  1.00  0.00     0.171 C 
HETATM   21  C   UNL     1      44.571 -22.693   3.647  1.00  0.00     0.034 C 
ENDBRANCH  19  20
ENDBRANCH  16  19
ENDBRANCH  10  13
ENDBRANCH   1   7
BRANCH   3  22
HETATM   22  C   UNL     1      38.542 -10.572   2.051  1.00  0.00     0.129 C 
BRANCH  22  23
HETATM   23  C   UNL     1      38.016 -10.636   0.613  1.00  0.00     0.058 C 
BRANCH  23  24
HETATM   24  C   UNL     1      38.614 -11.743  -0.228  1.00  0.00    -0.057 A 
HETATM   25  C   UNL     1      37.847 -12.855  -0.607  1.00  0.00     0.009 A 
HETATM   26  C   UNL     1      38.414 -13.882  -1.364  1.00  0.00     0.025 A 
HETATM   27  C   UNL     1      39.750 -13.789  -1.763  1.00  0.00     0.074 A 
HETATM   28  C   UNL     1      40.525 -12.686  -1.400  1.00  0.00     0.025 A 
HETATM   29  C   UNL     1      39.954 -11.664  -0.641  1.00  0.00     0.009 A 
BRANCH  27  30
HETATM   30  S   UNL     1      40.482 -15.114  -2.676  1.00  0.00     0.239 S 
HETATM   31  O   UNL     1      41.214 -14.570  -3.797  1.00  0.00    -0.206 OA
HETATM   32  O   UNL     1      41.069 -16.056  -1.753  1.00  0.00    -0.206 OA
BRANCH  30  33
HETATM   33  N   UNL     1      39.136 -15.875  -3.328  1.00  0.00    -0.225 NA
HETATM   34  H   UNL     1      39.325 -16.146  -4.294  1.00  0.00     0.136 HD
HETATM   35  H   UNL     1      38.853 -16.650  -2.729  1.00  0.00     0.136 HD
ENDBRANCH  30  33
ENDBRANCH  27  30
ENDBRANCH  23  24
ENDBRANCH  22  23
ENDBRANCH   3  22
TORSDOF 9
ENDMDL
MODEL 10
REMARK VINA RESULT:      -7.5      2.844      3.233
REMARK  9 active torsions:
REMARK  status: ('A' for Active; 'I' for Inactive)
REMARK    1  A    between atoms: C_2  and  O_3 
REMARK    2  A    between atoms: O_3  and  C_4 
REMARK    3  A    between atoms: C_7  and  N_8 
REMARK    4  A    between atoms: C_12  and  N_13 
REMARK       I    between atoms: N_13  and  C_14 
REMARK       I    between atoms: C_14  and  N_15 
REMARK    5  A    between atoms: N_15  and  C_16 
REMARK    6  A    between atoms: C_16  and  C_17 
REMARK    7  A    between atoms: C_17  and  C_18 
REMARK    8  A    between atoms: C_21  and  S_22 
REMARK    9  A    between atoms: S_22  and  N_23 
ROOT
HETATM    1  N   UNL     1      39.946 -13.361   6.159  1.00  0.00    -0.336 N 
HETATM    2  C   UNL     1      41.076 -12.583   6.205  1.00  0.00     0.316 C 
HETATM    3  N   UNL     1      41.022 -11.706   7.252  1.00  0.00    -0.343 N 
HETATM    4  O   UNL     1      41.989 -12.648   5.396  1.00  0.00    -0.248 OA
HETATM    5  H   UNL     1      39.608 -13.614   7.078  1.00  0.00     0.164 HD
HETATM    6  H   UNL     1      40.093 -11.458   7.564  1.00  0.00     0.164 HD
ENDROOT
BRANCH   1   7
HETATM    7  C   UNL     1      39.785 -14.349   5.099  1.00  0.00     0.113 C 
HETATM    8  C   UNL     1      40.020 -13.744   3.725  1.00  0.00     0.130 C 
HETATM    9  C   UNL     1      40.629 -14.864   2.921  1.00  0.00     0.226 C 
HETATM   10  N   UNL     1      41.106 -15.836   3.805  1.00  0.00    -0.316 N 
HETATM   11  O   UNL     1      40.714 -14.816   1.703  1.00  0.00    -0.273 OA
HETATM   12  C   UNL     1      40.799 -15.490   5.174  1.00  0.00     0.157 C 
BRANCH  10  13
HETATM   13  C   UNL     1      41.968 -16.925   3.486  1.00  0.00     0.037 A 
HETATM   14  C   UNL     1      41.801 -17.693   2.327  1.00  0.00     0.032 A 
HETATM   15  C   UNL     1      42.717 -18.698   1.978  1.00  0.00     0.039 A 
HETATM   16  C   UNL     1      43.819 -18.952   2.787  1.00  0.00     0.068 A 
HETATM   17  C   UNL     1      43.964 -18.246   3.976  1.00  0.00     0.039 A 
HETATM   18  C   UNL     1      43.054 -17.239   4.318  1.00  0.00     0.032 A 
BRANCH  16  19
HETATM   19  O   UNL     1      44.795 -19.871   2.525  1.00  0.00    -0.352 OA
BRANCH  19  20
HETATM   20  C   UNL     1      44.475 -21.219   2.874  1.00  0.00     0.171 C 
HETATM   21  C   UNL     1      44.160 -21.970   1.593  1.00  0.00     0.034 C 
ENDBRANCH  19  20
ENDBRANCH  16  19
ENDBRANCH  10  13
ENDBRANCH   1   7
BRANCH   3  22
HETATM   22  C   UNL     1      42.092 -10.753   7.475  1.00  0.00     0.129 C 
BRANCH  22  23
HETATM   23  C   UNL     1      43.068 -11.189   8.574  1.00  0.00     0.058 C 
BRANCH  23  24
HETATM   24  C   UNL     1      42.741 -10.659   9.953  1.00  0.00    -0.057 A 
HETATM   25  C   UNL     1      43.760 -10.267  10.835  1.00  0.00     0.009 A 
HETATM   26  C   UNL     1      43.449  -9.801  12.113  1.00  0.00     0.025 A 
HETATM   27  C   UNL     1      42.112  -9.705  12.508  1.00  0.00     0.074 A 
HETATM   28  C   UNL     1      41.086 -10.084  11.640  1.00  0.00     0.025 A 
HETATM   29  C   UNL     1      41.403 -10.552  10.364  1.00  0.00     0.009 A 
BRANCH  27  30
HETATM   30  S   UNL     1      41.722  -9.164  14.145  1.00  0.00     0.239 S 
HETATM   31  O   UNL     1      41.033  -7.896  14.074  1.00  0.00    -0.206 OA
HETATM   32  O   UNL     1      41.210 -10.281  14.902  1.00  0.00    -0.206 OA
BRANCH  30  33
HETATM   33  N   UNL     1      43.241  -8.830  14.774  1.00  0.00    -0.225 NA
HETATM   34  H   UNL     1      43.160  -8.159  15.538  1.00  0.00     0.136 HD
HETATM   35  H   UNL     1      43.706  -9.699  15.036  1.00  0.00     0.136 HD
ENDBRANCH  30  33
ENDBRANCH  27  30
ENDBRANCH  23  24
ENDBRANCH  22  23
ENDBRANCH   3  22
TORSDOF 9
ENDMDL
