MODEL 1
REMARK VINA RESULT:      -9.1      0.000      0.000
REMARK  7 active torsions:
REMARK  status: ('A' for Active; 'I' for Inactive)
REMARK    1  A    between atoms: C_4  and  N_5 
REMARK       I    between atoms: N_5  and  C_6 
REMARK       I    between atoms: C_6  and  N_7 
REMARK    2  A    between atoms: N_7  and  N_8 
REMARK       I    between atoms: N_8  and  C_9 
REMARK    3  A    between atoms: C_9  and  C_10 
REMARK    4  A    between atoms: C_10  and  N_11 
REMARK    5  A    between atoms: C_10  and  C_19 
REMARK       I    between atoms: N_11  and  C_12 
REMARK    6  A    between atoms: C_12  and  C_13 
REMARK    7  A    between atoms: C_19  and  C_20 
ROOT
HETATM    1  C   UNL     1      43.416 -15.023   6.192  1.00  0.00     0.183 C 
ENDROOT
BRANCH   1   2
HETATM    2  C   UNL     1      42.506 -14.432   5.099  1.00  0.00     0.259 C 
HETATM    3  N   UNL     1      43.124 -13.629   4.167  1.00  0.00    -0.264 N 
HETATM    4  H   UNL     1      44.146 -13.533   4.110  1.00  0.00     0.190 HD
HETATM    5  O   UNL     1      41.282 -14.592   5.113  1.00  0.00    -0.269 OA
BRANCH   3   6
HETATM    6  N   UNL     1      42.386 -13.195   3.057  1.00  0.00    -0.249 N 
HETATM    7  C   UNL     1      42.469 -13.950   1.895  1.00  0.00     0.339 C 
HETATM    8  N   UNL     1      41.736 -13.380   0.875  1.00  0.00    -0.308 N 
HETATM    9  O   UNL     1      43.094 -15.005   1.854  1.00  0.00    -0.245 OA
HETATM   10  H   UNL     1      41.155 -12.600   1.140  1.00  0.00     0.170 HD
HETATM   11  H   UNL     1      42.244 -12.190   3.007  1.00  0.00     0.192 HD
BRANCH   8  12
HETATM   12  C   UNL     1      41.592 -13.853  -0.445  1.00  0.00     0.036 A 
HETATM   13  C   UNL     1      40.975 -15.061  -0.777  1.00  0.00     0.029 A 
HETATM   14  C   UNL     1      40.867 -15.458  -2.115  1.00  0.00     0.002 A 
HETATM   15  C   UNL     1      41.378 -14.655  -3.129  1.00  0.00     0.000 A 
HETATM   16  C   UNL     1      42.002 -13.452  -2.809  1.00  0.00     0.002 A 
HETATM   17  C   UNL     1      42.111 -13.055  -1.474  1.00  0.00     0.029 A 
ENDBRANCH   8  12
ENDBRANCH   3   6
ENDBRANCH   1   2
BRANCH   1  18
HETATM   18  N   UNL     1      43.640 -14.094   7.307  1.00  0.00    -0.343 N 
HETATM   19  C   UNL     1      44.798 -13.385   7.520  1.00  0.00     0.259 C 
HETATM   20  O   UNL     1      45.800 -13.599   6.840  1.00  0.00    -0.267 OA
HETATM   21  H   UNL     1      42.823 -13.790   7.823  1.00  0.00     0.163 HD
BRANCH  19  22
HETATM   22  C   UNL     1      44.773 -12.415   8.605  1.00  0.00     0.072 A 
HETATM   23  S   UNL     1      43.421 -11.402   8.904  1.00  0.00    -0.097 SA
HETATM   24  C   UNL     1      44.176 -10.673  10.254  1.00  0.00     0.050 A 
HETATM   25  C   UNL     1      45.437 -11.178  10.474  1.00  0.00     0.009 A 
HETATM   26  C   UNL     1      45.783 -12.178   9.520  1.00  0.00     0.025 A 
ENDBRANCH  19  22
ENDBRANCH   1  18
BRANCH   1  27
HETATM   27  C   UNL     1      42.922 -16.422   6.595  1.00  0.00     0.076 C 
BRANCH  27  28
HETATM   28  C   UNL     1      43.648 -17.536   5.901  1.00  0.00    -0.028 A 
HETATM   29  C   UNL     1      43.378 -18.075   4.602  1.00  0.00    -0.002 A 
HETATM   30  C   UNL     1      44.309 -19.087   4.368  1.00  0.00     0.042 A 
HETATM   31  C   UNL     1      42.426 -17.796   3.598  1.00  0.00     0.014 A 
HETATM   32  C   UNL     1      44.344 -19.830   3.182  1.00  0.00     0.030 A 
HETATM   33  N   UNL     1      45.106 -19.171   5.485  1.00  0.00    -0.365 N 
HETATM   34  C   UNL     1      43.394 -19.528   2.201  1.00  0.00     0.002 A 
HETATM   35  C   UNL     1      42.448 -18.527   2.404  1.00  0.00     0.001 A 
HETATM   36  H   UNL     1      45.864 -19.829   5.601  1.00  0.00     0.165 HD
HETATM   37  C   UNL     1      44.719 -18.243   6.412  1.00  0.00     0.096 A 
ENDBRANCH  27  28
ENDBRANCH   1  27
TORSDOF 7
ENDMDL
MODEL 2
REMARK VINA RESULT:      -9.0      3.078      5.978
REMARK  7 active torsions:
REMARK  status: ('A' for Active; 'I' for Inactive)
REMARK    1  A    between atoms: C_4  and  N_5 
REMARK       I    between atoms: N_5  and  C_6 
REMARK       I    between atoms: C_6  and  N_7 
REMARK    2  A    between atoms: N_7  and  N_8 
REMARK       I    between atoms: N_8  and  C_9 
REMARK    3  A    between atoms: C_9  and  C_10 
REMARK    4  A    between atoms: C_10  and  N_11 
REMARK    5  A    between atoms: C_10  and  C_19 
REMARK       I    between atoms: N_11  and  C_12 
REMARK    6  A    between atoms: C_12  and  C_13 
REMARK    7  A    between atoms: C_19  and  C_20 
ROOT
HETATM    1  C   UNL     1      41.262 -13.668   5.463  1.00  0.00     0.183 C 
ENDROOT
BRANCH   1   2
HETATM    2  C   UNL     1      42.480 -14.594   5.639  1.00  0.00     0.259 C 
HETATM    3  N   UNL     1      42.201 -15.910   5.933  1.00  0.00    -0.264 N 
HETATM    4  H   UNL     1      41.247 -16.294   5.903  1.00  0.00     0.190 HD
HETATM    5  O   UNL     1      43.636 -14.163   5.613  1.00  0.00    -0.269 OA
BRANCH   3   6
HETATM    6  N   UNL     1      43.255 -16.835   5.944  1.00  0.00    -0.249 N 
HETATM    7  C   UNL     1      43.094 -18.000   5.206  1.00  0.00     0.339 C 
HETATM    8  N   UNL     1      44.181 -18.837   5.350  1.00  0.00    -0.308 N 
HETATM    9  O   UNL     1      42.109 -18.186   4.499  1.00  0.00    -0.245 OA
HETATM   10  H   UNL     1      44.970 -18.445   5.840  1.00  0.00     0.170 HD
HETATM   11  H   UNL     1      43.808 -16.840   6.796  1.00  0.00     0.192 HD
BRANCH   8  12
HETATM   12  C   UNL     1      44.370 -20.105   4.764  1.00  0.00     0.036 A 
HETATM   13  C   UNL     1      44.569 -21.279   5.493  1.00  0.00     0.029 A 
HETATM   14  C   UNL     1      44.745 -22.501   4.836  1.00  0.00     0.002 A 
HETATM   15  C   UNL     1      44.727 -22.560   3.446  1.00  0.00     0.000 A 
HETATM   16  C   UNL     1      44.536 -21.394   2.708  1.00  0.00     0.002 A 
HETATM   17  C   UNL     1      44.361 -20.173   3.364  1.00  0.00     0.029 A 
ENDBRANCH   8  12
ENDBRANCH   3   6
ENDBRANCH   1   2
BRANCH   1  18
HETATM   18  N   UNL     1      41.265 -12.542   6.405  1.00  0.00    -0.343 N 
HETATM   19  C   UNL     1      40.140 -11.910   6.880  1.00  0.00     0.259 C 
HETATM   20  O   UNL     1      39.031 -12.174   6.420  1.00  0.00    -0.267 OA
HETATM   21  H   UNL     1      42.129 -12.361   6.904  1.00  0.00     0.163 HD
BRANCH  19  22
HETATM   22  C   UNL     1      40.349 -10.903   7.910  1.00  0.00     0.072 A 
HETATM   23  S   UNL     1      39.092 -10.372   8.948  1.00  0.00    -0.097 SA
HETATM   24  C   UNL     1      40.136  -9.307   9.785  1.00  0.00     0.050 A 
HETATM   25  C   UNL     1      41.417  -9.342   9.284  1.00  0.00     0.009 A 
HETATM   26  C   UNL     1      41.538 -10.258   8.200  1.00  0.00     0.025 A 
ENDBRANCH  19  22
ENDBRANCH   1  18
BRANCH   1  27
HETATM   27  C   UNL     1      41.098 -13.283   3.983  1.00  0.00     0.076 C 
BRANCH  27  28
HETATM   28  C   UNL     1      40.692 -14.432   3.108  1.00  0.00    -0.028 A 
HETATM   29  C   UNL     1      41.550 -15.368   2.446  1.00  0.00    -0.002 A 
HETATM   30  C   UNL     1      40.735 -16.264   1.754  1.00  0.00     0.042 A 
HETATM   31  C   UNL     1      42.948 -15.538   2.370  1.00  0.00     0.014 A 
HETATM   32  C   UNL     1      41.244 -17.326   0.996  1.00  0.00     0.030 A 
HETATM   33  N   UNL     1      39.433 -15.882   1.975  1.00  0.00    -0.365 N 
HETATM   34  C   UNL     1      42.633 -17.476   0.944  1.00  0.00     0.002 A 
HETATM   35  C   UNL     1      43.475 -16.596   1.618  1.00  0.00     0.001 A 
HETATM   36  H   UNL     1      38.625 -16.348   1.586  1.00  0.00     0.165 HD
HETATM   37  C   UNL     1      39.395 -14.784   2.789  1.00  0.00     0.096 A 
ENDBRANCH  27  28
ENDBRANCH   1  27
TORSDOF 7
ENDMDL
MODEL 3
REMARK VINA RESULT:      -8.9      3.174      8.422
REMARK  7 active torsions:
REMARK  status: ('A' for Active; 'I' for Inactive)
REMARK    1  A    between atoms: C_4  and  N_5 
REMARK       I    between atoms: N_5  and  C_6 
REMARK       I    between atoms: C_6  and  N_7 
REMARK    2  A    between atoms: N_7  and  N_8 
REMARK       I    between atoms: N_8  and  C_9 
REMARK    3  A    between atoms: C_9  and  C_10 
REMARK    4  A    between atoms: C_10  and  N_11 
REMARK    5  A    between atoms: C_10  and  C_19 
REMARK       I    between atoms: N_11  and  C_12 
REMARK    6  A    between atoms: C_12  and  C_13 
REMARK    7  A    between atoms: C_19  and  C_20 
ROOT
HETATM    1  C   UNL     1      42.852 -13.337   5.252  1.00  0.00     0.183 C 
ENDROOT
BRANCH   1   2
HETATM    2  C   UNL     1      42.074 -12.581   6.346  1.00  0.00     0.259 C 
HETATM    3  N   UNL     1      42.819 -12.123   7.410  1.00  0.00    -0.264 N 
HETATM    4  H   UNL     1      43.847 -12.155   7.420  1.00  0.00     0.190 HD
HETATM    5  O   UNL     1      40.845 -12.475   6.318  1.00  0.00    -0.269 OA
BRANCH   3   6
HETATM    6  N   UNL     1      42.203 -11.290   8.354  1.00  0.00    -0.249 N 
HETATM    7  C   UNL     1      42.733 -11.271   9.637  1.00  0.00     0.339 C 
HETATM    8  N   UNL     1      42.000 -10.452  10.469  1.00  0.00    -0.308 N 
HETATM    9  O   UNL     1      43.753 -11.890   9.924  1.00  0.00    -0.245 OA
HETATM   10  H   UNL     1      41.291  -9.895  10.017  1.00  0.00     0.170 HD
HETATM   11  H   UNL     1      41.208 -11.144   8.208  1.00  0.00     0.192 HD
BRANCH   8  12
HETATM   12  C   UNL     1      42.227 -10.193  11.836  1.00  0.00     0.036 A 
HETATM   13  C   UNL     1      43.342  -9.509  12.324  1.00  0.00     0.029 A 
HETATM   14  C   UNL     1      43.494  -9.288  13.698  1.00  0.00     0.002 A 
HETATM   15  C   UNL     1      42.534  -9.750  14.593  1.00  0.00     0.000 A 
HETATM   16  C   UNL     1      41.421 -10.439  14.118  1.00  0.00     0.002 A 
HETATM   17  C   UNL     1      41.271 -10.661  12.746  1.00  0.00     0.029 A 
ENDBRANCH   8  12
ENDBRANCH   3   6
ENDBRANCH   1   2
BRANCH   1  18
HETATM   18  N   UNL     1      43.096 -14.742   5.598  1.00  0.00    -0.343 N 
HETATM   19  C   UNL     1      44.065 -15.181   6.470  1.00  0.00     0.259 C 
HETATM   20  O   UNL     1      44.902 -14.402   6.921  1.00  0.00    -0.267 OA
HETATM   21  H   UNL     1      42.373 -15.409   5.355  1.00  0.00     0.163 HD
BRANCH  19  22
HETATM   22  C   UNL     1      44.058 -16.602   6.783  1.00  0.00     0.072 A 
HETATM   23  S   UNL     1      43.505 -17.211   8.288  1.00  0.00    -0.097 SA
HETATM   24  C   UNL     1      43.796 -18.830   7.820  1.00  0.00     0.050 A 
HETATM   25  C   UNL     1      44.313 -18.914   6.547  1.00  0.00     0.009 A 
HETATM   26  C   UNL     1      44.469 -17.630   5.952  1.00  0.00     0.025 A 
ENDBRANCH  19  22
ENDBRANCH   1  18
BRANCH   1  27
HETATM   27  C   UNL     1      42.196 -13.105   3.880  1.00  0.00     0.076 C 
BRANCH  27  28
HETATM   28  C   UNL     1      41.513 -14.322   3.330  1.00  0.00    -0.028 A 
HETATM   29  C   UNL     1      42.119 -15.430   2.655  1.00  0.00    -0.002 A 
HETATM   30  C   UNL     1      41.101 -16.329   2.333  1.00  0.00     0.042 A 
HETATM   31  C   UNL     1      43.441 -15.756   2.288  1.00  0.00     0.014 A 
HETATM   32  C   UNL     1      41.337 -17.538   1.669  1.00  0.00     0.030 A 
HETATM   33  N   UNL     1      39.921 -15.783   2.781  1.00  0.00    -0.365 N 
HETATM   34  C   UNL     1      42.657 -17.840   1.323  1.00  0.00     0.002 A 
HETATM   35  C   UNL     1      43.695 -16.963   1.626  1.00  0.00     0.001 A 
HETATM   36  H   UNL     1      39.013 -16.214   2.674  1.00  0.00     0.165 HD
HETATM   37  C   UNL     1      40.157 -14.579   3.383  1.00  0.00     0.096 A 
ENDBRANCH  27  28
ENDBRANCH   1  27
TORSDOF 7
ENDMDL
MODEL 4
REMARK VINA RESULT:      -8.9      2.318      7.859
REMARK  7 active torsions:
REMARK  status: ('A' for Active; 'I' for Inactive)
REMARK    1  A    between atoms: C_4  and  N_5 
REMARK       I    between atoms: N_5  and  C_6 
REMARK       I    between atoms: C_6  and  N_7 
REMARK    2  A    between atoms: N_7  and  N_8 
REMARK       I    between atoms: N_8  and  C_9 
REMARK    3  A    between atoms: C_9  and  C_10 
REMARK    4  A    between atoms: C_10  and  N_11 
REMARK    5  A    between atoms: C_10  and  C_19 
REMARK       I    between atoms: N_11  and  C_12 
REMARK    6  A    between atoms: C_12  and  C_13 
REMARK    7  A    between atoms: C_19  and  C_20 
ROOT
HETATM    1  C   UNL     1      42.095 -16.523   3.565  1.00  0.00     0.183 C 
ENDROOT
BRANCH   1   2
HETATM    2  C   UNL     1      41.807 -15.483   4.664  1.00  0.00     0.259 C 
HETATM    3  N   UNL     1      42.863 -14.674   5.022  1.00  0.00    -0.264 N 
HETATM    4  H   UNL     1      43.750 -14.660   4.503  1.00  0.00     0.190 HD
HETATM    5  O   UNL     1      40.724 -15.441   5.255  1.00  0.00    -0.269 OA
BRANCH   3   6
HETATM    6  N   UNL     1      42.625 -13.604   5.896  1.00  0.00    -0.249 N 
HETATM    7  C   UNL     1      43.568 -13.360   6.885  1.00  0.00     0.339 C 
HETATM    8  N   UNL     1      43.181 -12.317   7.699  1.00  0.00    -0.308 N 
HETATM    9  O   UNL     1      44.615 -13.996   6.949  1.00  0.00    -0.245 OA
HETATM   10  H   UNL     1      42.367 -11.806   7.394  1.00  0.00     0.170 HD
HETATM   11  H   UNL     1      41.643 -13.400   6.062  1.00  0.00     0.192 HD
BRANCH   8  12
HETATM   12  C   UNL     1      43.874 -11.793   8.809  1.00  0.00     0.036 A 
HETATM   13  C   UNL     1      45.264 -11.689   8.883  1.00  0.00     0.029 A 
HETATM   14  C   UNL     1      45.877 -11.153  10.021  1.00  0.00     0.002 A 
HETATM   15  C   UNL     1      45.105 -10.719  11.094  1.00  0.00     0.000 A 
HETATM   16  C   UNL     1      43.718 -10.822  11.034  1.00  0.00     0.002 A 
HETATM   17  C   UNL     1      43.106 -11.359   9.899  1.00  0.00     0.029 A 
ENDBRANCH   8  12
ENDBRANCH   3   6
ENDBRANCH   1   2
BRANCH   1  18
HETATM   18  N   UNL     1      41.465 -16.182   2.283  1.00  0.00    -0.343 N 
HETATM   19  C   UNL     1      41.730 -15.048   1.553  1.00  0.00     0.259 C 
HETATM   20  O   UNL     1      42.436 -14.154   2.015  1.00  0.00    -0.267 OA
HETATM   21  H   UNL     1      40.972 -16.925   1.801  1.00  0.00     0.163 HD
BRANCH  19  22
HETATM   22  C   UNL     1      41.101 -14.960   0.243  1.00  0.00     0.072 A 
HETATM   23  S   UNL     1      39.918 -13.778  -0.133  1.00  0.00    -0.097 SA
HETATM   24  C   UNL     1      39.766 -14.339  -1.741  1.00  0.00     0.050 A 
HETATM   25  C   UNL     1      40.591 -15.412  -1.993  1.00  0.00     0.009 A 
HETATM   26  C   UNL     1      41.356 -15.773  -0.848  1.00  0.00     0.025 A 
ENDBRANCH  19  22
ENDBRANCH   1  18
BRANCH   1  27
HETATM   27  C   UNL     1      43.603 -16.817   3.495  1.00  0.00     0.076 C 
BRANCH  27  28
HETATM   28  C   UNL     1      43.983 -18.135   4.102  1.00  0.00    -0.028 A 
HETATM   29  C   UNL     1      44.045 -19.409   3.451  1.00  0.00    -0.002 A 
HETATM   30  C   UNL     1      44.453 -20.345   4.402  1.00  0.00     0.042 A 
HETATM   31  C   UNL     1      43.792 -19.856   2.137  1.00  0.00     0.014 A 
HETATM   32  C   UNL     1      44.628 -21.702   4.106  1.00  0.00     0.030 A 
HETATM   33  N   UNL     1      44.620 -19.671   5.588  1.00  0.00    -0.365 N 
HETATM   34  C   UNL     1      44.378 -22.117   2.795  1.00  0.00     0.002 A 
HETATM   35  C   UNL     1      43.965 -21.210   1.823  1.00  0.00     0.001 A 
HETATM   36  H   UNL     1      44.904 -20.101   6.457  1.00  0.00     0.165 HD
HETATM   37  C   UNL     1      44.343 -18.342   5.420  1.00  0.00     0.096 A 
ENDBRANCH  27  28
ENDBRANCH   1  27
TORSDOF 7
ENDMDL
MODEL 5
REMARK VINA RESULT:      -8.7      1.709      2.211
REMARK  7 active torsions:
REMARK  status: ('A' for Active; 'I' for Inactive)
REMARK    1  A    between atoms: C_4  and  N_5 
REMARK       I    between atoms: N_5  and  C_6 
REMARK       I    between atoms: C_6  and  N_7 
REMARK    2  A    between atoms: N_7  and  N_8 
REMARK       I    between atoms: N_8  and  C_9 
REMARK    3  A    between atoms: C_9  and  C_10 
REMARK    4  A    between atoms: C_10  and  N_11 
REMARK    5  A    between atoms: C_10  and  C_19 
REMARK       I    between atoms: N_11  and  C_12 
REMARK    6  A    between atoms: C_12  and  C_13 
REMARK    7  A    between atoms: C_19  and  C_20 
ROOT
HETATM    1  C   UNL     1      43.379 -14.495   5.768  1.00  0.00     0.183 C 
ENDROOT
BRANCH   1   2
HETATM    2  C   UNL     1      43.417 -13.655   4.478  1.00  0.00     0.259 C 
HETATM    3  N   UNL     1      42.240 -13.030   4.128  1.00  0.00    -0.264 N 
HETATM    4  H   UNL     1      41.422 -13.004   4.750  1.00  0.00     0.190 HD
HETATM    5  O   UNL     1      44.413 -13.621   3.751  1.00  0.00    -0.269 OA
BRANCH   3   6
HETATM    6  N   UNL     1      42.251 -12.123   3.059  1.00  0.00    -0.249 N 
HETATM    7  C   UNL     1      41.971 -12.619   1.794  1.00  0.00     0.339 C 
HETATM    8  N   UNL     1      42.067 -11.630   0.837  1.00  0.00    -0.308 N 
HETATM    9  O   UNL     1      41.643 -13.787   1.616  1.00  0.00    -0.245 OA
HETATM   10  H   UNL     1      42.188 -10.694   1.190  1.00  0.00     0.170 HD
HETATM   11  H   UNL     1      42.885 -11.338   3.175  1.00  0.00     0.192 HD
BRANCH   8  12
HETATM   12  C   UNL     1      41.865 -11.759  -0.552  1.00  0.00     0.036 A 
HETATM   13  C   UNL     1      42.897 -11.767  -1.493  1.00  0.00     0.029 A 
HETATM   14  C   UNL     1      42.613 -11.904  -2.856  1.00  0.00     0.002 A 
HETATM   15  C   UNL     1      41.298 -12.030  -3.290  1.00  0.00     0.000 A 
HETATM   16  C   UNL     1      40.260 -12.017  -2.362  1.00  0.00     0.002 A 
HETATM   17  C   UNL     1      40.543 -11.879  -1.000  1.00  0.00     0.029 A 
ENDBRANCH   8  12
ENDBRANCH   3   6
ENDBRANCH   1   2
BRANCH   1  18
HETATM   18  N   UNL     1      43.491 -13.676   6.982  1.00  0.00    -0.343 N 
HETATM   19  C   UNL     1      44.672 -13.223   7.519  1.00  0.00     0.259 C 
HETATM   20  O   UNL     1      45.752 -13.607   7.075  1.00  0.00    -0.267 OA
HETATM   21  H   UNL     1      42.642 -13.235   7.319  1.00  0.00     0.163 HD
BRANCH  19  22
HETATM   22  C   UNL     1      44.561 -12.312   8.649  1.00  0.00     0.072 A 
HETATM   23  S   UNL     1      43.206 -11.286   8.877  1.00  0.00    -0.097 SA
HETATM   24  C   UNL     1      43.843 -10.649  10.330  1.00  0.00     0.050 A 
HETATM   25  C   UNL     1      45.069 -11.194  10.639  1.00  0.00     0.009 A 
HETATM   26  C   UNL     1      45.484 -12.149   9.667  1.00  0.00     0.025 A 
ENDBRANCH  19  22
ENDBRANCH   1  18
BRANCH   1  27
HETATM   27  C   UNL     1      42.182 -15.460   5.738  1.00  0.00     0.076 C 
BRANCH  27  28
HETATM   28  C   UNL     1      42.300 -16.525   4.689  1.00  0.00    -0.028 A 
HETATM   29  C   UNL     1      43.200 -17.639   4.675  1.00  0.00    -0.002 A 
HETATM   30  C   UNL     1      42.947 -18.367   3.513  1.00  0.00     0.042 A 
HETATM   31  C   UNL     1      44.210 -18.098   5.546  1.00  0.00     0.014 A 
HETATM   32  C   UNL     1      43.645 -19.534   3.179  1.00  0.00     0.030 A 
HETATM   33  N   UNL     1      41.941 -17.716   2.838  1.00  0.00    -0.365 N 
HETATM   34  C   UNL     1      44.635 -19.971   4.062  1.00  0.00     0.002 A 
HETATM   35  C   UNL     1      44.917 -19.265   5.229  1.00  0.00     0.001 A 
HETATM   36  H   UNL     1      41.558 -18.015   1.951  1.00  0.00     0.165 HD
HETATM   37  C   UNL     1      41.543 -16.610   3.536  1.00  0.00     0.096 A 
ENDBRANCH  27  28
ENDBRANCH   1  27
TORSDOF 7
ENDMDL
MODEL 6
REMARK VINA RESULT:      -8.6      3.404      7.580
REMARK  7 active torsions:
REMARK  status: ('A' for Active; 'I' for Inactive)
REMARK    1  A    between atoms: C_4  and  N_5 
REMARK       I    between atoms: N_5  and  C_6 
REMARK       I    between atoms: C_6  and  N_7 
REMARK    2  A    between atoms: N_7  and  N_8 
REMARK       I    between atoms: N_8  and  C_9 
REMARK    3  A    between atoms: C_9  and  C_10 
REMARK    4  A    between atoms: C_10  and  N_11 
REMARK    5  A    between atoms: C_10  and  C_19 
REMARK       I    between atoms: N_11  and  C_12 
REMARK    6  A    between atoms: C_12  and  C_13 
REMARK    7  A    between atoms: C_19  and  C_20 
ROOT
HETATM    1  C   UNL     1      41.920 -16.561   4.248  1.00  0.00     0.183 C 
ENDROOT
BRANCH   1   2
HETATM    2  C   UNL     1      41.117 -15.934   5.402  1.00  0.00     0.259 C 
HETATM    3  N   UNL     1      40.888 -14.580   5.314  1.00  0.00    -0.264 N 
HETATM    4  H   UNL     1      41.112 -14.034   4.471  1.00  0.00     0.190 HD
HETATM    5  O   UNL     1      40.781 -16.589   6.394  1.00  0.00    -0.269 OA
BRANCH   3   6
HETATM    6  N   UNL     1      40.027 -13.980   6.244  1.00  0.00    -0.249 N 
HETATM    7  C   UNL     1      40.340 -12.698   6.675  1.00  0.00     0.339 C 
HETATM    8  N   UNL     1      39.441 -12.256   7.623  1.00  0.00    -0.308 N 
HETATM    9  O   UNL     1      41.283 -12.071   6.204  1.00  0.00    -0.245 OA
HETATM   10  H   UNL     1      38.635 -12.845   7.766  1.00  0.00     0.170 HD
HETATM   11  H   UNL     1      39.554 -14.629   6.866  1.00  0.00     0.192 HD
BRANCH   8  12
HETATM   12  C   UNL     1      39.442 -11.016   8.293  1.00  0.00     0.036 A 
HETATM   13  C   UNL     1      39.133  -9.799   7.682  1.00  0.00     0.029 A 
HETATM   14  C   UNL     1      39.153  -8.609   8.418  1.00  0.00     0.002 A 
HETATM   15  C   UNL     1      39.483  -8.626   9.770  1.00  0.00     0.000 A 
HETATM   16  C   UNL     1      39.799  -9.833  10.389  1.00  0.00     0.002 A 
HETATM   17  C   UNL     1      39.781 -11.021   9.653  1.00  0.00     0.029 A 
ENDBRANCH   8  12
ENDBRANCH   3   6
ENDBRANCH   1   2
BRANCH   1  18
HETATM   18  N   UNL     1      41.661 -15.911   2.957  1.00  0.00    -0.343 N 
HETATM   19  C   UNL     1      40.713 -16.318   2.048  1.00  0.00     0.259 C 
HETATM   20  O   UNL     1      40.099 -17.370   2.209  1.00  0.00    -0.267 OA
HETATM   21  H   UNL     1      42.046 -14.983   2.824  1.00  0.00     0.163 HD
BRANCH  19  22
HETATM   22  C   UNL     1      40.519 -15.459   0.889  1.00  0.00     0.072 A 
HETATM   23  S   UNL     1      39.335 -14.219   0.849  1.00  0.00    -0.097 SA
HETATM   24  C   UNL     1      39.786 -13.742  -0.730  1.00  0.00     0.050 A 
HETATM   25  C   UNL     1      40.811 -14.513  -1.229  1.00  0.00     0.009 A 
HETATM   26  C   UNL     1      41.229 -15.506  -0.298  1.00  0.00     0.025 A 
ENDBRANCH  19  22
ENDBRANCH   1  18
BRANCH   1  27
HETATM   27  C   UNL     1      43.404 -16.676   4.636  1.00  0.00     0.076 C 
BRANCH  27  28
HETATM   28  C   UNL     1      43.881 -18.092   4.763  1.00  0.00    -0.028 A 
HETATM   29  C   UNL     1      43.885 -19.105   3.750  1.00  0.00    -0.002 A 
HETATM   30  C   UNL     1      44.425 -20.260   4.316  1.00  0.00     0.042 A 
HETATM   31  C   UNL     1      43.480 -19.147   2.400  1.00  0.00     0.014 A 
HETATM   32  C   UNL     1      44.587 -21.453   3.601  1.00  0.00     0.030 A 
HETATM   33  N   UNL     1      44.725 -19.968   5.625  1.00  0.00    -0.365 N 
HETATM   34  C   UNL     1      44.184 -21.465   2.263  1.00  0.00     0.002 A 
HETATM   35  C   UNL     1      43.637 -20.331   1.669  1.00  0.00     0.001 A 
HETATM   36  H   UNL     1      45.122 -20.624   6.283  1.00  0.00     0.165 HD
HETATM   37  C   UNL     1      44.405 -18.668   5.905  1.00  0.00     0.096 A 
ENDBRANCH  27  28
ENDBRANCH   1  27
TORSDOF 7
ENDMDL
MODEL 7
REMARK VINA RESULT:      -8.6      3.730      8.097
REMARK  7 active torsions:
REMARK  status: ('A' for Active; 'I' for Inactive)
REMARK    1  A    between atoms: C_4  and  N_5 
REMARK       I    between atoms: N_5  and  C_6 
REMARK       I    between atoms: C_6  and  N_7 
REMARK    2  A    between atoms: N_7  and  N_8 
REMARK       I    between atoms: N_8  and  C_9 
REMARK    3  A    between atoms: C_9  and  C_10 
REMARK    4  A    between atoms: C_10  and  N_11 
REMARK    5  A    between atoms: C_10  and  C_19 
REMARK       I    between atoms: N_11  and  C_12 
REMARK    6  A    between atoms: C_12  and  C_13 
REMARK    7  A    between atoms: C_19  and  C_20 
ROOT
HETATM    1  C   UNL     1      41.358 -15.604   3.970  1.00  0.00     0.183 C 
ENDROOT
BRANCH   1   2
HETATM    2  C   UNL     1      40.994 -15.061   5.365  1.00  0.00     0.259 C 
HETATM    3  N   UNL     1      40.022 -14.086   5.398  1.00  0.00    -0.264 N 
HETATM    4  H   UNL     1      39.469 -13.827   4.571  1.00  0.00     0.190 HD
HETATM    5  O   UNL     1      41.602 -15.410   6.380  1.00  0.00    -0.269 OA
BRANCH   3   6
HETATM    6  N   UNL     1      39.530 -13.669   6.643  1.00  0.00    -0.249 N 
HETATM    7  C   UNL     1      39.823 -12.374   7.048  1.00  0.00     0.339 C 
HETATM    8  N   UNL     1      39.322 -12.118   8.307  1.00  0.00    -0.308 N 
HETATM    9  O   UNL     1      40.416 -11.587   6.317  1.00  0.00    -0.245 OA
HETATM   10  H   UNL     1      38.719 -12.831   8.688  1.00  0.00     0.170 HD
HETATM   11  H   UNL     1      39.426 -14.410   7.330  1.00  0.00     0.192 HD
BRANCH   8  12
HETATM   12  C   UNL     1      39.431 -10.924   9.047  1.00  0.00     0.036 A 
HETATM   13  C   UNL     1      38.740  -9.750   8.739  1.00  0.00     0.029 A 
HETATM   14  C   UNL     1      38.900  -8.605   9.527  1.00  0.00     0.002 A 
HETATM   15  C   UNL     1      39.752  -8.623  10.626  1.00  0.00     0.000 A 
HETATM   16  C   UNL     1      40.451  -9.785  10.940  1.00  0.00     0.002 A 
HETATM   17  C   UNL     1      40.293 -10.929  10.152  1.00  0.00     0.029 A 
ENDBRANCH   8  12
ENDBRANCH   3   6
ENDBRANCH   1   2
BRANCH   1  18
HETATM   18  N   UNL     1      40.669 -14.893   2.886  1.00  0.00    -0.343 N 
HETATM   19  C   UNL     1      39.870 -15.487   1.939  1.00  0.00     0.259 C 
HETATM   20  O   UNL     1      39.792 -16.712   1.861  1.00  0.00    -0.267 OA
HETATM   21  H   UNL     1      40.599 -13.885   2.969  1.00  0.00     0.163 HD
BRANCH  19  22
HETATM   22  C   UNL     1      39.168 -14.592   1.031  1.00  0.00     0.072 A 
HETATM   23  S   UNL     1      39.927 -13.888  -0.336  1.00  0.00    -0.097 SA
HETATM   24  C   UNL     1      38.493 -13.083  -0.806  1.00  0.00     0.050 A 
HETATM   25  C   UNL     1      37.454 -13.333   0.061  1.00  0.00     0.009 A 
HETATM   26  C   UNL     1      37.845 -14.198   1.122  1.00  0.00     0.025 A 
ENDBRANCH  19  22
ENDBRANCH   1  18
BRANCH   1  27
HETATM   27  C   UNL     1      42.886 -15.701   3.822  1.00  0.00     0.076 C 
BRANCH  27  28
HETATM   28  C   UNL     1      43.338 -16.913   3.062  1.00  0.00    -0.028 A 
HETATM   29  C   UNL     1      43.828 -18.146   3.601  1.00  0.00    -0.002 A 
HETATM   30  C   UNL     1      44.118 -18.985   2.525  1.00  0.00     0.042 A 
HETATM   31  C   UNL     1      44.052 -18.630   4.907  1.00  0.00     0.014 A 
HETATM   32  C   UNL     1      44.613 -20.285   2.686  1.00  0.00     0.030 A 
HETATM   33  N   UNL     1      43.830 -18.287   1.376  1.00  0.00    -0.365 N 
HETATM   34  C   UNL     1      44.819 -20.742   3.990  1.00  0.00     0.002 A 
HETATM   35  C   UNL     1      44.544 -19.929   5.086  1.00  0.00     0.001 A 
HETATM   36  H   UNL     1      43.954 -18.646   0.440  1.00  0.00     0.165 HD
HETATM   37  C   UNL     1      43.359 -17.041   1.687  1.00  0.00     0.096 A 
ENDBRANCH  27  28
ENDBRANCH   1  27
TORSDOF 7
ENDMDL
MODEL 8
REMARK VINA RESULT:      -8.6      3.320      6.937
REMARK  7 active torsions:
REMARK  status: ('A' for Active; 'I' for Inactive)
REMARK    1  A    between atoms: C_4  and  N_5 
REMARK       I    between atoms: N_5  and  C_6 
REMARK       I    between atoms: C_6  and  N_7 
REMARK    2  A    between atoms: N_7  and  N_8 
REMARK       I    between atoms: N_8  and  C_9 
REMARK    3  A    between atoms: C_9  and  C_10 
REMARK    4  A    between atoms: C_10  and  N_11 
REMARK    5  A    between atoms: C_10  and  C_19 
REMARK       I    between atoms: N_11  and  C_12 
REMARK    6  A    between atoms: C_12  and  C_13 
REMARK    7  A    between atoms: C_19  and  C_20 
ROOT
HETATM    1  C   UNL     1      40.718 -14.018   5.208  1.00  0.00     0.183 C 
ENDROOT
BRANCH   1   2
HETATM    2  C   UNL     1      41.587 -15.256   5.500  1.00  0.00     0.259 C 
HETATM    3  N   UNL     1      42.569 -15.536   4.577  1.00  0.00    -0.264 N 
HETATM    4  H   UNL     1      42.810 -14.892   3.812  1.00  0.00     0.190 HD
HETATM    5  O   UNL     1      41.354 -16.006   6.452  1.00  0.00    -0.269 OA
BRANCH   3   6
HETATM    6  N   UNL     1      43.496 -16.548   4.865  1.00  0.00    -0.249 N 
HETATM    7  C   UNL     1      43.325 -17.773   4.235  1.00  0.00     0.339 C 
HETATM    8  N   UNL     1      44.273 -18.685   4.650  1.00  0.00    -0.308 N 
HETATM    9  O   UNL     1      42.451 -17.950   3.393  1.00  0.00    -0.245 OA
HETATM   10  H   UNL     1      45.012 -18.312   5.226  1.00  0.00     0.170 HD
HETATM   11  H   UNL     1      43.901 -16.501   5.796  1.00  0.00     0.192 HD
BRANCH   8  12
HETATM   12  C   UNL     1      44.409 -20.027   4.240  1.00  0.00     0.036 A 
HETATM   13  C   UNL     1      44.307 -20.451   2.914  1.00  0.00     0.029 A 
HETATM   14  C   UNL     1      44.459 -21.803   2.587  1.00  0.00     0.002 A 
HETATM   15  C   UNL     1      44.712 -22.741   3.583  1.00  0.00     0.000 A 
HETATM   16  C   UNL     1      44.811 -22.331   4.910  1.00  0.00     0.002 A 
HETATM   17  C   UNL     1      44.657 -20.980   5.236  1.00  0.00     0.029 A 
ENDBRANCH   8  12
ENDBRANCH   3   6
ENDBRANCH   1   2
BRANCH   1  18
HETATM   18  N   UNL     1      40.796 -13.007   6.270  1.00  0.00    -0.343 N 
HETATM   19  C   UNL     1      39.774 -12.161   6.628  1.00  0.00     0.259 C 
HETATM   20  O   UNL     1      38.741 -12.108   5.964  1.00  0.00    -0.267 OA
HETATM   21  H   UNL     1      41.569 -13.084   6.922  1.00  0.00     0.163 HD
BRANCH  19  22
HETATM   22  C   UNL     1      40.006 -11.323   7.795  1.00  0.00     0.072 A 
HETATM   23  S   UNL     1      41.424 -10.376   7.982  1.00  0.00    -0.097 SA
HETATM   24  C   UNL     1      40.893  -9.750   9.482  1.00  0.00     0.050 A 
HETATM   25  C   UNL     1      39.665 -10.254   9.846  1.00  0.00     0.009 A 
HETATM   26  C   UNL     1      39.157 -11.165   8.876  1.00  0.00     0.025 A 
ENDBRANCH  19  22
ENDBRANCH   1  18
BRANCH   1  27
HETATM   27  C   UNL     1      40.995 -13.499   3.788  1.00  0.00     0.076 C 
BRANCH  27  28
HETATM   28  C   UNL     1      39.969 -13.930   2.782  1.00  0.00    -0.028 A 
HETATM   29  C   UNL     1      38.952 -13.125   2.176  1.00  0.00    -0.002 A 
HETATM   30  C   UNL     1      38.239 -13.944   1.300  1.00  0.00     0.042 A 
HETATM   31  C   UNL     1      38.569 -11.772   2.289  1.00  0.00     0.014 A 
HETATM   32  C   UNL     1      37.168 -13.480   0.526  1.00  0.00     0.030 A 
HETATM   33  N   UNL     1      38.790 -15.200   1.379  1.00  0.00    -0.365 N 
HETATM   34  C   UNL     1      36.814 -12.133   0.653  1.00  0.00     0.002 A 
HETATM   35  C   UNL     1      37.502 -11.290   1.521  1.00  0.00     0.001 A 
HETATM   36  H   UNL     1      38.466 -16.003   0.858  1.00  0.00     0.165 HD
HETATM   37  C   UNL     1      39.832 -15.204   2.265  1.00  0.00     0.096 A 
ENDBRANCH  27  28
ENDBRANCH   1  27
TORSDOF 7
ENDMDL
MODEL 9
REMARK VINA RESULT:      -8.5      2.926      8.545
REMARK  7 active torsions:
REMARK  status: ('A' for Active; 'I' for Inactive)
REMARK    1  A    between atoms: C_4  and  N_5 
REMARK       I    between atoms: N_5  and  C_6 
REMARK       I    between atoms: C_6  and  N_7 
REMARK    2  A    between atoms: N_7  and  N_8 
REMARK       I    between atoms: N_8  and  C_9 
REMARK    3  A    between atoms: C_9  and  C_10 
REMARK    4  A    between atoms: C_10  and  N_11 
REMARK    5  A    between atoms: C_10  and  C_19 
REMARK       I    between atoms: N_11  and  C_12 
REMARK    6  A    between atoms: C_12  and  C_13 
REMARK    7  A    between atoms: C_19  and  C_20 
ROOT
HETATM    1  C   UNL     1      41.931 -16.658   3.343  1.00  0.00     0.183 C 
ENDROOT
BRANCH   1   2
HETATM    2  C   UNL     1      41.909 -16.031   4.750  1.00  0.00     0.259 C 
HETATM    3  N   UNL     1      43.017 -16.265   5.533  1.00  0.00    -0.264 N 
HETATM    4  H   UNL     1      43.869 -16.709   5.167  1.00  0.00     0.190 HD
HETATM    5  O   UNL     1      40.918 -15.435   5.183  1.00  0.00    -0.269 OA
BRANCH   3   6
HETATM    6  N   UNL     1      43.131 -15.590   6.757  1.00  0.00    -0.249 N 
HETATM    7  C   UNL     1      44.014 -14.521   6.820  1.00  0.00     0.339 C 
HETATM    8  N   UNL     1      44.062 -13.988   8.091  1.00  0.00    -0.308 N 
HETATM    9  O   UNL     1      44.614 -14.119   5.829  1.00  0.00    -0.245 OA
HETATM   10  H   UNL     1      43.377 -14.344   8.739  1.00  0.00     0.170 HD
HETATM   11  H   UNL     1      42.961 -16.165   7.577  1.00  0.00     0.192 HD
BRANCH   8  12
HETATM   12  C   UNL     1      44.849 -12.906   8.538  1.00  0.00     0.036 A 
HETATM   13  C   UNL     1      46.094 -12.573   8.000  1.00  0.00     0.029 A 
HETATM   14  C   UNL     1      46.812 -11.480   8.497  1.00  0.00     0.002 A 
HETATM   15  C   UNL     1      46.293 -10.713   9.536  1.00  0.00     0.000 A 
HETATM   16  C   UNL     1      45.055 -11.039  10.084  1.00  0.00     0.002 A 
HETATM   17  C   UNL     1      44.339 -12.132   9.589  1.00  0.00     0.029 A 
ENDBRANCH   8  12
ENDBRANCH   3   6
ENDBRANCH   1   2
BRANCH   1  18
HETATM   18  N   UNL     1      42.425 -18.040   3.345  1.00  0.00    -0.343 N 
HETATM   19  C   UNL     1      43.601 -18.456   2.768  1.00  0.00     0.259 C 
HETATM   20  O   UNL     1      44.265 -17.690   2.073  1.00  0.00    -0.267 OA
HETATM   21  H   UNL     1      41.988 -18.683   3.995  1.00  0.00     0.163 HD
BRANCH  19  22
HETATM   22  C   UNL     1      43.979 -19.843   2.997  1.00  0.00     0.072 A 
HETATM   23  S   UNL     1      43.698 -21.077   1.840  1.00  0.00    -0.097 SA
HETATM   24  C   UNL     1      44.416 -22.270   2.833  1.00  0.00     0.050 A 
HETATM   25  C   UNL     1      44.856 -21.749   4.029  1.00  0.00     0.009 A 
HETATM   26  C   UNL     1      44.598 -20.352   4.125  1.00  0.00     0.025 A 
ENDBRANCH  19  22
ENDBRANCH   1  18
BRANCH   1  27
HETATM   27  C   UNL     1      40.574 -16.448   2.648  1.00  0.00     0.076 C 
BRANCH  27  28
HETATM   28  C   UNL     1      40.681 -15.746   1.327  1.00  0.00    -0.028 A 
HETATM   29  C   UNL     1      39.715 -14.879   0.721  1.00  0.00    -0.002 A 
HETATM   30  C   UNL     1      40.245 -14.452  -0.497  1.00  0.00     0.042 A 
HETATM   31  C   UNL     1      38.436 -14.416   1.095  1.00  0.00     0.014 A 
HETATM   32  C   UNL     1      39.566 -13.579  -1.356  1.00  0.00     0.030 A 
HETATM   33  N   UNL     1      41.477 -15.044  -0.634  1.00  0.00    -0.365 N 
HETATM   34  C   UNL     1      38.304 -13.130  -0.958  1.00  0.00     0.002 A 
HETATM   35  C   UNL     1      37.745 -13.541   0.248  1.00  0.00     0.001 A 
HETATM   36  H   UNL     1      42.088 -14.921  -1.430  1.00  0.00     0.165 HD
HETATM   37  C   UNL     1      41.751 -15.822   0.457  1.00  0.00     0.096 A 
ENDBRANCH  27  28
ENDBRANCH   1  27
TORSDOF 7
ENDMDL
MODEL 10
REMARK VINA RESULT:      -8.4      4.688      8.766
REMARK  7 active torsions:
REMARK  status: ('A' for Active; 'I' for Inactive)
REMARK    1  A    between atoms: C_4  and  N_5 
REMARK       I    between atoms: N_5  and  C_6 
REMARK       I    between atoms: C_6  and  N_7 
REMARK    2  A    between atoms: N_7  and  N_8 
REMARK       I    between atoms: N_8  and  C_9 
REMARK    3  A    between atoms: C_9  and  C_10 
REMARK    4  A    between atoms: C_10  and  N_11 
REMARK    5  A    between atoms: C_10  and  C_19 
REMARK       I    between atoms: N_11  and  C_12 
REMARK    6  A    between atoms: C_12  and  C_13 
REMARK    7  A    between atoms: C_19  and  C_20 
ROOT
HETATM    1  C   UNL     1      40.651 -14.877   0.071  1.00  0.00     0.183 C 
ENDROOT
BRANCH   1   2
HETATM    2  C   UNL     1      41.724 -15.638   0.871  1.00  0.00     0.259 C 
HETATM    3  N   UNL     1      42.358 -16.665   0.207  1.00  0.00    -0.264 N 
HETATM    4  H   UNL     1      42.232 -16.835  -0.800  1.00  0.00     0.190 HD
HETATM    5  O   UNL     1      41.936 -15.404   2.064  1.00  0.00    -0.269 OA
BRANCH   3   6
HETATM    6  N   UNL     1      43.454 -17.288   0.821  1.00  0.00    -0.249 N 
HETATM    7  C   UNL     1      43.205 -18.427   1.575  1.00  0.00     0.339 C 
HETATM    8  N   UNL     1      44.361 -18.901   2.158  1.00  0.00    -0.308 N 
HETATM    9  O   UNL     1      42.087 -18.927   1.640  1.00  0.00    -0.245 OA
HETATM   10  H   UNL     1      45.215 -18.456   1.859  1.00  0.00     0.170 HD
HETATM   11  H   UNL     1      44.214 -16.662   1.071  1.00  0.00     0.192 HD
BRANCH   8  12
HETATM   12  C   UNL     1      44.499 -20.025   2.998  1.00  0.00     0.036 A 
HETATM   13  C   UNL     1      44.702 -19.948   4.377  1.00  0.00     0.029 A 
HETATM   14  C   UNL     1      44.824 -21.113   5.143  1.00  0.00     0.002 A 
HETATM   15  C   UNL     1      44.747 -22.363   4.536  1.00  0.00     0.000 A 
HETATM   16  C   UNL     1      44.551 -22.452   3.161  1.00  0.00     0.002 A 
HETATM   17  C   UNL     1      44.430 -21.289   2.396  1.00  0.00     0.029 A 
ENDBRANCH   8  12
ENDBRANCH   3   6
ENDBRANCH   1   2
BRANCH   1  18
HETATM   18  N   UNL     1      40.137 -13.702   0.785  1.00  0.00    -0.343 N 
HETATM   19  C   UNL     1      38.909 -13.629   1.399  1.00  0.00     0.259 C 
HETATM   20  O   UNL     1      38.084 -14.531   1.263  1.00  0.00    -0.267 OA
HETATM   21  H   UNL     1      40.808 -12.983   1.031  1.00  0.00     0.163 HD
BRANCH  19  22
HETATM   22  C   UNL     1      38.642 -12.424   2.170  1.00  0.00     0.072 A 
HETATM   23  S   UNL     1      37.686 -11.136   1.564  1.00  0.00    -0.097 SA
HETATM   24  C   UNL     1      37.857 -10.235   3.008  1.00  0.00     0.050 A 
HETATM   25  C   UNL     1      38.634 -10.892   3.936  1.00  0.00     0.009 A 
HETATM   26  C   UNL     1      39.090 -12.150   3.450  1.00  0.00     0.025 A 
ENDBRANCH  19  22
ENDBRANCH   1  18
BRANCH   1  27
HETATM   27  C   UNL     1      41.147 -14.608  -1.360  1.00  0.00     0.076 C 
BRANCH  27  28
HETATM   28  C   UNL     1      40.148 -14.972  -2.418  1.00  0.00    -0.028 A 
HETATM   29  C   UNL     1      38.976 -14.241  -2.797  1.00  0.00    -0.002 A 
HETATM   30  C   UNL     1      38.358 -14.950  -3.827  1.00  0.00     0.042 A 
HETATM   31  C   UNL     1      38.381 -13.039  -2.361  1.00  0.00     0.014 A 
HETATM   32  C   UNL     1      37.180 -14.518  -4.448  1.00  0.00     0.030 A 
HETATM   33  N   UNL     1      39.114 -16.075  -4.058  1.00  0.00    -0.365 N 
HETATM   34  C   UNL     1      36.615 -13.319  -4.001  1.00  0.00     0.002 A 
HETATM   35  C   UNL     1      37.204 -12.590  -2.972  1.00  0.00     0.001 A 
HETATM   36  H   UNL     1      38.897 -16.781  -4.747  1.00  0.00     0.165 HD
HETATM   37  C   UNL     1      40.194 -16.097  -3.218  1.00  0.00     0.096 A 
ENDBRANCH  27  28
ENDBRANCH   1  27
TORSDOF 7
ENDMDL
