MODEL 1
REMARK VINA RESULT:      -8.5      0.000      0.000
REMARK  9 active torsions:
REMARK  status: ('A' for Active; 'I' for Inactive)
REMARK    1  A    between atoms: C_7  and  O_8 
REMARK    2  A    between atoms: O_8  and  C_9 
REMARK    3  A    between atoms: C_9  and  C_10 
REMARK    4  A    between atoms: C_10  and  O_11 
REMARK    5  A    between atoms: C_10  and  C_12 
REMARK    6  A    between atoms: C_12  and  N_13 
REMARK    7  A    between atoms: N_18  and  C_19 
REMARK    8  A    between atoms: C_19  and  C_20 
REMARK    9  A    between atoms: C_20  and  N_21 
ROOT
HETATM    1  N   UNL     1      41.921 -16.676   5.951  1.00  0.00    -0.179 N 
HETATM    2  C   UNL     1      41.127 -17.183   4.940  1.00  0.00     0.681 A 
HETATM    3  N   UNL     1      40.315 -18.234   5.063  1.00  0.00    -0.234 N 
HETATM    4  H   UNL     1      39.802 -18.664   4.316  1.00  0.00     0.174 HD
HETATM    5  H   UNL     1      40.349 -18.757   5.947  1.00  0.00     0.174 HD
HETATM    6  N   UNL     1      41.259 -16.495   3.733  1.00  0.00    -0.180 N 
HETATM    7  C   UNL     1      42.282 -15.531   3.983  1.00  0.00     0.079 A 
HETATM    8  C   UNL     1      42.677 -15.634   5.325  1.00  0.00     0.079 A 
HETATM    9  C   UNL     1      42.865 -14.627   3.119  1.00  0.00     0.032 A 
HETATM   10  C   UNL     1      43.877 -13.812   3.638  1.00  0.00     0.002 A 
HETATM   11  C   UNL     1      44.275 -13.915   4.985  1.00  0.00     0.002 A 
HETATM   12  C   UNL     1      43.671 -14.837   5.848  1.00  0.00     0.032 A 
ENDROOT
BRANCH   1  13
HETATM   13  C   UNL     1      42.080 -17.051   7.381  1.00  0.00     0.181 C 
BRANCH  13  14
HETATM   14  C   UNL     1      43.471 -17.541   7.804  1.00  0.00     0.161 C 
BRANCH  14  15
HETATM   15  C   UNL     1      43.722 -18.990   7.353  1.00  0.00     0.209 C 
BRANCH  15  16
HETATM   16  O   UNL     1      44.793 -18.924   6.404  1.00  0.00    -0.349 OA
BRANCH  16  17
HETATM   17  C   UNL     1      44.582 -19.499   5.182  1.00  0.00     0.069 A 
HETATM   18  C   UNL     1      44.797 -20.877   5.143  1.00  0.00     0.038 A 
HETATM   19  C   UNL     1      44.618 -21.588   3.956  1.00  0.00     0.027 A 
HETATM   20  C   UNL     1      44.227 -20.921   2.795  1.00  0.00     0.040 A 
HETATM   21  C   UNL     1      44.011 -19.534   2.811  1.00  0.00    -0.038 A 
HETATM   22 CL   UNL     1      44.030 -21.853   1.356  1.00  0.00    -0.084 Cl
HETATM   23  C   UNL     1      43.611 -18.785   1.569  1.00  0.00     0.050 C 
HETATM   24  C   UNL     1      44.198 -18.831   4.017  1.00  0.00     0.045 A 
ENDBRANCH  16  17
ENDBRANCH  15  16
ENDBRANCH  14  15
BRANCH  14  25
HETATM   25  O   UNL     1      43.588 -17.474   9.241  1.00  0.00    -0.392 OA
HETATM   26  H   UNL     1      42.883 -18.074   9.585  1.00  0.00     0.210 HD
ENDBRANCH  14  25
ENDBRANCH  13  14
ENDBRANCH   1  13
BRANCH   6  27
HETATM   27  C   UNL     1      40.633 -16.783   2.438  1.00  0.00     0.175 C 
BRANCH  27  28
HETATM   28  C   UNL     1      39.526 -15.771   2.071  1.00  0.00     0.256 C 
BRANCH  28  29
HETATM   29  N   UNL     1      39.750 -15.113   0.723  1.00  0.00    -0.066 N 
HETATM   30  H   UNL     1      38.972 -15.338   0.087  1.00  0.00     0.280 HD
HETATM   31  C   UNL     1      39.751 -13.574   0.855  1.00  0.00     0.261 C 
HETATM   32  C   UNL     1      39.964 -12.937  -0.522  1.00  0.00     0.195 C 
HETATM   33  O   UNL     1      41.191 -13.390  -1.100  1.00  0.00    -0.388 OA
HETATM   34  C   UNL     1      41.197 -14.804  -1.308  1.00  0.00     0.195 C 
HETATM   35  C   UNL     1      41.047 -15.548   0.026  1.00  0.00     0.261 C 
ENDBRANCH  28  29
ENDBRANCH  27  28
ENDBRANCH   6  27
TORSDOF 9
ENDMDL
MODEL 2
REMARK VINA RESULT:      -8.3      2.332      3.552
REMARK  9 active torsions:
REMARK  status: ('A' for Active; 'I' for Inactive)
REMARK    1  A    between atoms: C_7  and  O_8 
REMARK    2  A    between atoms: O_8  and  C_9 
REMARK    3  A    between atoms: C_9  and  C_10 
REMARK    4  A    between atoms: C_10  and  O_11 
REMARK    5  A    between atoms: C_10  and  C_12 
REMARK    6  A    between atoms: C_12  and  N_13 
REMARK    7  A    between atoms: N_18  and  C_19 
REMARK    8  A    between atoms: C_19  and  C_20 
REMARK    9  A    between atoms: C_20  and  N_21 
ROOT
HETATM    1  N   UNL     1      40.720 -14.762   3.348  1.00  0.00    -0.179 N 
HETATM    2  C   UNL     1      39.897 -15.171   2.316  1.00  0.00     0.681 A 
HETATM    3  N   UNL     1      39.984 -16.344   1.690  1.00  0.00    -0.234 N 
HETATM    4  H   UNL     1      39.452 -16.615   0.884  1.00  0.00     0.174 HD
HETATM    5  H   UNL     1      40.776 -16.952   1.934  1.00  0.00     0.174 HD
HETATM    6  N   UNL     1      38.944 -14.216   1.957  1.00  0.00    -0.180 N 
HETATM    7  C   UNL     1      39.248 -13.084   2.772  1.00  0.00     0.079 A 
HETATM    8  C   UNL     1      40.317 -13.416   3.619  1.00  0.00     0.079 A 
HETATM    9  C   UNL     1      38.669 -11.832   2.786  1.00  0.00     0.032 A 
HETATM   10  C   UNL     1      39.196 -10.897   3.684  1.00  0.00     0.002 A 
HETATM   11  C   UNL     1      40.269 -11.229   4.534  1.00  0.00     0.002 A 
HETATM   12  C   UNL     1      40.843 -12.505   4.508  1.00  0.00     0.032 A 
ENDROOT
BRANCH   1  13
HETATM   13  C   UNL     1      41.826 -15.442   4.074  1.00  0.00     0.181 C 
BRANCH  13  14
HETATM   14  C   UNL     1      41.414 -16.390   5.207  1.00  0.00     0.161 C 
BRANCH  14  15
HETATM   15  C   UNL     1      42.635 -17.071   5.848  1.00  0.00     0.209 C 
BRANCH  15  16
HETATM   16  O   UNL     1      43.645 -17.097   4.832  1.00  0.00    -0.349 OA
BRANCH  16  17
HETATM   17  C   UNL     1      43.910 -18.304   4.246  1.00  0.00     0.069 A 
HETATM   18  C   UNL     1      43.714 -18.335   2.865  1.00  0.00     0.038 A 
HETATM   19  C   UNL     1      43.948 -19.507   2.144  1.00  0.00     0.027 A 
HETATM   20  C   UNL     1      44.375 -20.659   2.803  1.00  0.00     0.040 A 
HETATM   21  C   UNL     1      44.573 -20.651   4.192  1.00  0.00    -0.038 A 
HETATM   22 CL   UNL     1      44.640 -22.078   1.858  1.00  0.00    -0.084 Cl
HETATM   23  C   UNL     1      45.011 -21.884   4.933  1.00  0.00     0.050 C 
HETATM   24  C   UNL     1      44.331 -19.461   4.906  1.00  0.00     0.045 A 
ENDBRANCH  16  17
ENDBRANCH  15  16
ENDBRANCH  14  15
BRANCH  14  25
HETATM   25  O   UNL     1      40.534 -17.408   4.686  1.00  0.00    -0.392 OA
HETATM   26  H   UNL     1      41.081 -18.229   4.650  1.00  0.00     0.210 HD
ENDBRANCH  14  25
ENDBRANCH  13  14
ENDBRANCH   1  13
BRANCH   6  27
HETATM   27  C   UNL     1      37.955 -14.267   0.874  1.00  0.00     0.175 C 
BRANCH  27  28
HETATM   28  C   UNL     1      38.463 -13.617  -0.430  1.00  0.00     0.256 C 
BRANCH  28  29
HETATM   29  N   UNL     1      38.879 -14.635  -1.475  1.00  0.00    -0.066 N 
HETATM   30  H   UNL     1      38.583 -15.578  -1.187  1.00  0.00     0.280 HD
HETATM   31  C   UNL     1      38.168 -14.365  -2.819  1.00  0.00     0.261 C 
HETATM   32  C   UNL     1      38.595 -15.415  -3.850  1.00  0.00     0.195 C 
HETATM   33  O   UNL     1      40.015 -15.400  -4.023  1.00  0.00    -0.388 OA
HETATM   34  C   UNL     1      40.706 -15.720  -2.815  1.00  0.00     0.195 C 
HETATM   35  C   UNL     1      40.394 -14.690  -1.722  1.00  0.00     0.261 C 
ENDBRANCH  28  29
ENDBRANCH  27  28
ENDBRANCH   6  27
TORSDOF 9
ENDMDL
MODEL 3
REMARK VINA RESULT:      -7.7      3.328      6.091
REMARK  9 active torsions:
REMARK  status: ('A' for Active; 'I' for Inactive)
REMARK    1  A    between atoms: C_7  and  O_8 
REMARK    2  A    between atoms: O_8  and  C_9 
REMARK    3  A    between atoms: C_9  and  C_10 
REMARK    4  A    between atoms: C_10  and  O_11 
REMARK    5  A    between atoms: C_10  and  C_12 
REMARK    6  A    between atoms: C_12  and  N_13 
REMARK    7  A    between atoms: N_18  and  C_19 
REMARK    8  A    between atoms: C_19  and  C_20 
REMARK    9  A    between atoms: C_20  and  N_21 
ROOT
HETATM    1  N   UNL     1      40.569 -15.219   2.414  1.00  0.00    -0.179 N 
HETATM    2  C   UNL     1      41.149 -14.633   3.523  1.00  0.00     0.681 A 
HETATM    3  N   UNL     1      42.073 -15.208   4.294  1.00  0.00    -0.234 N 
HETATM    4  H   UNL     1      42.435 -14.830   5.149  1.00  0.00     0.174 HD
HETATM    5  H   UNL     1      42.306 -16.190   4.100  1.00  0.00     0.174 HD
HETATM    6  N   UNL     1      40.661 -13.353   3.793  1.00  0.00    -0.180 N 
HETATM    7  C   UNL     1      39.631 -13.154   2.825  1.00  0.00     0.079 A 
HETATM    8  C   UNL     1      39.580 -14.277   1.987  1.00  0.00     0.079 A 
HETATM    9  C   UNL     1      38.767 -12.090   2.671  1.00  0.00     0.032 A 
HETATM   10  C   UNL     1      37.827 -12.177   1.638  1.00  0.00     0.002 A 
HETATM   11  C   UNL     1      37.775 -13.305   0.796  1.00  0.00     0.002 A 
HETATM   12  C   UNL     1      38.660 -14.375   0.965  1.00  0.00     0.032 A 
ENDROOT
BRANCH   1  13
HETATM   13  C   UNL     1      40.796 -16.524   1.740  1.00  0.00     0.181 C 
BRANCH  13  14
HETATM   14  C   UNL     1      41.814 -16.530   0.592  1.00  0.00     0.161 C 
BRANCH  14  15
HETATM   15  C   UNL     1      43.153 -17.149   1.026  1.00  0.00     0.209 C 
BRANCH  15  16
HETATM   16  O   UNL     1      43.046 -17.360   2.438  1.00  0.00    -0.349 OA
BRANCH  16  17
HETATM   17  C   UNL     1      43.545 -18.533   2.934  1.00  0.00     0.069 A 
HETATM   18  C   UNL     1      43.872 -18.498   4.290  1.00  0.00     0.038 A 
HETATM   19  C   UNL     1      44.393 -19.628   4.922  1.00  0.00     0.027 A 
HETATM   20  C   UNL     1      44.597 -20.802   4.196  1.00  0.00     0.040 A 
HETATM   21  C   UNL     1      44.281 -20.856   2.830  1.00  0.00    -0.038 A 
HETATM   22 CL   UNL     1      45.252 -22.163   5.031  1.00  0.00    -0.084 Cl
HETATM   23  C   UNL     1      44.511 -22.101   2.017  1.00  0.00     0.050 C 
HETATM   24  C   UNL     1      43.758 -19.706   2.207  1.00  0.00     0.045 A 
ENDBRANCH  16  17
ENDBRANCH  15  16
ENDBRANCH  14  15
BRANCH  14  25
HETATM   25  O   UNL     1      42.048 -15.175   0.151  1.00  0.00    -0.392 OA
HETATM   26  H   UNL     1      41.684 -15.136  -0.766  1.00  0.00     0.210 HD
ENDBRANCH  14  25
ENDBRANCH  13  14
ENDBRANCH   1  13
BRANCH   6  27
HETATM   27  C   UNL     1      40.987 -12.463   4.913  1.00  0.00     0.175 C 
BRANCH  27  28
HETATM   28  C   UNL     1      39.955 -12.540   6.058  1.00  0.00     0.256 C 
BRANCH  28  29
HETATM   29  N   UNL     1      40.488 -11.998   7.371  1.00  0.00    -0.066 N 
HETATM   30  H   UNL     1      40.961 -12.747   7.897  1.00  0.00     0.280 HD
HETATM   31  C   UNL     1      41.562 -10.917   7.124  1.00  0.00     0.261 C 
HETATM   32  C   UNL     1      42.091 -10.397   8.465  1.00  0.00     0.195 C 
HETATM   33  O   UNL     1      41.023  -9.869   9.255  1.00  0.00    -0.388 OA
HETATM   34  C   UNL     1      40.045 -10.862   9.568  1.00  0.00     0.195 C 
HETATM   35  C   UNL     1      39.403 -11.414   8.288  1.00  0.00     0.261 C 
ENDBRANCH  28  29
ENDBRANCH  27  28
ENDBRANCH   6  27
TORSDOF 9
ENDMDL
MODEL 4
REMARK VINA RESULT:      -7.6      4.413      6.749
REMARK  9 active torsions:
REMARK  status: ('A' for Active; 'I' for Inactive)
REMARK    1  A    between atoms: C_7  and  O_8 
REMARK    2  A    between atoms: O_8  and  C_9 
REMARK    3  A    between atoms: C_9  and  C_10 
REMARK    4  A    between atoms: C_10  and  O_11 
REMARK    5  A    between atoms: C_10  and  C_12 
REMARK    6  A    between atoms: C_12  and  N_13 
REMARK    7  A    between atoms: N_18  and  C_19 
REMARK    8  A    between atoms: C_19  and  C_20 
REMARK    9  A    between atoms: C_20  and  N_21 
ROOT
HETATM    1  N   UNL     1      42.685 -16.035   4.526  1.00  0.00    -0.179 N 
HETATM    2  C   UNL     1      41.894 -15.445   3.558  1.00  0.00     0.681 A 
HETATM    3  N   UNL     1      41.177 -14.336   3.732  1.00  0.00    -0.234 N 
HETATM    4  H   UNL     1      40.532 -13.949   3.067  1.00  0.00     0.174 HD
HETATM    5  H   UNL     1      41.140 -13.940   4.679  1.00  0.00     0.174 HD
HETATM    6  N   UNL     1      41.893 -16.139   2.346  1.00  0.00    -0.180 N 
HETATM    7  C   UNL     1      42.679 -17.303   2.600  1.00  0.00     0.079 A 
HETATM    8  C   UNL     1      43.164 -17.238   3.915  1.00  0.00     0.079 A 
HETATM    9  C   UNL     1      42.954 -18.373   1.775  1.00  0.00     0.032 A 
HETATM   10  C   UNL     1      43.741 -19.400   2.305  1.00  0.00     0.002 A 
HETATM   11  C   UNL     1      44.229 -19.336   3.625  1.00  0.00     0.002 A 
HETATM   12  C   UNL     1      43.941 -18.242   4.449  1.00  0.00     0.032 A 
ENDROOT
BRANCH   1  13
HETATM   13  C   UNL     1      43.016 -15.643   5.921  1.00  0.00     0.181 C 
BRANCH  13  14
HETATM   14  C   UNL     1      43.834 -14.357   6.091  1.00  0.00     0.161 C 
BRANCH  14  15
HETATM   15  C   UNL     1      44.433 -14.248   7.503  1.00  0.00     0.209 C 
BRANCH  15  16
HETATM   16  O   UNL     1      44.973 -12.925   7.597  1.00  0.00    -0.349 OA
BRANCH  16  17
HETATM   17  C   UNL     1      44.601 -12.173   8.677  1.00  0.00     0.069 A 
HETATM   18  C   UNL     1      45.508 -12.190   9.737  1.00  0.00     0.038 A 
HETATM   19  C   UNL     1      45.249 -11.465  10.901  1.00  0.00     0.027 A 
HETATM   20  C   UNL     1      44.074 -10.722  11.015  1.00  0.00     0.040 A 
HETATM   21  C   UNL     1      43.145 -10.697   9.962  1.00  0.00    -0.038 A 
HETATM   22 CL   UNL     1      43.806  -9.854  12.482  1.00  0.00    -0.084 Cl
HETATM   23  C   UNL     1      41.859  -9.924  10.065  1.00  0.00     0.050 C 
HETATM   24  C   UNL     1      43.421 -11.436   8.795  1.00  0.00     0.045 A 
ENDBRANCH  16  17
ENDBRANCH  15  16
ENDBRANCH  14  15
BRANCH  14  25
HETATM   25  O   UNL     1      42.986 -13.213   5.856  1.00  0.00    -0.392 OA
HETATM   26  H   UNL     1      43.569 -12.427   5.988  1.00  0.00     0.210 HD
ENDBRANCH  14  25
ENDBRANCH  13  14
ENDBRANCH   1  13
BRANCH   6  27
HETATM   27  C   UNL     1      41.129 -15.854   1.126  1.00  0.00     0.175 C 
BRANCH  27  28
HETATM   28  C   UNL     1      41.626 -14.590   0.391  1.00  0.00     0.256 C 
BRANCH  28  29
HETATM   29  N   UNL     1      41.062 -14.462  -1.011  1.00  0.00    -0.066 N 
HETATM   30  H   UNL     1      40.117 -14.055  -0.976  1.00  0.00     0.280 HD
HETATM   31  C   UNL     1      41.907 -13.484  -1.856  1.00  0.00     0.261 C 
HETATM   32  C   UNL     1      41.309 -13.363  -3.261  1.00  0.00     0.195 C 
HETATM   33  O   UNL     1      41.246 -14.645  -3.892  1.00  0.00    -0.388 OA
HETATM   34  C   UNL     1      40.410 -15.555  -3.177  1.00  0.00     0.195 C 
HETATM   35  C   UNL     1      40.955 -15.797  -1.763  1.00  0.00     0.261 C 
ENDBRANCH  28  29
ENDBRANCH  27  28
ENDBRANCH   6  27
TORSDOF 9
ENDMDL
MODEL 5
REMARK VINA RESULT:      -7.4      5.112      8.424
REMARK  9 active torsions:
REMARK  status: ('A' for Active; 'I' for Inactive)
REMARK    1  A    between atoms: C_7  and  O_8 
REMARK    2  A    between atoms: O_8  and  C_9 
REMARK    3  A    between atoms: C_9  and  C_10 
REMARK    4  A    between atoms: C_10  and  O_11 
REMARK    5  A    between atoms: C_10  and  C_12 
REMARK    6  A    between atoms: C_12  and  N_13 
REMARK    7  A    between atoms: N_18  and  C_19 
REMARK    8  A    between atoms: C_19  and  C_20 
REMARK    9  A    between atoms: C_20  and  N_21 
ROOT
HETATM    1  N   UNL     1      40.531 -13.461   4.994  1.00  0.00    -0.179 N 
HETATM    2  C   UNL     1      41.079 -14.691   5.303  1.00  0.00     0.681 A 
HETATM    3  N   UNL     1      41.827 -14.945   6.377  1.00  0.00    -0.234 N 
HETATM    4  H   UNL     1      42.302 -15.808   6.565  1.00  0.00     0.174 HD
HETATM    5  H   UNL     1      42.088 -14.147   6.970  1.00  0.00     0.174 HD
HETATM    6  N   UNL     1      40.791 -15.679   4.360  1.00  0.00    -0.180 N 
HETATM    7  C   UNL     1      40.075 -14.993   3.333  1.00  0.00     0.079 A 
HETATM    8  C   UNL     1      39.912 -13.654   3.719  1.00  0.00     0.079 A 
HETATM    9  C   UNL     1      39.605 -15.465   2.126  1.00  0.00     0.032 A 
HETATM   10  C   UNL     1      38.954 -14.549   1.293  1.00  0.00     0.002 A 
HETATM   11  C   UNL     1      38.789 -13.205   1.679  1.00  0.00     0.002 A 
HETATM   12  C   UNL     1      39.272 -12.742   2.908  1.00  0.00     0.032 A 
ENDROOT
BRANCH   1  13
HETATM   13  C   UNL     1      40.540 -12.156   5.706  1.00  0.00     0.181 C 
BRANCH  13  14
HETATM   14  C   UNL     1      39.479 -11.970   6.799  1.00  0.00     0.161 C 
BRANCH  14  15
HETATM   15  C   UNL     1      39.888 -10.883   7.807  1.00  0.00     0.209 C 
BRANCH  15  16
HETATM   16  O   UNL     1      41.319 -10.836   7.770  1.00  0.00    -0.349 OA
BRANCH  16  17
HETATM   17  C   UNL     1      41.968 -10.609   8.953  1.00  0.00     0.069 A 
HETATM   18  C   UNL     1      41.222  -9.906   9.899  1.00  0.00     0.038 A 
HETATM   19  C   UNL     1      41.767  -9.606  11.148  1.00  0.00     0.027 A 
HETATM   20  C   UNL     1      43.067 -10.005  11.457  1.00  0.00     0.040 A 
HETATM   21  C   UNL     1      43.836 -10.708  10.517  1.00  0.00    -0.038 A 
HETATM   22 CL   UNL     1      43.687  -9.598  13.015  1.00  0.00    -0.084 Cl
HETATM   23  C   UNL     1      45.249 -11.132  10.815  1.00  0.00     0.050 C 
HETATM   24  C   UNL     1      43.273 -11.001   9.260  1.00  0.00     0.045 A 
ENDBRANCH  16  17
ENDBRANCH  15  16
ENDBRANCH  14  15
BRANCH  14  25
HETATM   25  O   UNL     1      39.295 -13.215   7.506  1.00  0.00    -0.392 OA
HETATM   26  H   UNL     1      38.616 -13.710   6.986  1.00  0.00     0.210 HD
ENDBRANCH  14  25
ENDBRANCH  13  14
ENDBRANCH   1  13
BRANCH   6  27
HETATM   27  C   UNL     1      41.251 -17.072   4.318  1.00  0.00     0.175 C 
BRANCH  27  28
HETATM   28  C   UNL     1      42.582 -17.238   3.554  1.00  0.00     0.256 C 
BRANCH  28  29
HETATM   29  N   UNL     1      43.576 -18.120   4.284  1.00  0.00    -0.066 N 
HETATM   30  H   UNL     1      44.454 -17.605   4.446  1.00  0.00     0.280 HD
HETATM   31  C   UNL     1      43.050 -18.499   5.686  1.00  0.00     0.261 C 
HETATM   32  C   UNL     1      44.079 -19.378   6.405  1.00  0.00     0.195 C 
HETATM   33  O   UNL     1      44.357 -20.554   5.640  1.00  0.00    -0.388 OA
HETATM   34  C   UNL     1      44.918 -20.243   4.364  1.00  0.00     0.195 C 
HETATM   35  C   UNL     1      43.938 -19.408   3.529  1.00  0.00     0.261 C 
ENDBRANCH  28  29
ENDBRANCH  27  28
ENDBRANCH   6  27
TORSDOF 9
ENDMDL
MODEL 6
REMARK VINA RESULT:      -7.4      4.399      6.689
REMARK  9 active torsions:
REMARK  status: ('A' for Active; 'I' for Inactive)
REMARK    1  A    between atoms: C_7  and  O_8 
REMARK    2  A    between atoms: O_8  and  C_9 
REMARK    3  A    between atoms: C_9  and  C_10 
REMARK    4  A    between atoms: C_10  and  O_11 
REMARK    5  A    between atoms: C_10  and  C_12 
REMARK    6  A    between atoms: C_12  and  N_13 
REMARK    7  A    between atoms: N_18  and  C_19 
REMARK    8  A    between atoms: C_19  and  C_20 
REMARK    9  A    between atoms: C_20  and  N_21 
ROOT
HETATM    1  N   UNL     1      42.307 -16.356   4.866  1.00  0.00    -0.179 N 
HETATM    2  C   UNL     1      41.159 -15.921   4.232  1.00  0.00     0.681 A 
HETATM    3  N   UNL     1      40.285 -15.057   4.748  1.00  0.00    -0.234 N 
HETATM    4  H   UNL     1      39.406 -14.802   4.336  1.00  0.00     0.174 HD
HETATM    5  H   UNL     1      40.430 -14.762   5.721  1.00  0.00     0.174 HD
HETATM    6  N   UNL     1      40.972 -16.491   2.971  1.00  0.00    -0.180 N 
HETATM    7  C   UNL     1      42.045 -17.423   2.839  1.00  0.00     0.079 A 
HETATM    8  C   UNL     1      42.857 -17.337   3.980  1.00  0.00     0.079 A 
HETATM    9  C   UNL     1      42.313 -18.313   1.820  1.00  0.00     0.032 A 
HETATM   10  C   UNL     1      43.434 -19.136   1.972  1.00  0.00     0.002 A 
HETATM   11  C   UNL     1      44.250 -19.051   3.117  1.00  0.00     0.002 A 
HETATM   12  C   UNL     1      43.964 -18.141   4.141  1.00  0.00     0.032 A 
ENDROOT
BRANCH   1  13
HETATM   13  C   UNL     1      42.923 -16.004   6.173  1.00  0.00     0.181 C 
BRANCH  13  14
HETATM   14  C   UNL     1      43.542 -14.604   6.278  1.00  0.00     0.161 C 
BRANCH  14  15
HETATM   15  C   UNL     1      44.363 -14.442   7.568  1.00  0.00     0.209 C 
BRANCH  15  16
HETATM   16  O   UNL     1      44.858 -13.099   7.550  1.00  0.00    -0.349 OA
BRANCH  16  17
HETATM   17  C   UNL     1      44.538 -12.300   8.612  1.00  0.00     0.069 A 
HETATM   18  C   UNL     1      45.453 -12.337   9.664  1.00  0.00     0.038 A 
HETATM   19  C   UNL     1      45.245 -11.569  10.811  1.00  0.00     0.027 A 
HETATM   20  C   UNL     1      44.113 -10.761  10.914  1.00  0.00     0.040 A 
HETATM   21  C   UNL     1      43.177 -10.714   9.870  1.00  0.00    -0.038 A 
HETATM   22 CL   UNL     1      43.907  -9.841  12.359  1.00  0.00    -0.084 Cl
HETATM   23  C   UNL     1      41.935  -9.869   9.962  1.00  0.00     0.050 C 
HETATM   24  C   UNL     1      43.400 -11.497   8.720  1.00  0.00     0.045 A 
ENDBRANCH  16  17
ENDBRANCH  15  16
ENDBRANCH  14  15
BRANCH  14  25
HETATM   25  O   UNL     1      42.492 -13.613   6.266  1.00  0.00    -0.392 OA
HETATM   26  H   UNL     1      41.821 -13.940   6.913  1.00  0.00     0.210 HD
ENDBRANCH  14  25
ENDBRANCH  13  14
ENDBRANCH   1  13
BRANCH   6  27
HETATM   27  C   UNL     1      39.848 -16.321   2.045  1.00  0.00     0.175 C 
BRANCH  27  28
HETATM   28  C   UNL     1      39.975 -15.050   1.178  1.00  0.00     0.256 C 
BRANCH  28  29
HETATM   29  N   UNL     1      38.875 -14.040   1.445  1.00  0.00    -0.066 N 
HETATM   30  H   UNL     1      38.195 -14.427   2.114  1.00  0.00     0.280 HD
HETATM   31  C   UNL     1      39.445 -12.770   2.114  1.00  0.00     0.261 C 
HETATM   32  C   UNL     1      38.312 -11.775   2.384  1.00  0.00     0.195 C 
HETATM   33  O   UNL     1      37.637 -11.440   1.168  1.00  0.00    -0.388 OA
HETATM   34  C   UNL     1      37.031 -12.581   0.559  1.00  0.00     0.195 C 
HETATM   35  C   UNL     1      38.092 -13.626   0.190  1.00  0.00     0.261 C 
ENDBRANCH  28  29
ENDBRANCH  27  28
ENDBRANCH   6  27
TORSDOF 9
ENDMDL
MODEL 7
REMARK VINA RESULT:      -7.3      2.217      3.638
REMARK  9 active torsions:
REMARK  status: ('A' for Active; 'I' for Inactive)
REMARK    1  A    between atoms: C_7  and  O_8 
REMARK    2  A    between atoms: O_8  and  C_9 
REMARK    3  A    between atoms: C_9  and  C_10 
REMARK    4  A    between atoms: C_10  and  O_11 
REMARK    5  A    between atoms: C_10  and  C_12 
REMARK    6  A    between atoms: C_12  and  N_13 
REMARK    7  A    between atoms: N_18  and  C_19 
REMARK    8  A    between atoms: C_19  and  C_20 
REMARK    9  A    between atoms: C_20  and  N_21 
ROOT
HETATM    1  N   UNL     1      41.768 -14.472   3.581  1.00  0.00    -0.179 N 
HETATM    2  C   UNL     1      41.941 -13.234   2.992  1.00  0.00     0.681 A 
HETATM    3  N   UNL     1      42.052 -12.083   3.654  1.00  0.00    -0.234 N 
HETATM    4  H   UNL     1      42.089 -11.172   3.237  1.00  0.00     0.174 HD
HETATM    5  H   UNL     1      41.909 -12.108   4.672  1.00  0.00     0.174 HD
HETATM    6  N   UNL     1      41.976 -13.284   1.597  1.00  0.00    -0.180 N 
HETATM    7  C   UNL     1      41.718 -14.653   1.283  1.00  0.00     0.079 A 
HETATM    8  C   UNL     1      41.600 -15.373   2.482  1.00  0.00     0.079 A 
HETATM    9  C   UNL     1      41.570 -15.258   0.053  1.00  0.00     0.032 A 
HETATM   10  C   UNL     1      41.292 -16.629   0.046  1.00  0.00     0.002 A 
HETATM   11  C   UNL     1      41.172 -17.353   1.248  1.00  0.00     0.002 A 
HETATM   12  C   UNL     1      41.327 -16.724   2.489  1.00  0.00     0.032 A 
ENDROOT
BRANCH   1  13
HETATM   13  C   UNL     1      41.710 -14.903   5.003  1.00  0.00     0.181 C 
BRANCH  13  14
HETATM   14  C   UNL     1      43.040 -15.329   5.639  1.00  0.00     0.161 C 
BRANCH  14  15
HETATM   15  C   UNL     1      43.176 -16.860   5.695  1.00  0.00     0.209 C 
BRANCH  15  16
HETATM   16  O   UNL     1      43.998 -17.219   4.578  1.00  0.00    -0.349 OA
BRANCH  16  17
HETATM   17  C   UNL     1      44.150 -18.553   4.318  1.00  0.00     0.069 A 
HETATM   18  C   UNL     1      44.552 -19.317   5.413  1.00  0.00     0.038 A 
HETATM   19  C   UNL     1      44.745 -20.693   5.284  1.00  0.00     0.027 A 
HETATM   20  C   UNL     1      44.542 -21.314   4.051  1.00  0.00     0.040 A 
HETATM   21  C   UNL     1      44.143 -20.562   2.935  1.00  0.00    -0.038 A 
HETATM   22 CL   UNL     1      44.805 -23.016   3.952  1.00  0.00    -0.084 Cl
HETATM   23  C   UNL     1      43.938 -21.201   1.588  1.00  0.00     0.050 C 
HETATM   24  C   UNL     1      43.954 -19.174   3.082  1.00  0.00     0.045 A 
ENDBRANCH  16  17
ENDBRANCH  15  16
ENDBRANCH  14  15
BRANCH  14  25
HETATM   25  O   UNL     1      43.120 -14.805   6.981  1.00  0.00    -0.392 OA
HETATM   26  H   UNL     1      44.056 -14.508   7.087  1.00  0.00     0.210 HD
ENDBRANCH  14  25
ENDBRANCH  13  14
ENDBRANCH   1  13
BRANCH   6  27
HETATM   27  C   UNL     1      42.077 -12.177   0.640  1.00  0.00     0.175 C 
BRANCH  27  28
HETATM   28  C   UNL     1      40.713 -11.786   0.032  1.00  0.00     0.256 C 
BRANCH  28  29
HETATM   29  N   UNL     1      40.596 -12.145  -1.437  1.00  0.00    -0.066 N 
HETATM   30  H   UNL     1      40.900 -13.118  -1.589  1.00  0.00     0.280 HD
HETATM   31  C   UNL     1      39.124 -12.090  -1.902  1.00  0.00     0.261 C 
HETATM   32  C   UNL     1      39.035 -12.470  -3.383  1.00  0.00     0.195 C 
HETATM   33  O   UNL     1      39.842 -11.595  -4.175  1.00  0.00    -0.388 OA
HETATM   34  C   UNL     1      41.224 -11.676  -3.824  1.00  0.00     0.195 C 
HETATM   35  C   UNL     1      41.438 -11.256  -2.364  1.00  0.00     0.261 C 
ENDBRANCH  28  29
ENDBRANCH  27  28
ENDBRANCH   6  27
TORSDOF 9
ENDMDL
MODEL 8
REMARK VINA RESULT:      -7.3      3.916      6.845
REMARK  9 active torsions:
REMARK  status: ('A' for Active; 'I' for Inactive)
REMARK    1  A    between atoms: C_7  and  O_8 
REMARK    2  A    between atoms: O_8  and  C_9 
REMARK    3  A    between atoms: C_9  and  C_10 
REMARK    4  A    between atoms: C_10  and  O_11 
REMARK    5  A    between atoms: C_10  and  C_12 
REMARK    6  A    between atoms: C_12  and  N_13 
REMARK    7  A    between atoms: N_18  and  C_19 
REMARK    8  A    between atoms: C_19  and  C_20 
REMARK    9  A    between atoms: C_20  and  N_21 
ROOT
HETATM    1  N   UNL     1      40.707 -13.331   4.139  1.00  0.00    -0.179 N 
HETATM    2  C   UNL     1      41.048 -13.083   5.454  1.00  0.00     0.681 A 
HETATM    3  N   UNL     1      41.828 -13.865   6.201  1.00  0.00    -0.234 N 
HETATM    4  H   UNL     1      42.010 -13.742   7.180  1.00  0.00     0.174 HD
HETATM    5  H   UNL     1      42.124 -14.761   5.796  1.00  0.00     0.174 HD
HETATM    6  N   UNL     1      40.476 -11.915   5.964  1.00  0.00    -0.180 N 
HETATM    7  C   UNL     1      39.642 -11.438   4.909  1.00  0.00     0.079 A 
HETATM    8  C   UNL     1      39.786 -12.289   3.802  1.00  0.00     0.079 A 
HETATM    9  C   UNL     1      38.789 -10.354   4.887  1.00  0.00     0.032 A 
HETATM   10  C   UNL     1      38.065 -10.137   3.710  1.00  0.00     0.002 A 
HETATM   11  C   UNL     1      38.209 -10.990   2.599  1.00  0.00     0.002 A 
HETATM   12  C   UNL     1      39.080 -12.085   2.637  1.00  0.00     0.032 A 
ENDROOT
BRANCH   1  13
HETATM   13  C   UNL     1      41.099 -14.408   3.191  1.00  0.00     0.181 C 
BRANCH  13  14
HETATM   14  C   UNL     1      42.423 -14.207   2.442  1.00  0.00     0.161 C 
BRANCH  14  15
HETATM   15  C   UNL     1      43.562 -15.021   3.077  1.00  0.00     0.209 C 
BRANCH  15  16
HETATM   16  O   UNL     1      42.938 -15.884   4.035  1.00  0.00    -0.349 OA
BRANCH  16  17
HETATM   17  C   UNL     1      43.385 -17.174   4.099  1.00  0.00     0.069 A 
HETATM   18  C   UNL     1      43.954 -17.533   5.321  1.00  0.00     0.038 A 
HETATM   19  C   UNL     1      44.451 -18.822   5.520  1.00  0.00     0.027 A 
HETATM   20  C   UNL     1      44.388 -19.760   4.490  1.00  0.00     0.040 A 
HETATM   21  C   UNL     1      43.826 -19.418   3.251  1.00  0.00    -0.038 A 
HETATM   22 CL   UNL     1      45.027 -21.334   4.793  1.00  0.00    -0.084 Cl
HETATM   23  C   UNL     1      43.765 -20.403   2.115  1.00  0.00     0.050 C 
HETATM   24  C   UNL     1      43.330 -18.113   3.066  1.00  0.00     0.045 A 
ENDBRANCH  16  17
ENDBRANCH  15  16
ENDBRANCH  14  15
BRANCH  14  25
HETATM   25  O   UNL     1      42.781 -12.809   2.466  1.00  0.00    -0.392 OA
HETATM   26  H   UNL     1      43.721 -12.788   2.769  1.00  0.00     0.210 HD
ENDBRANCH  14  25
ENDBRANCH  13  14
ENDBRANCH   1  13
BRANCH   6  27
HETATM   27  C   UNL     1      40.557 -11.371   7.324  1.00  0.00     0.175 C 
BRANCH  27  28
HETATM   28  C   UNL     1      41.970 -10.861   7.680  1.00  0.00     0.256 C 
BRANCH  28  29
HETATM   29  N   UNL     1      42.476 -11.398   9.005  1.00  0.00    -0.066 N 
HETATM   30  H   UNL     1      42.055 -12.319   9.196  1.00  0.00     0.280 HD
HETATM   31  C   UNL     1      44.000 -11.639   8.955  1.00  0.00     0.261 C 
HETATM   32  C   UNL     1      44.481 -12.194  10.299  1.00  0.00     0.195 C 
HETATM   33  O   UNL     1      44.151 -11.295  11.361  1.00  0.00    -0.388 OA
HETATM   34  C   UNL     1      42.740 -11.107  11.486  1.00  0.00     0.195 C 
HETATM   35  C   UNL     1      42.159 -10.495  10.205  1.00  0.00     0.261 C 
ENDBRANCH  28  29
ENDBRANCH  27  28
ENDBRANCH   6  27
TORSDOF 9
ENDMDL
MODEL 9
REMARK VINA RESULT:      -7.1      3.286      5.633
REMARK  9 active torsions:
REMARK  status: ('A' for Active; 'I' for Inactive)
REMARK    1  A    between atoms: C_7  and  O_8 
REMARK    2  A    between atoms: O_8  and  C_9 
REMARK    3  A    between atoms: C_9  and  C_10 
REMARK    4  A    between atoms: C_10  and  O_11 
REMARK    5  A    between atoms: C_10  and  C_12 
REMARK    6  A    between atoms: C_12  and  N_13 
REMARK    7  A    between atoms: N_18  and  C_19 
REMARK    8  A    between atoms: C_19  and  C_20 
REMARK    9  A    between atoms: C_20  and  N_21 
ROOT
HETATM    1  N   UNL     1      40.622 -15.261  -0.516  1.00  0.00    -0.179 N 
HETATM    2  C   UNL     1      40.873 -14.892  -1.824  1.00  0.00     0.681 A 
HETATM    3  N   UNL     1      41.726 -15.510  -2.640  1.00  0.00    -0.234 N 
HETATM    4  H   UNL     1      41.981 -15.200  -3.560  1.00  0.00     0.174 HD
HETATM    5  H   UNL     1      42.304 -16.260  -2.241  1.00  0.00     0.174 HD
HETATM    6  N   UNL     1      40.148 -13.770  -2.232  1.00  0.00    -0.180 N 
HETATM    7  C   UNL     1      39.451 -13.351  -1.059  1.00  0.00     0.079 A 
HETATM    8  C   UNL     1      39.731 -14.256  -0.023  1.00  0.00     0.079 A 
HETATM    9  C   UNL     1      38.639 -12.253  -0.867  1.00  0.00     0.032 A 
HETATM   10  C   UNL     1      38.103 -12.073   0.413  1.00  0.00     0.002 A 
HETATM   11  C   UNL     1      38.383 -12.980   1.453  1.00  0.00     0.002 A 
HETATM   12  C   UNL     1      39.208 -14.091   1.241  1.00  0.00     0.032 A 
ENDROOT
BRANCH   1  13
HETATM   13  C   UNL     1      41.120 -16.387   0.318  1.00  0.00     0.181 C 
BRANCH  13  14
HETATM   14  C   UNL     1      42.032 -16.010   1.493  1.00  0.00     0.161 C 
BRANCH  14  15
HETATM   15  C   UNL     1      43.337 -16.824   1.481  1.00  0.00     0.209 C 
BRANCH  15  16
HETATM   16  O   UNL     1      43.661 -17.063   2.855  1.00  0.00    -0.349 OA
BRANCH  16  17
HETATM   17  C   UNL     1      43.975 -18.346   3.209  1.00  0.00     0.069 A 
HETATM   18  C   UNL     1      44.331 -18.509   4.548  1.00  0.00     0.038 A 
HETATM   19  C   UNL     1      44.676 -19.769   5.040  1.00  0.00     0.027 A 
HETATM   20  C   UNL     1      44.672 -20.875   4.191  1.00  0.00     0.040 A 
HETATM   21  C   UNL     1      44.323 -20.732   2.839  1.00  0.00    -0.038 A 
HETATM   22 CL   UNL     1      45.115 -22.405   4.856  1.00  0.00    -0.084 Cl
HETATM   23  C   UNL     1      44.332 -21.903   1.895  1.00  0.00     0.050 C 
HETATM   24  C   UNL     1      43.979 -19.454   2.357  1.00  0.00     0.045 A 
ENDBRANCH  16  17
ENDBRANCH  15  16
ENDBRANCH  14  15
BRANCH  14  25
HETATM   25  O   UNL     1      41.342 -16.257   2.736  1.00  0.00    -0.392 OA
HETATM   26  H   UNL     1      40.737 -17.015   2.549  1.00  0.00     0.210 HD
ENDBRANCH  14  25
ENDBRANCH  13  14
ENDBRANCH   1  13
BRANCH   6  27
HETATM   27  C   UNL     1      40.203 -13.058  -3.513  1.00  0.00     0.175 C 
BRANCH  27  28
HETATM   28  C   UNL     1      41.580 -12.415  -3.781  1.00  0.00     0.256 C 
BRANCH  28  29
HETATM   29  N   UNL     1      41.890 -11.266  -2.839  1.00  0.00    -0.066 N 
HETATM   30  H   UNL     1      41.033 -10.970  -2.351  1.00  0.00     0.280 HD
HETATM   31  C   UNL     1      42.870 -11.711  -1.733  1.00  0.00     0.261 C 
HETATM   32  C   UNL     1      43.153 -10.537  -0.790  1.00  0.00     0.195 C 
HETATM   33  O   UNL     1      43.689  -9.428  -1.517  1.00  0.00    -0.388 OA
HETATM   34  C   UNL     1      42.776  -8.940  -2.501  1.00  0.00     0.195 C 
HETATM   35  C   UNL     1      42.466 -10.026  -3.539  1.00  0.00     0.261 C 
ENDBRANCH  28  29
ENDBRANCH  27  28
ENDBRANCH   6  27
TORSDOF 9
ENDMDL
MODEL 10
REMARK VINA RESULT:      -7.1      5.577      8.673
REMARK  9 active torsions:
REMARK  status: ('A' for Active; 'I' for Inactive)
REMARK    1  A    between atoms: C_7  and  O_8 
REMARK    2  A    between atoms: O_8  and  C_9 
REMARK    3  A    between atoms: C_9  and  C_10 
REMARK    4  A    between atoms: C_10  and  O_11 
REMARK    5  A    between atoms: C_10  and  C_12 
REMARK    6  A    between atoms: C_12  and  N_13 
REMARK    7  A    between atoms: N_18  and  C_19 
REMARK    8  A    between atoms: C_19  and  C_20 
REMARK    9  A    between atoms: C_20  and  N_21 
ROOT
HETATM    1  N   UNL     1      43.750 -14.379   6.411  1.00  0.00    -0.179 N 
HETATM    2  C   UNL     1      43.700 -15.753   6.274  1.00  0.00     0.681 A 
HETATM    3  N   UNL     1      44.682 -16.589   6.611  1.00  0.00    -0.234 N 
HETATM    4  H   UNL     1      44.693 -17.577   6.435  1.00  0.00     0.174 HD
HETATM    5  H   UNL     1      45.573 -16.174   6.912  1.00  0.00     0.174 HD
HETATM    6  N   UNL     1      42.504 -16.212   5.719  1.00  0.00    -0.180 N 
HETATM    7  C   UNL     1      41.779 -15.023   5.404  1.00  0.00     0.079 A 
HETATM    8  C   UNL     1      42.528 -13.915   5.828  1.00  0.00     0.079 A 
HETATM    9  C   UNL     1      40.560 -14.880   4.774  1.00  0.00     0.032 A 
HETATM   10  C   UNL     1      40.098 -13.576   4.569  1.00  0.00     0.002 A 
HETATM   11  C   UNL     1      40.849 -12.463   4.995  1.00  0.00     0.002 A 
HETATM   12  C   UNL     1      42.083 -12.626   5.634  1.00  0.00     0.032 A 
ENDROOT
BRANCH   1  13
HETATM   13  C   UNL     1      44.781 -13.467   6.973  1.00  0.00     0.181 C 
BRANCH  13  14
HETATM   14  C   UNL     1      44.590 -13.045   8.436  1.00  0.00     0.161 C 
BRANCH  14  15
HETATM   15  C   UNL     1      43.825 -11.716   8.548  1.00  0.00     0.209 C 
BRANCH  15  16
HETATM   16  O   UNL     1      44.397 -11.029   9.666  1.00  0.00    -0.349 OA
BRANCH  16  17
HETATM   17  C   UNL     1      43.532 -10.484  10.574  1.00  0.00     0.069 A 
HETATM   18  C   UNL     1      42.251 -10.237  10.081  1.00  0.00     0.038 A 
HETATM   19  C   UNL     1      41.271  -9.681  10.905  1.00  0.00     0.027 A 
HETATM   20  C   UNL     1      41.570  -9.363  12.229  1.00  0.00     0.040 A 
HETATM   21  C   UNL     1      42.855  -9.597  12.743  1.00  0.00    -0.038 A 
HETATM   22 CL   UNL     1      40.318  -8.671  13.195  1.00  0.00    -0.084 Cl
HETATM   23  C   UNL     1      43.212  -9.243  14.161  1.00  0.00     0.050 C 
HETATM   24  C   UNL     1      43.833 -10.157  11.899  1.00  0.00     0.045 A 
ENDBRANCH  16  17
ENDBRANCH  15  16
ENDBRANCH  14  15
BRANCH  14  25
HETATM   25  O   UNL     1      45.880 -12.894   9.065  1.00  0.00    -0.392 OA
HETATM   26  H   UNL     1      45.808 -12.073   9.609  1.00  0.00     0.210 HD
ENDBRANCH  14  25
ENDBRANCH  13  14
ENDBRANCH   1  13
BRANCH   6  27
HETATM   27  C   UNL     1      42.121 -17.584   5.367  1.00  0.00     0.175 C 
BRANCH  27  28
HETATM   28  C   UNL     1      42.358 -17.906   3.876  1.00  0.00     0.256 C 
BRANCH  28  29
HETATM   29  N   UNL     1      43.519 -18.856   3.654  1.00  0.00    -0.066 N 
HETATM   30  H   UNL     1      44.372 -18.325   3.424  1.00  0.00     0.280 HD
HETATM   31  C   UNL     1      43.847 -19.636   4.946  1.00  0.00     0.261 C 
HETATM   32  C   UNL     1      45.030 -20.576   4.697  1.00  0.00     0.195 C 
HETATM   33  O   UNL     1      44.737 -21.480   3.628  1.00  0.00    -0.388 OA
HETATM   34  C   UNL     1      44.502 -20.796   2.396  1.00  0.00     0.195 C 
HETATM   35  C   UNL     1      43.291 -19.862   2.516  1.00  0.00     0.261 C 
ENDBRANCH  28  29
ENDBRANCH  27  28
ENDBRANCH   6  27
TORSDOF 9
ENDMDL
