MODEL 1
REMARK VINA RESULT:      -8.4      0.000      0.000
REMARK  8 active torsions:
REMARK  status: ('A' for Active; 'I' for Inactive)
REMARK    1  A    between atoms: C_3  and  N_4 
REMARK       I    between atoms: N_4  and  C_5 
REMARK       I    between atoms: C_5  and  N_6 
REMARK       I    between atoms: N_6  and  C_7 
REMARK    2  A    between atoms: C_7  and  C_8 
REMARK    3  A    between atoms: C_8  and  N_9 
REMARK    4  A    between atoms: N_9  and  C_11 
REMARK    5  A    between atoms: N_9  and  C_17 
REMARK    6  A    between atoms: C_11  and  C_12 
REMARK    7  A    between atoms: C_17  and  C_18 
REMARK    8  A    between atoms: C_19  and  O_20 
ROOT
HETATM    1  N   UNL     1      42.506 -17.661   3.206  1.00  0.00    -0.053 N 
HETATM    2  H   UNL     1      42.513 -16.629   3.181  1.00  0.00     0.281 HD
ENDROOT
BRANCH   1   3
HETATM    3  C   UNL     1      41.683 -18.089   2.002  1.00  0.00     0.338 C 
BRANCH   3   4
HETATM    4  C   UNL     1      41.188 -16.898   1.185  1.00  0.00     0.251 C 
HETATM    5  N   UNL     1      40.039 -16.307   1.664  1.00  0.00    -0.278 N 
HETATM    6  C   UNL     1      39.567 -15.074   1.309  1.00  0.00     0.323 C 
HETATM    7  H   UNL     1      39.783 -16.486   2.630  1.00  0.00     0.173 HD
HETATM    8  N   UNL     1      39.797 -14.686   0.026  1.00  0.00    -0.338 N 
HETATM    9  O   UNL     1      38.989 -14.399   2.155  1.00  0.00    -0.247 OA
HETATM   10  H   UNL     1      40.423 -15.260  -0.529  1.00  0.00     0.164 HD
HETATM   11  O   UNL     1      41.817 -16.538   0.190  1.00  0.00    -0.271 OA
BRANCH   8  12
HETATM   12  C   UNL     1      39.395 -13.381  -0.492  1.00  0.00     0.089 C 
HETATM   13  C   UNL     1      40.430 -12.802  -1.485  1.00  0.00     0.004 C 
HETATM   14  C   UNL     1      41.835 -12.701  -0.885  1.00  0.00     0.012 C 
HETATM   15  C   UNL     1      40.457 -13.589  -2.805  1.00  0.00     0.006 C 
HETATM   16  C   UNL     1      39.070 -13.667  -3.440  1.00  0.00     0.001 C 
HETATM   17  C   UNL     1      38.032 -14.227  -2.473  1.00  0.00     0.002 C 
HETATM   18  C   UNL     1      38.009 -13.449  -1.159  1.00  0.00     0.026 C 
ENDBRANCH   8  12
ENDBRANCH   3   4
ENDBRANCH   1   3
BRANCH   1  19
HETATM   19  C   UNL     1      41.886 -17.972   4.547  1.00  0.00     0.300 C 
BRANCH  19  20
HETATM   20  C   UNL     1      42.576 -17.356   5.707  1.00  0.00     0.078 A 
HETATM   21  O   UNL     1      42.895 -18.200   6.733  1.00  0.00    -0.325 OA
HETATM   22  C   UNL     1      43.454 -17.444   7.713  1.00  0.00     0.142 A 
HETATM   23  C   UNL     1      43.530 -16.130   7.316  1.00  0.00     0.027 A 
HETATM   24  C   UNL     1      42.964 -16.071   6.018  1.00  0.00     0.036 A 
ENDBRANCH  19  20
ENDBRANCH   1  19
BRANCH   1  25
HETATM   25  C   UNL     1      43.950 -18.073   3.101  1.00  0.00     0.277 C 
BRANCH  25  26
HETATM   26  C   UNL     1      44.096 -19.570   3.081  1.00  0.00     0.001 A 
HETATM   27  C   UNL     1      44.667 -20.234   4.175  1.00  0.00     0.073 A 
HETATM   28  C   UNL     1      44.841 -21.614   4.176  1.00  0.00     0.037 A 
HETATM   29  C   UNL     1      44.454 -22.352   3.058  1.00  0.00     0.003 A 
HETATM   30  C   UNL     1      43.894 -21.708   1.954  1.00  0.00     0.001 A 
HETATM   31  C   UNL     1      43.711 -20.324   1.964  1.00  0.00     0.011 A 
BRANCH  27  32
HETATM   32  O   UNL     1      45.079 -19.483   5.241  1.00  0.00    -0.360 OA
HETATM   33  H   UNL     1      45.883 -19.900   5.611  1.00  0.00     0.217 HD
ENDBRANCH  27  32
ENDBRANCH  25  26
ENDBRANCH   1  25
TORSDOF 8
ENDMDL
MODEL 2
REMARK VINA RESULT:      -8.4      1.768      2.402
REMARK  8 active torsions:
REMARK  status: ('A' for Active; 'I' for Inactive)
REMARK    1  A    between atoms: C_3  and  N_4 
REMARK       I    between atoms: N_4  and  C_5 
REMARK       I    between atoms: C_5  and  N_6 
REMARK       I    between atoms: N_6  and  C_7 
REMARK    2  A    between atoms: C_7  and  C_8 
REMARK    3  A    between atoms: C_8  and  N_9 
REMARK    4  A    between atoms: N_9  and  C_11 
REMARK    5  A    between atoms: N_9  and  C_17 
REMARK    6  A    between atoms: C_11  and  C_12 
REMARK    7  A    between atoms: C_17  and  C_18 
REMARK    8  A    between atoms: C_19  and  O_20 
ROOT
HETATM    1  N   UNL     1      42.818 -17.048   2.584  1.00  0.00    -0.053 N 
HETATM    2  H   UNL     1      43.107 -17.596   1.758  1.00  0.00     0.281 HD
ENDROOT
BRANCH   1   3
HETATM    3  C   UNL     1      41.307 -16.925   2.480  1.00  0.00     0.338 C 
BRANCH   3   4
HETATM    4  C   UNL     1      40.867 -16.281   1.168  1.00  0.00     0.251 C 
HETATM    5  N   UNL     1      40.130 -15.125   1.312  1.00  0.00    -0.278 N 
HETATM    6  C   UNL     1      39.878 -14.211   0.326  1.00  0.00     0.323 C 
HETATM    7  H   UNL     1      40.184 -14.638   2.199  1.00  0.00     0.173 HD
HETATM    8  N   UNL     1      39.742 -14.704  -0.934  1.00  0.00    -0.338 N 
HETATM    9  O   UNL     1      39.806 -13.024   0.629  1.00  0.00    -0.247 OA
HETATM   10  H   UNL     1      39.982 -15.679  -1.082  1.00  0.00     0.164 HD
HETATM   11  O   UNL     1      41.185 -16.799   0.098  1.00  0.00    -0.271 OA
BRANCH   8  12
HETATM   12  C   UNL     1      39.516 -13.851  -2.099  1.00  0.00     0.089 C 
HETATM   13  C   UNL     1      40.307 -14.333  -3.338  1.00  0.00     0.004 C 
HETATM   14  C   UNL     1      41.811 -14.445  -3.074  1.00  0.00     0.012 C 
HETATM   15  C   UNL     1      39.751 -15.653  -3.893  1.00  0.00     0.006 C 
HETATM   16  C   UNL     1      38.259 -15.549  -4.199  1.00  0.00     0.001 C 
HETATM   17  C   UNL     1      37.461 -15.067  -2.993  1.00  0.00     0.002 C 
HETATM   18  C   UNL     1      38.017 -13.756  -2.437  1.00  0.00     0.026 C 
ENDBRANCH   8  12
ENDBRANCH   3   4
ENDBRANCH   1   3
BRANCH   1  19
HETATM   19  C   UNL     1      43.577 -15.753   2.425  1.00  0.00     0.300 C 
BRANCH  19  20
HETATM   20  C   UNL     1      43.149 -14.667   3.342  1.00  0.00     0.078 A 
HETATM   21  O   UNL     1      42.455 -13.638   2.771  1.00  0.00    -0.325 OA
HETATM   22  C   UNL     1      42.214 -12.728   3.749  1.00  0.00     0.142 A 
HETATM   23  C   UNL     1      42.714 -13.174   4.950  1.00  0.00     0.027 A 
HETATM   24  C   UNL     1      43.318 -14.430   4.689  1.00  0.00     0.036 A 
ENDBRANCH  19  20
ENDBRANCH   1  19
BRANCH   1  25
HETATM   25  C   UNL     1      43.256 -17.860   3.774  1.00  0.00     0.277 C 
BRANCH  25  26
HETATM   26  C   UNL     1      43.641 -19.258   3.375  1.00  0.00     0.001 A 
HETATM   27  C   UNL     1      44.414 -20.047   4.237  1.00  0.00     0.073 A 
HETATM   28  C   UNL     1      44.811 -21.333   3.884  1.00  0.00     0.037 A 
HETATM   29  C   UNL     1      44.443 -21.844   2.640  1.00  0.00     0.003 A 
HETATM   30  C   UNL     1      43.682 -21.071   1.763  1.00  0.00     0.001 A 
HETATM   31  C   UNL     1      43.278 -19.784   2.127  1.00  0.00     0.011 A 
BRANCH  27  32
HETATM   32  O   UNL     1      44.800 -19.507   5.433  1.00  0.00    -0.360 OA
HETATM   33  H   UNL     1      44.519 -18.570   5.445  1.00  0.00     0.217 HD
ENDBRANCH  27  32
ENDBRANCH  25  26
ENDBRANCH   1  25
TORSDOF 8
ENDMDL
MODEL 3
REMARK VINA RESULT:      -8.3      1.840      2.378
REMARK  8 active torsions:
REMARK  status: ('A' for Active; 'I' for Inactive)
REMARK    1  A    between atoms: C_3  and  N_4 
REMARK       I    between atoms: N_4  and  C_5 
REMARK       I    between atoms: C_5  and  N_6 
REMARK       I    between atoms: N_6  and  C_7 
REMARK    2  A    between atoms: C_7  and  C_8 
REMARK    3  A    between atoms: C_8  and  N_9 
REMARK    4  A    between atoms: N_9  and  C_11 
REMARK    5  A    between atoms: N_9  and  C_17 
REMARK    6  A    between atoms: C_11  and  C_12 
REMARK    7  A    between atoms: C_17  and  C_18 
REMARK    8  A    between atoms: C_19  and  O_20 
ROOT
HETATM    1  N   UNL     1      41.913 -16.041   3.488  1.00  0.00    -0.053 N 
HETATM    2  H   UNL     1      41.690 -15.061   3.251  1.00  0.00     0.281 HD
ENDROOT
BRANCH   1   3
HETATM    3  C   UNL     1      40.959 -16.884   2.658  1.00  0.00     0.338 C 
BRANCH   3   4
HETATM    4  C   UNL     1      40.632 -16.236   1.314  1.00  0.00     0.251 C 
HETATM    5  N   UNL     1      39.703 -15.221   1.374  1.00  0.00    -0.278 N 
HETATM    6  C   UNL     1      39.464 -14.297   0.394  1.00  0.00     0.323 C 
HETATM    7  H   UNL     1      39.536 -14.786   2.275  1.00  0.00     0.173 HD
HETATM    8  N   UNL     1      39.611 -14.727  -0.888  1.00  0.00    -0.338 N 
HETATM    9  O   UNL     1      39.152 -13.158   0.723  1.00  0.00    -0.247 OA
HETATM   10  H   UNL     1      40.028 -15.642  -1.028  1.00  0.00     0.164 HD
HETATM   11  O   UNL     1      41.196 -16.632   0.294  1.00  0.00    -0.271 OA
BRANCH   8  12
HETATM   12  C   UNL     1      39.435 -13.850  -2.043  1.00  0.00     0.089 C 
HETATM   13  C   UNL     1      40.274 -14.310  -3.259  1.00  0.00     0.004 C 
HETATM   14  C   UNL     1      41.766 -14.435  -2.937  1.00  0.00     0.012 C 
HETATM   15  C   UNL     1      39.735 -15.616  -3.863  1.00  0.00     0.006 C 
HETATM   16  C   UNL     1      38.257 -15.498  -4.227  1.00  0.00     0.001 C 
HETATM   17  C   UNL     1      37.413 -15.037  -3.044  1.00  0.00     0.002 C 
HETATM   18  C   UNL     1      37.952 -13.741  -2.440  1.00  0.00     0.026 C 
ENDBRANCH   8  12
ENDBRANCH   3   4
ENDBRANCH   1   3
BRANCH   1  19
HETATM   19  C   UNL     1      41.684 -16.099   4.979  1.00  0.00     0.300 C 
BRANCH  19  20
HETATM   20  C   UNL     1      42.702 -15.388   5.791  1.00  0.00     0.078 A 
HETATM   21  O   UNL     1      42.745 -14.030   5.644  1.00  0.00    -0.325 OA
HETATM   22  C   UNL     1      43.770 -13.578   6.411  1.00  0.00     0.142 A 
HETATM   23  C   UNL     1      44.365 -14.623   7.077  1.00  0.00     0.027 A 
HETATM   24  C   UNL     1      43.674 -15.796   6.679  1.00  0.00     0.036 A 
ENDBRANCH  19  20
ENDBRANCH   1  19
BRANCH   1  25
HETATM   25  C   UNL     1      43.353 -16.229   3.092  1.00  0.00     0.277 C 
BRANCH  25  26
HETATM   26  C   UNL     1      43.726 -17.686   3.051  1.00  0.00     0.001 A 
HETATM   27  C   UNL     1      43.926 -18.325   1.821  1.00  0.00     0.073 A 
HETATM   28  C   UNL     1      44.243 -19.678   1.749  1.00  0.00     0.037 A 
HETATM   29  C   UNL     1      44.351 -20.417   2.925  1.00  0.00     0.003 A 
HETATM   30  C   UNL     1      44.146 -19.802   4.160  1.00  0.00     0.001 A 
HETATM   31  C   UNL     1      43.839 -18.441   4.226  1.00  0.00     0.011 A 
BRANCH  27  32
HETATM   32  O   UNL     1      43.770 -17.588   0.679  1.00  0.00    -0.360 OA
HETATM   33  H   UNL     1      44.585 -17.681   0.147  1.00  0.00     0.217 HD
ENDBRANCH  27  32
ENDBRANCH  25  26
ENDBRANCH   1  25
TORSDOF 8
ENDMDL
MODEL 4
REMARK VINA RESULT:      -8.1      3.298      6.162
REMARK  8 active torsions:
REMARK  status: ('A' for Active; 'I' for Inactive)
REMARK    1  A    between atoms: C_3  and  N_4 
REMARK       I    between atoms: N_4  and  C_5 
REMARK       I    between atoms: C_5  and  N_6 
REMARK       I    between atoms: N_6  and  C_7 
REMARK    2  A    between atoms: C_7  and  C_8 
REMARK    3  A    between atoms: C_8  and  N_9 
REMARK    4  A    between atoms: N_9  and  C_11 
REMARK    5  A    between atoms: N_9  and  C_17 
REMARK    6  A    between atoms: C_11  and  C_12 
REMARK    7  A    between atoms: C_17  and  C_18 
REMARK    8  A    between atoms: C_19  and  O_20 
ROOT
HETATM    1  N   UNL     1      43.907 -18.160   5.155  1.00  0.00    -0.053 N 
HETATM    2  H   UNL     1      44.260 -17.361   4.604  1.00  0.00     0.281 HD
ENDROOT
BRANCH   1   3
HETATM    3  C   UNL     1      43.479 -17.572   6.490  1.00  0.00     0.338 C 
BRANCH   3   4
HETATM    4  C   UNL     1      42.823 -16.202   6.336  1.00  0.00     0.251 C 
HETATM    5  N   UNL     1      43.658 -15.212   5.868  1.00  0.00    -0.278 N 
HETATM    6  C   UNL     1      43.262 -14.003   5.366  1.00  0.00     0.323 C 
HETATM    7  H   UNL     1      44.508 -15.496   5.394  1.00  0.00     0.173 HD
HETATM    8  N   UNL     1      42.146 -13.457   5.919  1.00  0.00    -0.338 N 
HETATM    9  O   UNL     1      43.913 -13.502   4.455  1.00  0.00    -0.247 OA
HETATM   10  H   UNL     1      41.604 -14.039   6.549  1.00  0.00     0.164 HD
HETATM   11  O   UNL     1      41.633 -16.062   6.619  1.00  0.00    -0.271 OA
BRANCH   8  12
HETATM   12  C   UNL     1      41.571 -12.194   5.461  1.00  0.00     0.089 C 
HETATM   13  C   UNL     1      40.078 -12.336   5.078  1.00  0.00     0.004 C 
HETATM   14  C   UNL     1      39.837 -13.418   4.022  1.00  0.00     0.012 C 
HETATM   15  C   UNL     1      39.193 -12.572   6.313  1.00  0.00     0.006 C 
HETATM   16  C   UNL     1      39.391 -11.480   7.362  1.00  0.00     0.001 C 
HETATM   17  C   UNL     1      40.857 -11.318   7.746  1.00  0.00     0.002 C 
HETATM   18  C   UNL     1      41.739 -11.089   6.519  1.00  0.00     0.026 C 
ENDBRANCH   8  12
ENDBRANCH   3   4
ENDBRANCH   1   3
BRANCH   1  19
HETATM   19  C   UNL     1      45.094 -19.090   5.219  1.00  0.00     0.300 C 
BRANCH  19  20
HETATM   20  C   UNL     1      44.862 -20.432   4.629  1.00  0.00     0.078 A 
HETATM   21  O   UNL     1      44.667 -21.453   5.517  1.00  0.00    -0.325 OA
HETATM   22  C   UNL     1      44.539 -22.593   4.792  1.00  0.00     0.142 A 
HETATM   23  C   UNL     1      44.613 -22.315   3.448  1.00  0.00     0.027 A 
HETATM   24  C   UNL     1      44.820 -20.917   3.340  1.00  0.00     0.036 A 
ENDBRANCH  19  20
ENDBRANCH   1  19
BRANCH   1  25
HETATM   25  C   UNL     1      42.751 -18.710   4.363  1.00  0.00     0.277 C 
BRANCH  25  26
HETATM   26  C   UNL     1      42.531 -17.930   3.096  1.00  0.00     0.001 A 
HETATM   27  C   UNL     1      41.391 -17.127   2.956  1.00  0.00     0.073 A 
HETATM   28  C   UNL     1      41.143 -16.416   1.786  1.00  0.00     0.037 A 
HETATM   29  C   UNL     1      42.041 -16.515   0.725  1.00  0.00     0.003 A 
HETATM   30  C   UNL     1      43.177 -17.316   0.840  1.00  0.00     0.001 A 
HETATM   31  C   UNL     1      43.425 -18.019   2.021  1.00  0.00     0.011 A 
BRANCH  27  32
HETATM   32  O   UNL     1      40.503 -17.082   3.996  1.00  0.00    -0.360 OA
HETATM   33  H   UNL     1      39.688 -16.643   3.677  1.00  0.00     0.217 HD
ENDBRANCH  27  32
ENDBRANCH  25  26
ENDBRANCH   1  25
TORSDOF 8
ENDMDL
MODEL 5
REMARK VINA RESULT:      -8.1      2.277      3.352
REMARK  8 active torsions:
REMARK  status: ('A' for Active; 'I' for Inactive)
REMARK    1  A    between atoms: C_3  and  N_4 
REMARK       I    between atoms: N_4  and  C_5 
REMARK       I    between atoms: C_5  and  N_6 
REMARK       I    between atoms: N_6  and  C_7 
REMARK    2  A    between atoms: C_7  and  C_8 
REMARK    3  A    between atoms: C_8  and  N_9 
REMARK    4  A    between atoms: N_9  and  C_11 
REMARK    5  A    between atoms: N_9  and  C_17 
REMARK    6  A    between atoms: C_11  and  C_12 
REMARK    7  A    between atoms: C_17  and  C_18 
REMARK    8  A    between atoms: C_19  and  O_20 
ROOT
HETATM    1  N   UNL     1      41.806 -15.387   3.361  1.00  0.00    -0.053 N 
HETATM    2  H   UNL     1      41.649 -14.480   2.896  1.00  0.00     0.281 HD
ENDROOT
BRANCH   1   3
HETATM    3  C   UNL     1      40.983 -16.394   2.573  1.00  0.00     0.338 C 
BRANCH   3   4
HETATM    4  C   UNL     1      40.599 -15.872   1.191  1.00  0.00     0.251 C 
HETATM    5  N   UNL     1      39.692 -14.835   1.197  1.00  0.00    -0.278 N 
HETATM    6  C   UNL     1      39.419 -14.006   0.144  1.00  0.00     0.323 C 
HETATM    7  H   UNL     1      39.579 -14.312   2.058  1.00  0.00     0.173 HD
HETATM    8  N   UNL     1      39.493 -14.561  -1.096  1.00  0.00    -0.338 N 
HETATM    9  O   UNL     1      39.144 -12.833   0.374  1.00  0.00    -0.247 OA
HETATM   10  H   UNL     1      39.886 -15.494  -1.166  1.00  0.00     0.164 HD
HETATM   11  O   UNL     1      41.103 -16.377   0.188  1.00  0.00    -0.271 OA
BRANCH   8  12
HETATM   12  C   UNL     1      39.273 -13.797  -2.321  1.00  0.00     0.089 C 
HETATM   13  C   UNL     1      40.173 -14.282  -3.482  1.00  0.00     0.004 C 
HETATM   14  C   UNL     1      41.662 -14.260  -3.128  1.00  0.00     0.012 C 
HETATM   15  C   UNL     1      39.753 -15.672  -3.986  1.00  0.00     0.006 C 
HETATM   16  C   UNL     1      38.279 -15.705  -4.381  1.00  0.00     0.001 C 
HETATM   17  C   UNL     1      37.375 -15.221  -3.253  1.00  0.00     0.002 C 
HETATM   18  C   UNL     1      37.795 -13.840  -2.748  1.00  0.00     0.026 C 
ENDBRANCH   8  12
ENDBRANCH   3   4
ENDBRANCH   1   3
BRANCH   1  19
HETATM   19  C   UNL     1      41.332 -15.141   4.773  1.00  0.00     0.300 C 
BRANCH  19  20
HETATM   20  C   UNL     1      40.427 -13.976   4.929  1.00  0.00     0.078 A 
HETATM   21  O   UNL     1      40.086 -13.322   3.778  1.00  0.00    -0.325 OA
HETATM   22  C   UNL     1      39.316 -12.262   4.134  1.00  0.00     0.142 A 
HETATM   23  C   UNL     1      39.126 -12.246   5.495  1.00  0.00     0.027 A 
HETATM   24  C   UNL     1      39.843 -13.355   6.012  1.00  0.00     0.036 A 
ENDBRANCH  19  20
ENDBRANCH   1  19
BRANCH   1  25
HETATM   25  C   UNL     1      43.287 -15.638   3.258  1.00  0.00     0.277 C 
BRANCH  25  26
HETATM   26  C   UNL     1      43.603 -17.107   3.322  1.00  0.00     0.001 A 
HETATM   27  C   UNL     1      43.907 -17.811   2.150  1.00  0.00     0.073 A 
HETATM   28  C   UNL     1      44.175 -19.176   2.172  1.00  0.00     0.037 A 
HETATM   29  C   UNL     1      44.125 -19.862   3.385  1.00  0.00     0.003 A 
HETATM   30  C   UNL     1      43.814 -19.181   4.562  1.00  0.00     0.001 A 
HETATM   31  C   UNL     1      43.557 -17.809   4.534  1.00  0.00     0.011 A 
BRANCH  27  32
HETATM   32  O   UNL     1      43.906 -17.125   0.967  1.00  0.00    -0.360 OA
HETATM   33  H   UNL     1      43.323 -16.346   1.070  1.00  0.00     0.217 HD
ENDBRANCH  27  32
ENDBRANCH  25  26
ENDBRANCH   1  25
TORSDOF 8
ENDMDL
MODEL 6
REMARK VINA RESULT:      -8.1      1.214      3.867
REMARK  8 active torsions:
REMARK  status: ('A' for Active; 'I' for Inactive)
REMARK    1  A    between atoms: C_3  and  N_4 
REMARK       I    between atoms: N_4  and  C_5 
REMARK       I    between atoms: C_5  and  N_6 
REMARK       I    between atoms: N_6  and  C_7 
REMARK    2  A    between atoms: C_7  and  C_8 
REMARK    3  A    between atoms: C_8  and  N_9 
REMARK    4  A    between atoms: N_9  and  C_11 
REMARK    5  A    between atoms: N_9  and  C_17 
REMARK    6  A    between atoms: C_11  and  C_12 
REMARK    7  A    between atoms: C_17  and  C_18 
REMARK    8  A    between atoms: C_19  and  O_20 
ROOT
HETATM    1  N   UNL     1      42.861 -18.537   2.667  1.00  0.00    -0.053 N 
HETATM    2  H   UNL     1      42.502 -19.112   3.445  1.00  0.00     0.281 HD
ENDROOT
BRANCH   1   3
HETATM    3  C   UNL     1      41.767 -18.558   1.611  1.00  0.00     0.338 C 
BRANCH   3   4
HETATM    4  C   UNL     1      41.414 -17.158   1.114  1.00  0.00     0.251 C 
HETATM    5  N   UNL     1      40.239 -16.647   1.618  1.00  0.00    -0.278 N 
HETATM    6  C   UNL     1      39.855 -15.334   1.575  1.00  0.00     0.323 C 
HETATM    7  H   UNL     1      39.865 -17.066   2.463  1.00  0.00     0.173 HD
HETATM    8  N   UNL     1      40.247 -14.626   0.483  1.00  0.00    -0.338 N 
HETATM    9  O   UNL     1      39.206 -14.881   2.512  1.00  0.00    -0.247 OA
HETATM   10  H   UNL     1      40.914 -15.066  -0.143  1.00  0.00     0.164 HD
HETATM   11  O   UNL     1      42.168 -16.582   0.330  1.00  0.00    -0.271 OA
BRANCH   8  12
HETATM   12  C   UNL     1      39.955 -13.205   0.312  1.00  0.00     0.089 C 
HETATM   13  C   UNL     1      41.238 -12.340   0.322  1.00  0.00     0.004 C 
HETATM   14  C   UNL     1      42.077 -12.539   1.587  1.00  0.00     0.012 C 
HETATM   15  C   UNL     1      42.088 -12.565  -0.937  1.00  0.00     0.006 C 
HETATM   16  C   UNL     1      41.278 -12.333  -2.211  1.00  0.00     0.001 C 
HETATM   17  C   UNL     1      40.005 -13.171  -2.237  1.00  0.00     0.002 C 
HETATM   18  C   UNL     1      39.160 -12.951  -0.982  1.00  0.00     0.026 C 
ENDBRANCH   8  12
ENDBRANCH   3   4
ENDBRANCH   1   3
BRANCH   1  19
HETATM   19  C   UNL     1      44.139 -19.238   2.276  1.00  0.00     0.300 C 
BRANCH  19  20
HETATM   20  C   UNL     1      44.354 -20.548   2.938  1.00  0.00     0.078 A 
HETATM   21  O   UNL     1      44.662 -20.506   4.269  1.00  0.00    -0.325 OA
HETATM   22  C   UNL     1      44.882 -21.785   4.669  1.00  0.00     0.142 A 
HETATM   23  C   UNL     1      44.685 -22.653   3.621  1.00  0.00     0.027 A 
HETATM   24  C   UNL     1      44.342 -21.855   2.500  1.00  0.00     0.036 A 
ENDBRANCH  19  20
ENDBRANCH   1  19
BRANCH   1  25
HETATM   25  C   UNL     1      43.079 -17.166   3.251  1.00  0.00     0.277 C 
BRANCH  25  26
HETATM   26  C   UNL     1      42.966 -17.184   4.751  1.00  0.00     0.001 A 
HETATM   27  C   UNL     1      41.715 -17.030   5.362  1.00  0.00     0.073 A 
HETATM   28  C   UNL     1      41.581 -17.013   6.747  1.00  0.00     0.037 A 
HETATM   29  C   UNL     1      42.718 -17.136   7.545  1.00  0.00     0.003 A 
HETATM   30  C   UNL     1      43.974 -17.279   6.956  1.00  0.00     0.001 A 
HETATM   31  C   UNL     1      44.101 -17.306   5.565  1.00  0.00     0.011 A 
BRANCH  27  32
HETATM   32  O   UNL     1      40.620 -16.867   4.558  1.00  0.00    -0.360 OA
HETATM   33  H   UNL     1      39.862 -16.625   5.127  1.00  0.00     0.217 HD
ENDBRANCH  27  32
ENDBRANCH  25  26
ENDBRANCH   1  25
TORSDOF 8
ENDMDL
MODEL 7
REMARK VINA RESULT:      -8.0      1.881      2.941
REMARK  8 active torsions:
REMARK  status: ('A' for Active; 'I' for Inactive)
REMARK    1  A    between atoms: C_3  and  N_4 
REMARK       I    between atoms: N_4  and  C_5 
REMARK       I    between atoms: C_5  and  N_6 
REMARK       I    between atoms: N_6  and  C_7 
REMARK    2  A    between atoms: C_7  and  C_8 
REMARK    3  A    between atoms: C_8  and  N_9 
REMARK    4  A    between atoms: N_9  and  C_11 
REMARK    5  A    between atoms: N_9  and  C_17 
REMARK    6  A    between atoms: C_11  and  C_12 
REMARK    7  A    between atoms: C_17  and  C_18 
REMARK    8  A    between atoms: C_19  and  O_20 
ROOT
HETATM    1  N   UNL     1      40.800 -15.816   4.419  1.00  0.00    -0.053 N 
HETATM    2  H   UNL     1      41.794 -15.558   4.315  1.00  0.00     0.281 HD
ENDROOT
BRANCH   1   3
HETATM    3  C   UNL     1      40.017 -14.559   4.075  1.00  0.00     0.338 C 
BRANCH   3   4
HETATM    4  C   UNL     1      40.043 -14.253   2.579  1.00  0.00     0.251 C 
HETATM    5  N   UNL     1      38.887 -14.579   1.904  1.00  0.00    -0.278 N 
HETATM    6  C   UNL     1      38.541 -14.143   0.654  1.00  0.00     0.323 C 
HETATM    7  H   UNL     1      38.041 -14.704   2.449  1.00  0.00     0.173 HD
HETATM    8  N   UNL     1      39.563 -13.955  -0.223  1.00  0.00    -0.338 N 
HETATM    9  O   UNL     1      37.357 -13.938   0.410  1.00  0.00    -0.247 OA
HETATM   10  H   UNL     1      40.508 -14.002   0.144  1.00  0.00     0.164 HD
HETATM   11  O   UNL     1      41.046 -13.747   2.078  1.00  0.00    -0.271 OA
BRANCH   8  12
HETATM   12  C   UNL     1      39.361 -13.450  -1.579  1.00  0.00     0.089 C 
HETATM   13  C   UNL     1      40.538 -12.567  -2.055  1.00  0.00     0.004 C 
HETATM   14  C   UNL     1      40.820 -11.394  -1.112  1.00  0.00     0.012 C 
HETATM   15  C   UNL     1      41.812 -13.394  -2.293  1.00  0.00     0.006 C 
HETATM   16  C   UNL     1      41.560 -14.546  -3.262  1.00  0.00     0.001 C 
HETATM   17  C   UNL     1      40.397 -15.424  -2.815  1.00  0.00     0.002 C 
HETATM   18  C   UNL     1      39.131 -14.602  -2.574  1.00  0.00     0.026 C 
ENDBRANCH   8  12
ENDBRANCH   3   4
ENDBRANCH   1   3
BRANCH   1  19
HETATM   19  C   UNL     1      40.703 -16.253   5.861  1.00  0.00     0.300 C 
BRANCH  19  20
HETATM   20  C   UNL     1      42.008 -16.409   6.551  1.00  0.00     0.078 A 
HETATM   21  O   UNL     1      42.051 -17.339   7.551  1.00  0.00    -0.325 OA
HETATM   22  C   UNL     1      43.295 -17.285   8.092  1.00  0.00     0.142 A 
HETATM   23  C   UNL     1      44.064 -16.357   7.431  1.00  0.00     0.027 A 
HETATM   24  C   UNL     1      43.234 -15.790   6.431  1.00  0.00     0.036 A 
ENDBRANCH  19  20
ENDBRANCH   1  19
BRANCH   1  25
HETATM   25  C   UNL     1      40.573 -16.932   3.435  1.00  0.00     0.277 C 
BRANCH  25  26
HETATM   26  C   UNL     1      41.870 -17.438   2.866  1.00  0.00     0.001 A 
HETATM   27  C   UNL     1      42.204 -17.169   1.532  1.00  0.00     0.073 A 
HETATM   28  C   UNL     1      43.383 -17.646   0.969  1.00  0.00     0.037 A 
HETATM   29  C   UNL     1      44.245 -18.422   1.743  1.00  0.00     0.003 A 
HETATM   30  C   UNL     1      43.926 -18.709   3.070  1.00  0.00     0.001 A 
HETATM   31  C   UNL     1      42.746 -18.218   3.633  1.00  0.00     0.011 A 
BRANCH  27  32
HETATM   32  O   UNL     1      41.321 -16.444   0.780  1.00  0.00    -0.360 OA
HETATM   33  H   UNL     1      40.609 -16.128   1.372  1.00  0.00     0.217 HD
ENDBRANCH  27  32
ENDBRANCH  25  26
ENDBRANCH   1  25
TORSDOF 8
ENDMDL
MODEL 8
REMARK VINA RESULT:      -7.8      2.126      2.767
REMARK  8 active torsions:
REMARK  status: ('A' for Active; 'I' for Inactive)
REMARK    1  A    between atoms: C_3  and  N_4 
REMARK       I    between atoms: N_4  and  C_5 
REMARK       I    between atoms: C_5  and  N_6 
REMARK       I    between atoms: N_6  and  C_7 
REMARK    2  A    between atoms: C_7  and  C_8 
REMARK    3  A    between atoms: C_8  and  N_9 
REMARK    4  A    between atoms: N_9  and  C_11 
REMARK    5  A    between atoms: N_9  and  C_17 
REMARK    6  A    between atoms: C_11  and  C_12 
REMARK    7  A    between atoms: C_17  and  C_18 
REMARK    8  A    between atoms: C_19  and  O_20 
ROOT
HETATM    1  N   UNL     1      42.956 -16.519   4.036  1.00  0.00    -0.053 N 
HETATM    2  H   UNL     1      43.787 -16.853   4.550  1.00  0.00     0.281 HD
ENDROOT
BRANCH   1   3
HETATM    3  C   UNL     1      43.497 -15.847   2.785  1.00  0.00     0.338 C 
BRANCH   3   4
HETATM    4  C   UNL     1      42.419 -15.073   2.030  1.00  0.00     0.251 C 
HETATM    5  N   UNL     1      42.581 -13.705   2.034  1.00  0.00    -0.278 N 
HETATM    6  C   UNL     1      41.946 -12.823   1.203  1.00  0.00     0.323 C 
HETATM    7  H   UNL     1      43.501 -13.339   2.253  1.00  0.00     0.173 HD
HETATM    8  N   UNL     1      40.678 -13.147   0.834  1.00  0.00    -0.338 N 
HETATM    9  O   UNL     1      42.552 -11.821   0.836  1.00  0.00    -0.247 OA
HETATM   10  H   UNL     1      40.347 -14.077   1.071  1.00  0.00     0.164 HD
HETATM   11  O   UNL     1      41.506 -15.685   1.476  1.00  0.00    -0.271 OA
BRANCH   8  12
HETATM   12  C   UNL     1      39.887 -12.332  -0.084  1.00  0.00     0.089 C 
HETATM   13  C   UNL     1      38.945 -13.188  -0.963  1.00  0.00     0.004 C 
HETATM   14  C   UNL     1      39.691 -14.266  -1.754  1.00  0.00     0.012 C 
HETATM   15  C   UNL     1      37.803 -13.806  -0.142  1.00  0.00     0.006 C 
HETATM   16  C   UNL     1      37.022 -12.741   0.624  1.00  0.00     0.001 C 
HETATM   17  C   UNL     1      37.933 -11.880   1.491  1.00  0.00     0.002 C 
HETATM   18  C   UNL     1      39.073 -11.268   0.676  1.00  0.00     0.026 C 
ENDBRANCH   8  12
ENDBRANCH   3   4
ENDBRANCH   1   3
BRANCH   1  19
HETATM   19  C   UNL     1      42.288 -15.592   5.022  1.00  0.00     0.300 C 
BRANCH  19  20
HETATM   20  C   UNL     1      43.213 -14.919   5.966  1.00  0.00     0.078 A 
HETATM   21  O   UNL     1      43.015 -13.579   6.150  1.00  0.00    -0.325 OA
HETATM   22  C   UNL     1      43.990 -13.142   6.988  1.00  0.00     0.142 A 
HETATM   23  C   UNL     1      44.792 -14.190   7.374  1.00  0.00     0.027 A 
HETATM   24  C   UNL     1      44.291 -15.341   6.715  1.00  0.00     0.036 A 
ENDBRANCH  19  20
ENDBRANCH   1  19
BRANCH   1  25
HETATM   25  C   UNL     1      42.152 -17.755   3.732  1.00  0.00     0.277 C 
BRANCH  25  26
HETATM   26  C   UNL     1      43.040 -18.914   3.368  1.00  0.00     0.001 A 
HETATM   27  C   UNL     1      44.035 -19.341   4.256  1.00  0.00     0.073 A 
HETATM   28  C   UNL     1      44.891 -20.391   3.937  1.00  0.00     0.037 A 
HETATM   29  C   UNL     1      44.766 -21.022   2.700  1.00  0.00     0.003 A 
HETATM   30  C   UNL     1      43.788 -20.604   1.797  1.00  0.00     0.001 A 
HETATM   31  C   UNL     1      42.925 -19.557   2.128  1.00  0.00     0.011 A 
BRANCH  27  32
HETATM   32  O   UNL     1      44.167 -18.677   5.445  1.00  0.00    -0.360 OA
HETATM   33  H   UNL     1      44.401 -17.748   5.247  1.00  0.00     0.217 HD
ENDBRANCH  27  32
ENDBRANCH  25  26
ENDBRANCH   1  25
TORSDOF 8
ENDMDL
MODEL 9
REMARK VINA RESULT:      -7.8      1.705      4.412
REMARK  8 active torsions:
REMARK  status: ('A' for Active; 'I' for Inactive)
REMARK    1  A    between atoms: C_3  and  N_4 
REMARK       I    between atoms: N_4  and  C_5 
REMARK       I    between atoms: C_5  and  N_6 
REMARK       I    between atoms: N_6  and  C_7 
REMARK    2  A    between atoms: C_7  and  C_8 
REMARK    3  A    between atoms: C_8  and  N_9 
REMARK    4  A    between atoms: N_9  and  C_11 
REMARK    5  A    between atoms: N_9  and  C_17 
REMARK    6  A    between atoms: C_11  and  C_12 
REMARK    7  A    between atoms: C_17  and  C_18 
REMARK    8  A    between atoms: C_19  and  O_20 
ROOT
HETATM    1  N   UNL     1      42.133 -17.597   2.457  1.00  0.00    -0.053 N 
HETATM    2  H   UNL     1      41.902 -18.320   3.156  1.00  0.00     0.281 HD
ENDROOT
BRANCH   1   3
HETATM    3  C   UNL     1      40.824 -17.281   1.753  1.00  0.00     0.338 C 
BRANCH   3   4
HETATM    4  C   UNL     1      40.932 -16.052   0.854  1.00  0.00     0.251 C 
HETATM    5  N   UNL     1      41.211 -16.326  -0.467  1.00  0.00    -0.278 N 
HETATM    6  C   UNL     1      41.064 -15.456  -1.512  1.00  0.00     0.323 C 
HETATM    7  H   UNL     1      41.033 -17.267  -0.802  1.00  0.00     0.173 HD
HETATM    8  N   UNL     1      41.300 -14.144  -1.243  1.00  0.00    -0.338 N 
HETATM    9  O   UNL     1      40.721 -15.899  -2.603  1.00  0.00    -0.247 OA
HETATM   10  H   UNL     1      41.418 -13.882  -0.269  1.00  0.00     0.164 HD
HETATM   11  O   UNL     1      40.764 -14.930   1.333  1.00  0.00    -0.271 OA
BRANCH   8  12
HETATM   12  C   UNL     1      41.142 -13.089  -2.240  1.00  0.00     0.089 C 
HETATM   13  C   UNL     1      40.152 -11.992  -1.780  1.00  0.00     0.004 C 
HETATM   14  C   UNL     1      38.776 -12.554  -1.410  1.00  0.00     0.012 C 
HETATM   15  C   UNL     1      40.726 -11.153  -0.628  1.00  0.00     0.006 C 
HETATM   16  C   UNL     1      42.081 -10.552  -0.992  1.00  0.00     0.001 C 
HETATM   17  C   UNL     1      43.069 -11.615  -1.458  1.00  0.00     0.002 C 
HETATM   18  C   UNL     1      42.498 -12.454  -2.600  1.00  0.00     0.026 C 
ENDBRANCH   8  12
ENDBRANCH   3   4
ENDBRANCH   1   3
BRANCH   1  19
HETATM   19  C   UNL     1      43.176 -18.268   1.596  1.00  0.00     0.300 C 
BRANCH  19  20
HETATM   20  C   UNL     1      43.656 -19.575   2.108  1.00  0.00     0.078 A 
HETATM   21  O   UNL     1      44.494 -19.526   3.187  1.00  0.00    -0.325 OA
HETATM   22  C   UNL     1      44.868 -20.802   3.461  1.00  0.00     0.142 A 
HETATM   23  C   UNL     1      44.254 -21.675   2.594  1.00  0.00     0.027 A 
HETATM   24  C   UNL     1      43.468 -20.884   1.719  1.00  0.00     0.036 A 
ENDBRANCH  19  20
ENDBRANCH   1  19
BRANCH   1  25
HETATM   25  C   UNL     1      42.665 -16.432   3.249  1.00  0.00     0.277 C 
BRANCH  25  26
HETATM   26  C   UNL     1      42.715 -16.744   4.719  1.00  0.00     0.001 A 
HETATM   27  C   UNL     1      41.557 -16.633   5.500  1.00  0.00     0.073 A 
HETATM   28  C   UNL     1      41.577 -16.886   6.868  1.00  0.00     0.037 A 
HETATM   29  C   UNL     1      42.778 -17.243   7.479  1.00  0.00     0.003 A 
HETATM   30  C   UNL     1      43.945 -17.349   6.721  1.00  0.00     0.001 A 
HETATM   31  C   UNL     1      43.916 -17.104   5.346  1.00  0.00     0.011 A 
BRANCH  27  32
HETATM   32  O   UNL     1      40.401 -16.238   4.886  1.00  0.00    -0.360 OA
HETATM   33  H   UNL     1      39.917 -17.041   4.607  1.00  0.00     0.217 HD
ENDBRANCH  27  32
ENDBRANCH  25  26
ENDBRANCH   1  25
TORSDOF 8
ENDMDL
MODEL 10
REMARK VINA RESULT:      -7.7      3.211      5.184
REMARK  8 active torsions:
REMARK  status: ('A' for Active; 'I' for Inactive)
REMARK    1  A    between atoms: C_3  and  N_4 
REMARK       I    between atoms: N_4  and  C_5 
REMARK       I    between atoms: C_5  and  N_6 
REMARK       I    between atoms: N_6  and  C_7 
REMARK    2  A    between atoms: C_7  and  C_8 
REMARK    3  A    between atoms: C_8  and  N_9 
REMARK    4  A    between atoms: N_9  and  C_11 
REMARK    5  A    between atoms: N_9  and  C_17 
REMARK    6  A    between atoms: C_11  and  C_12 
REMARK    7  A    between atoms: C_17  and  C_18 
REMARK    8  A    between atoms: C_19  and  O_20 
ROOT
HETATM    1  N   UNL     1      43.164 -17.393   5.399  1.00  0.00    -0.053 N 
HETATM    2  H   UNL     1      43.577 -16.700   4.756  1.00  0.00     0.281 HD
ENDROOT
BRANCH   1   3
HETATM    3  C   UNL     1      42.297 -16.591   6.355  1.00  0.00     0.338 C 
BRANCH   3   4
HETATM    4  C   UNL     1      41.864 -15.252   5.761  1.00  0.00     0.251 C 
HETATM    5  N   UNL     1      42.840 -14.599   5.041  1.00  0.00    -0.278 N 
HETATM    6  C   UNL     1      42.634 -13.560   4.175  1.00  0.00     0.323 C 
HETATM    7  H   UNL     1      43.628 -15.145   4.710  1.00  0.00     0.173 HD
HETATM    8  N   UNL     1      41.626 -12.703   4.490  1.00  0.00    -0.338 N 
HETATM    9  O   UNL     1      43.345 -13.475   3.179  1.00  0.00    -0.247 OA
HETATM   10  H   UNL     1      41.008 -12.970   5.249  1.00  0.00     0.164 HD
HETATM   11  O   UNL     1      40.716 -14.849   5.942  1.00  0.00    -0.271 OA
BRANCH   8  12
HETATM   12  C   UNL     1      41.253 -11.573   3.643  1.00  0.00     0.089 C 
HETATM   13  C   UNL     1      39.859 -11.761   2.997  1.00  0.00     0.004 C 
HETATM   14  C   UNL     1      39.749 -13.059   2.192  1.00  0.00     0.012 C 
HETATM   15  C   UNL     1      38.732 -11.667   4.037  1.00  0.00     0.006 C 
HETATM   16  C   UNL     1      38.802 -10.361   4.825  1.00  0.00     0.001 C 
HETATM   17  C   UNL     1      40.171 -10.152   5.461  1.00  0.00     0.002 C 
HETATM   18  C   UNL     1      41.293 -10.250   4.429  1.00  0.00     0.026 C 
ENDBRANCH   8  12
ENDBRANCH   3   4
ENDBRANCH   1   3
BRANCH   1  19
HETATM   19  C   UNL     1      44.370 -18.048   6.027  1.00  0.00     0.300 C 
BRANCH  19  20
HETATM   20  C   UNL     1      44.425 -19.523   5.875  1.00  0.00     0.078 A 
HETATM   21  O   UNL     1      45.129 -19.991   4.802  1.00  0.00    -0.325 OA
HETATM   22  C   UNL     1      45.007 -21.343   4.803  1.00  0.00     0.142 A 
HETATM   23  C   UNL     1      44.263 -21.754   5.883  1.00  0.00     0.027 A 
HETATM   24  C   UNL     1      43.886 -20.578   6.580  1.00  0.00     0.036 A 
ENDBRANCH  19  20
ENDBRANCH   1  19
BRANCH   1  25
HETATM   25  C   UNL     1      42.362 -18.321   4.524  1.00  0.00     0.277 C 
BRANCH  25  26
HETATM   26  C   UNL     1      42.194 -17.761   3.138  1.00  0.00     0.001 A 
HETATM   27  C   UNL     1      43.219 -17.907   2.194  1.00  0.00     0.073 A 
HETATM   28  C   UNL     1      43.105 -17.376   0.913  1.00  0.00     0.037 A 
HETATM   29  C   UNL     1      41.954 -16.671   0.565  1.00  0.00     0.003 A 
HETATM   30  C   UNL     1      40.926 -16.507   1.494  1.00  0.00     0.001 A 
HETATM   31  C   UNL     1      41.042 -17.051   2.775  1.00  0.00     0.011 A 
BRANCH  27  32
HETATM   32  O   UNL     1      44.357 -18.563   2.573  1.00  0.00    -0.360 OA
HETATM   33  H   UNL     1      44.797 -18.896   1.765  1.00  0.00     0.217 HD
ENDBRANCH  27  32
ENDBRANCH  25  26
ENDBRANCH   1  25
TORSDOF 8
ENDMDL
