MODEL 1
REMARK VINA RESULT:      -8.3      0.000      0.000
REMARK  7 active torsions:
REMARK  status: ('A' for Active; 'I' for Inactive)
REMARK    1  A    between atoms: C_3  and  C_4 
REMARK    2  A    between atoms: C_4  and  N_5 
REMARK    3  A    between atoms: N_5  and  C_6 
REMARK    4  A    between atoms: C_13  and  C_14 
REMARK       I    between atoms: C_14  and  N_15 
REMARK    5  A    between atoms: C_19  and  O_20 
REMARK    6  A    between atoms: O_20  and  C_21 
REMARK    7  A    between atoms: C_21  and  C_22 
ROOT
HETATM    1  C   UNL     1      41.665 -17.100   3.875  1.00  0.00     0.029 A 
HETATM    2  C   UNL     1      41.478 -15.726   3.631  1.00  0.00     0.045 A 
HETATM    3  C   UNL     1      40.900 -14.893   4.609  1.00  0.00     0.030 A 
HETATM    4  C   UNL     1      40.509 -15.457   5.815  1.00  0.00     0.063 A 
HETATM    5  N   UNL     1      39.996 -14.424   6.549  1.00  0.00    -0.277 N 
HETATM    6  H   UNL     1      39.615 -14.470   7.487  1.00  0.00     0.189 HD
HETATM    7  N   UNL     1      40.002 -13.237   5.920  1.00  0.00    -0.168 NA
HETATM    8  C   UNL     1      40.557 -13.512   4.717  1.00  0.00     0.156 A 
HETATM    9  C   UNL     1      40.650 -16.816   6.096  1.00  0.00     0.034 A 
HETATM   10  C   UNL     1      41.218 -17.620   5.095  1.00  0.00     0.031 A 
ENDROOT
BRANCH   1  11
HETATM   11  N   UNL     1      42.171 -17.881   2.842  1.00  0.00    -0.386 N 
HETATM   12  H   UNL     1      41.641 -17.830   1.978  1.00  0.00     0.160 HD
BRANCH  11  13
HETATM   13  C   UNL     1      43.591 -18.167   2.663  1.00  0.00     0.161 C 
BRANCH  13  14
HETATM   14  C   UNL     1      43.957 -19.630   2.822  1.00  0.00    -0.007 A 
HETATM   15  C   UNL     1      43.651 -20.569   1.820  1.00  0.00     0.011 A 
HETATM   16  C   UNL     1      43.950 -21.920   1.988  1.00  0.00     0.001 A 
HETATM   17  C   UNL     1      44.541 -22.358   3.167  1.00  0.00     0.003 A 
HETATM   18  C   UNL     1      44.836 -21.446   4.183  1.00  0.00     0.037 A 
HETATM   19  C   UNL     1      44.551 -20.086   4.017  1.00  0.00     0.076 A 
BRANCH  19  20
HETATM   20  O   UNL     1      44.788 -19.131   4.971  1.00  0.00    -0.350 OA
BRANCH  20  21
HETATM   21  C   UNL     1      44.263 -19.359   6.278  1.00  0.00     0.180 C 
BRANCH  21  22
HETATM   22  C   UNL     1      44.682 -18.209   7.141  1.00  0.00     0.010 A 
HETATM   23  C   UNL     1      44.355 -16.790   6.753  1.00  0.00     0.007 A 
HETATM   24  C   UNL     1      43.654 -17.429   7.921  1.00  0.00     0.007 A 
ENDBRANCH  21  22
ENDBRANCH  20  21
ENDBRANCH  19  20
ENDBRANCH  13  14
ENDBRANCH  11  13
ENDBRANCH   1  11
BRANCH   8  25
HETATM   25  C   UNL     1      40.741 -12.467   3.701  1.00  0.00     0.270 C 
HETATM   26  N   UNL     1      42.042 -12.080   3.529  1.00  0.00    -0.365 N 
HETATM   27  H   UNL     1      42.756 -12.517   4.101  1.00  0.00     0.159 HD
HETATM   28  H   UNL     1      42.267 -11.354   2.868  1.00  0.00     0.159 HD
HETATM   29  O   UNL     1      39.834 -11.960   3.048  1.00  0.00    -0.266 OA
ENDBRANCH   8  25
TORSDOF 7
ENDMDL
MODEL 2
REMARK VINA RESULT:      -8.1      2.417      3.882
REMARK  7 active torsions:
REMARK  status: ('A' for Active; 'I' for Inactive)
REMARK    1  A    between atoms: C_3  and  C_4 
REMARK    2  A    between atoms: C_4  and  N_5 
REMARK    3  A    between atoms: N_5  and  C_6 
REMARK    4  A    between atoms: C_13  and  C_14 
REMARK       I    between atoms: C_14  and  N_15 
REMARK    5  A    between atoms: C_19  and  O_20 
REMARK    6  A    between atoms: O_20  and  C_21 
REMARK    7  A    between atoms: C_21  and  C_22 
ROOT
HETATM    1  C   UNL     1      43.091 -17.820   6.012  1.00  0.00     0.029 A 
HETATM    2  C   UNL     1      43.771 -16.653   6.407  1.00  0.00     0.045 A 
HETATM    3  C   UNL     1      43.167 -15.387   6.270  1.00  0.00     0.030 A 
HETATM    4  C   UNL     1      41.892 -15.313   5.727  1.00  0.00     0.063 A 
HETATM    5  N   UNL     1      41.576 -13.985   5.722  1.00  0.00    -0.277 N 
HETATM    6  H   UNL     1      40.715 -13.562   5.394  1.00  0.00     0.189 HD
HETATM    7  N   UNL     1      42.540 -13.180   6.200  1.00  0.00    -0.168 NA
HETATM    8  C   UNL     1      43.533 -14.035   6.541  1.00  0.00     0.156 A 
HETATM    9  C   UNL     1      41.188 -16.438   5.297  1.00  0.00     0.034 A 
HETATM   10  C   UNL     1      41.823 -17.683   5.436  1.00  0.00     0.031 A 
ENDROOT
BRANCH   1  11
HETATM   11  N   UNL     1      43.770 -19.030   6.103  1.00  0.00    -0.386 N 
HETATM   12  H   UNL     1      43.190 -19.819   6.369  1.00  0.00     0.160 HD
BRANCH  11  13
HETATM   13  C   UNL     1      44.919 -19.378   5.272  1.00  0.00     0.161 C 
BRANCH  13  14
HETATM   14  C   UNL     1      44.583 -20.251   4.078  1.00  0.00    -0.007 A 
HETATM   15  C   UNL     1      44.758 -21.646   4.124  1.00  0.00     0.011 A 
HETATM   16  C   UNL     1      44.489 -22.440   3.011  1.00  0.00     0.001 A 
HETATM   17  C   UNL     1      44.059 -21.852   1.826  1.00  0.00     0.003 A 
HETATM   18  C   UNL     1      43.897 -20.466   1.753  1.00  0.00     0.037 A 
HETATM   19  C   UNL     1      44.152 -19.663   2.870  1.00  0.00     0.076 A 
BRANCH  19  20
HETATM   20  O   UNL     1      44.040 -18.298   2.874  1.00  0.00    -0.350 OA
BRANCH  20  21
HETATM   21  C   UNL     1      43.750 -17.655   1.634  1.00  0.00     0.180 C 
BRANCH  21  22
HETATM   22  C   UNL     1      42.429 -16.963   1.780  1.00  0.00     0.010 A 
HETATM   23  C   UNL     1      41.756 -16.322   0.593  1.00  0.00     0.007 A 
HETATM   24  C   UNL     1      41.181 -17.575   1.196  1.00  0.00     0.007 A 
ENDBRANCH  21  22
ENDBRANCH  20  21
ENDBRANCH  19  20
ENDBRANCH  13  14
ENDBRANCH  11  13
ENDBRANCH   1  11
BRANCH   8  25
HETATM   25  C   UNL     1      44.800 -13.551   7.106  1.00  0.00     0.270 C 
HETATM   26  N   UNL     1      44.707 -13.131   8.405  1.00  0.00    -0.365 N 
HETATM   27  H   UNL     1      43.804 -13.172   8.863  1.00  0.00     0.159 HD
HETATM   28  H   UNL     1      45.520 -12.764   8.873  1.00  0.00     0.159 HD
HETATM   29  O   UNL     1      45.865 -13.509   6.498  1.00  0.00    -0.266 OA
ENDBRANCH   8  25
TORSDOF 7
ENDMDL
MODEL 3
REMARK VINA RESULT:      -8.0      1.752      2.172
REMARK  7 active torsions:
REMARK  status: ('A' for Active; 'I' for Inactive)
REMARK    1  A    between atoms: C_3  and  C_4 
REMARK    2  A    between atoms: C_4  and  N_5 
REMARK    3  A    between atoms: N_5  and  C_6 
REMARK    4  A    between atoms: C_13  and  C_14 
REMARK       I    between atoms: C_14  and  N_15 
REMARK    5  A    between atoms: C_19  and  O_20 
REMARK    6  A    between atoms: O_20  and  C_21 
REMARK    7  A    between atoms: C_21  and  C_22 
ROOT
HETATM    1  C   UNL     1      41.762 -17.329   2.205  1.00  0.00     0.029 A 
HETATM    2  C   UNL     1      42.333 -16.396   3.091  1.00  0.00     0.045 A 
HETATM    3  C   UNL     1      41.607 -15.262   3.508  1.00  0.00     0.030 A 
HETATM    4  C   UNL     1      40.322 -15.078   3.019  1.00  0.00     0.063 A 
HETATM    5  N   UNL     1      39.879 -13.919   3.591  1.00  0.00    -0.277 N 
HETATM    6  H   UNL     1      38.975 -13.479   3.459  1.00  0.00     0.189 HD
HETATM    7  N   UNL     1      40.770 -13.320   4.399  1.00  0.00    -0.168 NA
HETATM    8  C   UNL     1      41.846 -14.139   4.356  1.00  0.00     0.156 A 
HETATM    9  C   UNL     1      39.722 -15.960   2.121  1.00  0.00     0.034 A 
HETATM   10  C   UNL     1      40.477 -17.072   1.715  1.00  0.00     0.031 A 
ENDROOT
BRANCH   1  11
HETATM   11  N   UNL     1      42.557 -18.385   1.773  1.00  0.00    -0.386 N 
HETATM   12  H   UNL     1      42.316 -18.744   0.855  1.00  0.00     0.160 HD
BRANCH  11  13
HETATM   13  C   UNL     1      43.963 -18.541   2.133  1.00  0.00     0.161 C 
BRANCH  13  14
HETATM   14  C   UNL     1      44.267 -19.797   2.926  1.00  0.00    -0.007 A 
HETATM   15  C   UNL     1      44.205 -21.069   2.326  1.00  0.00     0.011 A 
HETATM   16  C   UNL     1      44.444 -22.224   3.068  1.00  0.00     0.001 A 
HETATM   17  C   UNL     1      44.729 -22.130   4.426  1.00  0.00     0.003 A 
HETATM   18  C   UNL     1      44.777 -20.879   5.045  1.00  0.00     0.037 A 
HETATM   19  C   UNL     1      44.552 -19.713   4.304  1.00  0.00     0.076 A 
BRANCH  19  20
HETATM   20  O   UNL     1      44.559 -18.452   4.840  1.00  0.00    -0.350 OA
BRANCH  20  21
HETATM   21  C   UNL     1      44.932 -18.318   6.210  1.00  0.00     0.180 C 
BRANCH  21  22
HETATM   22  C   UNL     1      44.109 -17.213   6.798  1.00  0.00     0.010 A 
HETATM   23  C   UNL     1      42.605 -17.309   6.845  1.00  0.00     0.007 A 
HETATM   24  C   UNL     1      43.403 -17.409   8.116  1.00  0.00     0.007 A 
ENDBRANCH  21  22
ENDBRANCH  20  21
ENDBRANCH  19  20
ENDBRANCH  13  14
ENDBRANCH  11  13
ENDBRANCH   1  11
BRANCH   8  25
HETATM   25  C   UNL     1      43.070 -13.835   5.109  1.00  0.00     0.270 C 
HETATM   26  N   UNL     1      42.881 -13.727   6.460  1.00  0.00    -0.365 N 
HETATM   27  H   UNL     1      41.945 -13.847   6.829  1.00  0.00     0.159 HD
HETATM   28  H   UNL     1      43.658 -13.501   7.059  1.00  0.00     0.159 HD
HETATM   29  O   UNL     1      44.179 -13.683   4.607  1.00  0.00    -0.266 OA
ENDBRANCH   8  25
TORSDOF 7
ENDMDL
MODEL 4
REMARK VINA RESULT:      -8.0      1.427      2.032
REMARK  7 active torsions:
REMARK  status: ('A' for Active; 'I' for Inactive)
REMARK    1  A    between atoms: C_3  and  C_4 
REMARK    2  A    between atoms: C_4  and  N_5 
REMARK    3  A    between atoms: N_5  and  C_6 
REMARK    4  A    between atoms: C_13  and  C_14 
REMARK       I    between atoms: C_14  and  N_15 
REMARK    5  A    between atoms: C_19  and  O_20 
REMARK    6  A    between atoms: O_20  and  C_21 
REMARK    7  A    between atoms: C_21  and  C_22 
ROOT
HETATM    1  C   UNL     1      41.425 -16.954   3.423  1.00  0.00     0.029 A 
HETATM    2  C   UNL     1      41.283 -15.866   4.305  1.00  0.00     0.045 A 
HETATM    3  C   UNL     1      40.498 -14.750   3.950  1.00  0.00     0.030 A 
HETATM    4  C   UNL     1      39.876 -14.741   2.710  1.00  0.00     0.063 A 
HETATM    5  N   UNL     1      39.198 -13.557   2.653  1.00  0.00    -0.277 N 
HETATM    6  H   UNL     1      38.628 -13.215   1.887  1.00  0.00     0.189 HD
HETATM    7  N   UNL     1      39.337 -12.782   3.742  1.00  0.00    -0.168 NA
HETATM    8  C   UNL     1      40.141 -13.507   4.553  1.00  0.00     0.156 A 
HETATM    9  C   UNL     1      40.006 -15.784   1.792  1.00  0.00     0.034 A 
HETATM   10  C   UNL     1      40.805 -16.874   2.171  1.00  0.00     0.031 A 
ENDROOT
BRANCH   1  11
HETATM   11  N   UNL     1      42.273 -17.990   3.800  1.00  0.00    -0.386 N 
HETATM   12  H   UNL     1      41.798 -18.818   4.145  1.00  0.00     0.160 HD
BRANCH  11  13
HETATM   13  C   UNL     1      43.562 -18.251   3.167  1.00  0.00     0.161 C 
BRANCH  13  14
HETATM   14  C   UNL     1      43.961 -19.714   3.148  1.00  0.00    -0.007 A 
HETATM   15  C   UNL     1      43.715 -20.521   2.022  1.00  0.00     0.011 A 
HETATM   16  C   UNL     1      44.044 -21.875   2.024  1.00  0.00     0.001 A 
HETATM   17  C   UNL     1      44.607 -22.451   3.158  1.00  0.00     0.003 A 
HETATM   18  C   UNL     1      44.843 -21.672   4.293  1.00  0.00     0.037 A 
HETATM   19  C   UNL     1      44.527 -20.309   4.295  1.00  0.00     0.076 A 
BRANCH  19  20
HETATM   20  O   UNL     1      44.705 -19.482   5.373  1.00  0.00    -0.350 OA
BRANCH  20  21
HETATM   21  C   UNL     1      43.922 -19.737   6.537  1.00  0.00     0.180 C 
BRANCH  21  22
HETATM   22  C   UNL     1      43.991 -18.518   7.406  1.00  0.00     0.010 A 
HETATM   23  C   UNL     1      44.166 -17.148   6.803  1.00  0.00     0.007 A 
HETATM   24  C   UNL     1      42.851 -17.531   7.425  1.00  0.00     0.007 A 
ENDBRANCH  21  22
ENDBRANCH  20  21
ENDBRANCH  19  20
ENDBRANCH  13  14
ENDBRANCH  11  13
ENDBRANCH   1  11
BRANCH   8  25
HETATM   25  C   UNL     1      40.555 -13.004   5.870  1.00  0.00     0.270 C 
HETATM   26  N   UNL     1      39.639 -13.222   6.863  1.00  0.00    -0.365 N 
HETATM   27  H   UNL     1      38.770 -13.686   6.626  1.00  0.00     0.159 HD
HETATM   28  H   UNL     1      39.825 -12.895   7.797  1.00  0.00     0.159 HD
HETATM   29  O   UNL     1      41.617 -12.432   6.097  1.00  0.00    -0.266 OA
ENDBRANCH   8  25
TORSDOF 7
ENDMDL
MODEL 5
REMARK VINA RESULT:      -7.9      1.842      3.580
REMARK  7 active torsions:
REMARK  status: ('A' for Active; 'I' for Inactive)
REMARK    1  A    between atoms: C_3  and  C_4 
REMARK    2  A    between atoms: C_4  and  N_5 
REMARK    3  A    between atoms: N_5  and  C_6 
REMARK    4  A    between atoms: C_13  and  C_14 
REMARK       I    between atoms: C_14  and  N_15 
REMARK    5  A    between atoms: C_19  and  O_20 
REMARK    6  A    between atoms: O_20  and  C_21 
REMARK    7  A    between atoms: C_21  and  C_22 
ROOT
HETATM    1  C   UNL     1      43.751 -17.218   5.978  1.00  0.00     0.029 A 
HETATM    2  C   UNL     1      42.608 -16.533   5.523  1.00  0.00     0.045 A 
HETATM    3  C   UNL     1      42.459 -15.151   5.751  1.00  0.00     0.030 A 
HETATM    4  C   UNL     1      43.457 -14.479   6.443  1.00  0.00     0.063 A 
HETATM    5  N   UNL     1      43.043 -13.179   6.506  1.00  0.00    -0.277 N 
HETATM    6  H   UNL     1      43.529 -12.403   6.941  1.00  0.00     0.189 HD
HETATM    7  N   UNL     1      41.852 -12.945   5.930  1.00  0.00    -0.168 NA
HETATM    8  C   UNL     1      41.477 -14.157   5.460  1.00  0.00     0.156 A 
HETATM    9  C   UNL     1      44.595 -15.117   6.936  1.00  0.00     0.034 A 
HETATM   10  C   UNL     1      44.707 -16.497   6.703  1.00  0.00     0.031 A 
ENDROOT
BRANCH   1  11
HETATM   11  N   UNL     1      43.802 -18.595   5.788  1.00  0.00    -0.386 N 
HETATM   12  H   UNL     1      42.904 -19.028   5.603  1.00  0.00     0.160 HD
BRANCH  11  13
HETATM   13  C   UNL     1      44.941 -19.287   5.192  1.00  0.00     0.161 C 
BRANCH  13  14
HETATM   14  C   UNL     1      44.579 -20.202   4.038  1.00  0.00    -0.007 A 
HETATM   15  C   UNL     1      44.758 -21.594   4.129  1.00  0.00     0.011 A 
HETATM   16  C   UNL     1      44.466 -22.428   3.051  1.00  0.00     0.001 A 
HETATM   17  C   UNL     1      44.009 -21.882   1.857  1.00  0.00     0.003 A 
HETATM   18  C   UNL     1      43.842 -20.500   1.738  1.00  0.00     0.037 A 
HETATM   19  C   UNL     1      44.121 -19.658   2.820  1.00  0.00     0.076 A 
BRANCH  19  20
HETATM   20  O   UNL     1      44.005 -18.293   2.779  1.00  0.00    -0.350 OA
BRANCH  20  21
HETATM   21  C   UNL     1      43.780 -17.687   1.507  1.00  0.00     0.180 C 
BRANCH  21  22
HETATM   22  C   UNL     1      42.515 -16.890   1.602  1.00  0.00     0.010 A 
HETATM   23  C   UNL     1      41.745 -16.511   0.363  1.00  0.00     0.007 A 
HETATM   24  C   UNL     1      41.185 -17.537   1.310  1.00  0.00     0.007 A 
ENDBRANCH  21  22
ENDBRANCH  20  21
ENDBRANCH  19  20
ENDBRANCH  13  14
ENDBRANCH  11  13
ENDBRANCH   1  11
BRANCH   8  25
HETATM   25  C   UNL     1      40.202 -14.345   4.756  1.00  0.00     0.270 C 
HETATM   26  N   UNL     1      39.116 -14.438   5.584  1.00  0.00    -0.365 N 
HETATM   27  H   UNL     1      39.266 -14.384   6.585  1.00  0.00     0.159 HD
HETATM   28  H   UNL     1      38.200 -14.588   5.195  1.00  0.00     0.159 HD
HETATM   29  O   UNL     1      40.081 -14.420   3.537  1.00  0.00    -0.266 OA
ENDBRANCH   8  25
TORSDOF 7
ENDMDL
MODEL 6
REMARK VINA RESULT:      -7.9      3.378      3.986
REMARK  7 active torsions:
REMARK  status: ('A' for Active; 'I' for Inactive)
REMARK    1  A    between atoms: C_3  and  C_4 
REMARK    2  A    between atoms: C_4  and  N_5 
REMARK    3  A    between atoms: N_5  and  C_6 
REMARK    4  A    between atoms: C_13  and  C_14 
REMARK       I    between atoms: C_14  and  N_15 
REMARK    5  A    between atoms: C_19  and  O_20 
REMARK    6  A    between atoms: O_20  and  C_21 
REMARK    7  A    between atoms: C_21  and  C_22 
ROOT
HETATM    1  C   UNL     1      41.488 -17.096   1.465  1.00  0.00     0.029 A 
HETATM    2  C   UNL     1      41.550 -16.605   0.148  1.00  0.00     0.045 A 
HETATM    3  C   UNL     1      40.909 -15.400  -0.202  1.00  0.00     0.030 A 
HETATM    4  C   UNL     1      40.204 -14.713   0.776  1.00  0.00     0.063 A 
HETATM    5  N   UNL     1      39.705 -13.605   0.153  1.00  0.00    -0.277 N 
HETATM    6  H   UNL     1      39.138 -12.873   0.567  1.00  0.00     0.189 HD
HETATM    7  N   UNL     1      40.007 -13.516  -1.154  1.00  0.00    -0.168 NA
HETATM    8  C   UNL     1      40.751 -14.622  -1.388  1.00  0.00     0.156 A 
HETATM    9  C   UNL     1      40.092 -15.171   2.089  1.00  0.00     0.034 A 
HETATM   10  C   UNL     1      40.732 -16.381   2.401  1.00  0.00     0.031 A 
ENDROOT
BRANCH   1  11
HETATM   11  N   UNL     1      42.077 -18.328   1.728  1.00  0.00    -0.386 N 
HETATM   12  H   UNL     1      41.516 -19.129   1.459  1.00  0.00     0.160 HD
BRANCH  11  13
HETATM   13  C   UNL     1      43.518 -18.560   1.692  1.00  0.00     0.161 C 
BRANCH  13  14
HETATM   14  C   UNL     1      43.981 -19.734   2.533  1.00  0.00    -0.007 A 
HETATM   15  C   UNL     1      44.010 -21.039   2.008  1.00  0.00     0.011 A 
HETATM   16  C   UNL     1      44.395 -22.121   2.797  1.00  0.00     0.001 A 
HETATM   17  C   UNL     1      44.740 -21.921   4.129  1.00  0.00     0.003 A 
HETATM   18  C   UNL     1      44.700 -20.636   4.675  1.00  0.00     0.037 A 
HETATM   19  C   UNL     1      44.327 -19.542   3.887  1.00  0.00     0.076 A 
BRANCH  19  20
HETATM   20  O   UNL     1      44.241 -18.256   4.352  1.00  0.00    -0.350 OA
BRANCH  20  21
HETATM   21  C   UNL     1      43.265 -17.980   5.354  1.00  0.00     0.180 C 
BRANCH  21  22
HETATM   22  C   UNL     1      43.996 -17.616   6.611  1.00  0.00     0.010 A 
HETATM   23  C   UNL     1      43.245 -17.224   7.857  1.00  0.00     0.007 A 
HETATM   24  C   UNL     1      43.970 -18.541   7.802  1.00  0.00     0.007 A 
ENDBRANCH  21  22
ENDBRANCH  20  21
ENDBRANCH  19  20
ENDBRANCH  13  14
ENDBRANCH  11  13
ENDBRANCH   1  11
BRANCH   8  25
HETATM   25  C   UNL     1      41.284 -14.917  -2.725  1.00  0.00     0.270 C 
HETATM   26  N   UNL     1      42.328 -14.115  -3.098  1.00  0.00    -0.365 N 
HETATM   27  H   UNL     1      42.639 -13.395  -2.455  1.00  0.00     0.159 HD
HETATM   28  H   UNL     1      42.748 -14.228  -4.006  1.00  0.00     0.159 HD
HETATM   29  O   UNL     1      40.857 -15.794  -3.469  1.00  0.00    -0.266 OA
ENDBRANCH   8  25
TORSDOF 7
ENDMDL
MODEL 7
REMARK VINA RESULT:      -7.7      3.679      4.648
REMARK  7 active torsions:
REMARK  status: ('A' for Active; 'I' for Inactive)
REMARK    1  A    between atoms: C_3  and  C_4 
REMARK    2  A    between atoms: C_4  and  N_5 
REMARK    3  A    between atoms: N_5  and  C_6 
REMARK    4  A    between atoms: C_13  and  C_14 
REMARK       I    between atoms: C_14  and  N_15 
REMARK    5  A    between atoms: C_19  and  O_20 
REMARK    6  A    between atoms: O_20  and  C_21 
REMARK    7  A    between atoms: C_21  and  C_22 
ROOT
HETATM    1  C   UNL     1      41.081 -16.673   1.202  1.00  0.00     0.029 A 
HETATM    2  C   UNL     1      41.396 -16.100  -0.044  1.00  0.00     0.045 A 
HETATM    3  C   UNL     1      40.730 -14.941  -0.492  1.00  0.00     0.030 A 
HETATM    4  C   UNL     1      39.749 -14.383   0.316  1.00  0.00     0.063 A 
HETATM    5  N   UNL     1      39.294 -13.291  -0.367  1.00  0.00    -0.277 N 
HETATM    6  H   UNL     1      38.573 -12.643  -0.073  1.00  0.00     0.189 HD
HETATM    7  N   UNL     1      39.880 -13.097  -1.561  1.00  0.00    -0.168 NA
HETATM    8  C   UNL     1      40.770 -14.111  -1.652  1.00  0.00     0.156 A 
HETATM    9  C   UNL     1      39.385 -14.928   1.547  1.00  0.00     0.034 A 
HETATM   10  C   UNL     1      40.058 -16.089   1.958  1.00  0.00     0.031 A 
ENDROOT
BRANCH   1  11
HETATM   11  N   UNL     1      41.720 -17.858   1.552  1.00  0.00    -0.386 N 
HETATM   12  H   UNL     1      41.211 -18.699   1.304  1.00  0.00     0.160 HD
BRANCH  11  13
HETATM   13  C   UNL     1      43.170 -18.016   1.585  1.00  0.00     0.161 C 
BRANCH  13  14
HETATM   14  C   UNL     1      43.683 -18.826   2.760  1.00  0.00    -0.007 A 
HETATM   15  C   UNL     1      44.402 -20.019   2.563  1.00  0.00     0.011 A 
HETATM   16  C   UNL     1      44.834 -20.784   3.645  1.00  0.00     0.001 A 
HETATM   17  C   UNL     1      44.539 -20.379   4.942  1.00  0.00     0.003 A 
HETATM   18  C   UNL     1      43.809 -19.208   5.160  1.00  0.00     0.037 A 
HETATM   19  C   UNL     1      43.383 -18.428   4.079  1.00  0.00     0.076 A 
BRANCH  19  20
HETATM   20  O   UNL     1      42.646 -17.280   4.206  1.00  0.00    -0.350 OA
BRANCH  20  21
HETATM   21  C   UNL     1      43.302 -16.128   4.733  1.00  0.00     0.180 C 
BRANCH  21  22
HETATM   22  C   UNL     1      42.630 -14.920   4.156  1.00  0.00     0.010 A 
HETATM   23  C   UNL     1      43.187 -13.539   4.392  1.00  0.00     0.007 A 
HETATM   24  C   UNL     1      43.273 -14.159   3.024  1.00  0.00     0.007 A 
ENDBRANCH  21  22
ENDBRANCH  20  21
ENDBRANCH  19  20
ENDBRANCH  13  14
ENDBRANCH  11  13
ENDBRANCH   1  11
BRANCH   8  25
HETATM   25  C   UNL     1      41.627 -14.275  -2.835  1.00  0.00     0.270 C 
HETATM   26  N   UNL     1      42.772 -13.527  -2.801  1.00  0.00    -0.365 N 
HETATM   27  H   UNL     1      42.935 -12.928  -1.999  1.00  0.00     0.159 HD
HETATM   28  H   UNL     1      43.414 -13.556  -3.576  1.00  0.00     0.159 HD
HETATM   29  O   UNL     1      41.371 -15.004  -3.788  1.00  0.00    -0.266 OA
ENDBRANCH   8  25
TORSDOF 7
ENDMDL
MODEL 8
REMARK VINA RESULT:      -7.6      1.902      2.130
REMARK  7 active torsions:
REMARK  status: ('A' for Active; 'I' for Inactive)
REMARK    1  A    between atoms: C_3  and  C_4 
REMARK    2  A    between atoms: C_4  and  N_5 
REMARK    3  A    between atoms: N_5  and  C_6 
REMARK    4  A    between atoms: C_13  and  C_14 
REMARK       I    between atoms: C_14  and  N_15 
REMARK    5  A    between atoms: C_19  and  O_20 
REMARK    6  A    between atoms: O_20  and  C_21 
REMARK    7  A    between atoms: C_21  and  C_22 
ROOT
HETATM    1  C   UNL     1      41.723 -16.383   3.783  1.00  0.00     0.029 A 
HETATM    2  C   UNL     1      40.776 -15.945   2.839  1.00  0.00     0.045 A 
HETATM    3  C   UNL     1      40.162 -14.683   2.968  1.00  0.00     0.030 A 
HETATM    4  C   UNL     1      40.501 -13.886   4.052  1.00  0.00     0.063 A 
HETATM    5  N   UNL     1      39.762 -12.746   3.910  1.00  0.00    -0.277 N 
HETATM    6  H   UNL     1      39.757 -11.939   4.524  1.00  0.00     0.189 HD
HETATM    7  N   UNL     1      38.955 -12.736   2.836  1.00  0.00    -0.168 NA
HETATM    8  C   UNL     1      39.190 -13.929   2.244  1.00  0.00     0.156 A 
HETATM    9  C   UNL     1      41.415 -14.286   5.027  1.00  0.00     0.034 A 
HETATM   10  C   UNL     1      41.999 -15.553   4.876  1.00  0.00     0.031 A 
ENDROOT
BRANCH   1  11
HETATM   11  N   UNL     1      42.236 -17.668   3.641  1.00  0.00    -0.386 N 
HETATM   12  H   UNL     1      41.534 -18.400   3.605  1.00  0.00     0.160 HD
BRANCH  11  13
HETATM   13  C   UNL     1      43.464 -17.973   2.915  1.00  0.00     0.161 C 
BRANCH  13  14
HETATM   14  C   UNL     1      43.834 -19.444   2.905  1.00  0.00    -0.007 A 
HETATM   15  C   UNL     1      43.495 -20.272   1.818  1.00  0.00     0.011 A 
HETATM   16  C   UNL     1      43.797 -21.632   1.831  1.00  0.00     0.001 A 
HETATM   17  C   UNL     1      44.426 -22.193   2.938  1.00  0.00     0.003 A 
HETATM   18  C   UNL     1      44.755 -21.393   4.035  1.00  0.00     0.037 A 
HETATM   19  C   UNL     1      44.466 -20.023   4.024  1.00  0.00     0.076 A 
BRANCH  19  20
HETATM   20  O   UNL     1      44.734 -19.175   5.067  1.00  0.00    -0.350 OA
BRANCH  20  21
HETATM   21  C   UNL     1      44.184 -19.502   6.342  1.00  0.00     0.180 C 
BRANCH  21  22
HETATM   22  C   UNL     1      44.535 -18.391   7.284  1.00  0.00     0.010 A 
HETATM   23  C   UNL     1      44.518 -16.955   6.828  1.00  0.00     0.007 A 
HETATM   24  C   UNL     1      43.467 -17.451   7.784  1.00  0.00     0.007 A 
ENDBRANCH  21  22
ENDBRANCH  20  21
ENDBRANCH  19  20
ENDBRANCH  13  14
ENDBRANCH  11  13
ENDBRANCH   1  11
BRANCH   8  25
HETATM   25  C   UNL     1      38.487 -14.329   1.018  1.00  0.00     0.270 C 
HETATM   26  N   UNL     1      39.313 -14.564  -0.047  1.00  0.00    -0.365 N 
HETATM   27  H   UNL     1      40.311 -14.441   0.078  1.00  0.00     0.159 HD
HETATM   28  H   UNL     1      38.922 -14.824  -0.938  1.00  0.00     0.159 HD
HETATM   29  O   UNL     1      37.269 -14.447   0.918  1.00  0.00    -0.266 OA
ENDBRANCH   8  25
TORSDOF 7
ENDMDL
MODEL 9
REMARK VINA RESULT:      -7.3      3.325      5.385
REMARK  7 active torsions:
REMARK  status: ('A' for Active; 'I' for Inactive)
REMARK    1  A    between atoms: C_3  and  C_4 
REMARK    2  A    between atoms: C_4  and  N_5 
REMARK    3  A    between atoms: N_5  and  C_6 
REMARK    4  A    between atoms: C_13  and  C_14 
REMARK       I    between atoms: C_14  and  N_15 
REMARK    5  A    between atoms: C_19  and  O_20 
REMARK    6  A    between atoms: O_20  and  C_21 
REMARK    7  A    between atoms: C_21  and  C_22 
ROOT
HETATM    1  C   UNL     1      42.404 -15.956   1.767  1.00  0.00     0.029 A 
HETATM    2  C   UNL     1      41.922 -15.887   0.447  1.00  0.00     0.045 A 
HETATM    3  C   UNL     1      41.618 -14.645  -0.145  1.00  0.00     0.030 A 
HETATM    4  C   UNL     1      41.791 -13.491   0.605  1.00  0.00     0.063 A 
HETATM    5  N   UNL     1      41.425 -12.464  -0.218  1.00  0.00    -0.277 N 
HETATM    6  H   UNL     1      41.427 -11.474  -0.000  1.00  0.00     0.189 HD
HETATM    7  N   UNL     1      41.009 -12.849  -1.437  1.00  0.00    -0.168 NA
HETATM    8  C   UNL     1      41.121 -14.196  -1.406  1.00  0.00     0.156 A 
HETATM    9  C   UNL     1      42.242 -13.508   1.925  1.00  0.00     0.034 A 
HETATM   10  C   UNL     1      42.524 -14.763   2.488  1.00  0.00     0.031 A 
ENDROOT
BRANCH   1  11
HETATM   11  N   UNL     1      42.614 -17.215   2.318  1.00  0.00    -0.386 N 
HETATM   12  H   UNL     1      43.573 -17.542   2.267  1.00  0.00     0.160 HD
BRANCH  11  13
HETATM   13  C   UNL     1      41.855 -17.741   3.449  1.00  0.00     0.161 C 
BRANCH  13  14
HETATM   14  C   UNL     1      42.554 -17.599   4.788  1.00  0.00    -0.007 A 
HETATM   15  C   UNL     1      41.939 -16.931   5.863  1.00  0.00     0.011 A 
HETATM   16  C   UNL     1      42.601 -16.765   7.078  1.00  0.00     0.001 A 
HETATM   17  C   UNL     1      43.897 -17.247   7.233  1.00  0.00     0.003 A 
HETATM   18  C   UNL     1      44.533 -17.897   6.173  1.00  0.00     0.037 A 
HETATM   19  C   UNL     1      43.870 -18.079   4.954  1.00  0.00     0.076 A 
BRANCH  19  20
HETATM   20  O   UNL     1      44.430 -18.684   3.860  1.00  0.00    -0.350 OA
BRANCH  20  21
HETATM   21  C   UNL     1      44.560 -20.104   3.884  1.00  0.00     0.180 C 
BRANCH  21  22
HETATM   22  C   UNL     1      44.567 -20.584   2.465  1.00  0.00     0.010 A 
HETATM   23  C   UNL     1      44.491 -22.055   2.144  1.00  0.00     0.007 A 
HETATM   24  C   UNL     1      43.317 -21.160   1.849  1.00  0.00     0.007 A 
ENDBRANCH  21  22
ENDBRANCH  20  21
ENDBRANCH  19  20
ENDBRANCH  13  14
ENDBRANCH  11  13
ENDBRANCH   1  11
BRANCH   8  25
HETATM   25  C   UNL     1      40.750 -15.024  -2.562  1.00  0.00     0.270 C 
HETATM   26  N   UNL     1      39.418 -15.334  -2.621  1.00  0.00    -0.365 N 
HETATM   27  H   UNL     1      38.809 -14.993  -1.885  1.00  0.00     0.159 HD
HETATM   28  H   UNL     1      39.070 -15.914  -3.367  1.00  0.00     0.159 HD
HETATM   29  O   UNL     1      41.535 -15.423  -3.416  1.00  0.00    -0.266 OA
ENDBRANCH   8  25
TORSDOF 7
ENDMDL
MODEL 10
REMARK VINA RESULT:      -7.2      2.841      6.168
REMARK  7 active torsions:
REMARK  status: ('A' for Active; 'I' for Inactive)
REMARK    1  A    between atoms: C_3  and  C_4 
REMARK    2  A    between atoms: C_4  and  N_5 
REMARK    3  A    between atoms: N_5  and  C_6 
REMARK    4  A    between atoms: C_13  and  C_14 
REMARK       I    between atoms: C_14  and  N_15 
REMARK    5  A    between atoms: C_19  and  O_20 
REMARK    6  A    between atoms: O_20  and  C_21 
REMARK    7  A    between atoms: C_21  and  C_22 
ROOT
HETATM    1  C   UNL     1      44.025 -18.265   3.082  1.00  0.00     0.029 A 
HETATM    2  C   UNL     1      43.785 -18.093   4.458  1.00  0.00     0.045 A 
HETATM    3  C   UNL     1      43.912 -19.176   5.351  1.00  0.00     0.030 A 
HETATM    4  C   UNL     1      44.267 -20.418   4.846  1.00  0.00     0.063 A 
HETATM    5  N   UNL     1      44.313 -21.250   5.927  1.00  0.00    -0.277 N 
HETATM    6  H   UNL     1      44.543 -22.238   5.930  1.00  0.00     0.189 HD
HETATM    7  N   UNL     1      44.001 -20.664   7.096  1.00  0.00    -0.168 NA
HETATM    8  C   UNL     1      43.748 -19.380   6.754  1.00  0.00     0.156 A 
HETATM    9  C   UNL     1      44.492 -20.645   3.488  1.00  0.00     0.034 A 
HETATM   10  C   UNL     1      44.345 -19.548   2.623  1.00  0.00     0.031 A 
ENDROOT
BRANCH   1  11
HETATM   11  N   UNL     1      43.810 -17.177   2.243  1.00  0.00    -0.386 N 
HETATM   12  H   UNL     1      43.333 -17.402   1.376  1.00  0.00     0.160 HD
BRANCH  11  13
HETATM   13  C   UNL     1      43.582 -15.818   2.723  1.00  0.00     0.161 C 
BRANCH  13  14
HETATM   14  C   UNL     1      42.124 -15.401   2.743  1.00  0.00    -0.007 A 
HETATM   15  C   UNL     1      41.149 -16.128   2.036  1.00  0.00     0.011 A 
HETATM   16  C   UNL     1      39.817 -15.717   2.021  1.00  0.00     0.001 A 
HETATM   17  C   UNL     1      39.440 -14.562   2.698  1.00  0.00     0.003 A 
HETATM   18  C   UNL     1      40.395 -13.815   3.391  1.00  0.00     0.037 A 
HETATM   19  C   UNL     1      41.732 -14.228   3.421  1.00  0.00     0.076 A 
BRANCH  19  20
HETATM   20  O   UNL     1      42.732 -13.540   4.057  1.00  0.00    -0.350 OA
BRANCH  20  21
HETATM   21  C   UNL     1      42.775 -13.604   5.482  1.00  0.00     0.180 C 
BRANCH  21  22
HETATM   22  C   UNL     1      44.193 -13.876   5.881  1.00  0.00     0.010 A 
HETATM   23  C   UNL     1      44.625 -13.768   7.321  1.00  0.00     0.007 A 
HETATM   24  C   UNL     1      44.538 -15.118   6.664  1.00  0.00     0.007 A 
ENDBRANCH  21  22
ENDBRANCH  20  21
ENDBRANCH  19  20
ENDBRANCH  13  14
ENDBRANCH  11  13
ENDBRANCH   1  11
BRANCH   8  25
HETATM   25  C   UNL     1      43.352 -18.384   7.759  1.00  0.00     0.270 C 
HETATM   26  N   UNL     1      44.048 -18.470   8.934  1.00  0.00    -0.365 N 
HETATM   27  H   UNL     1      44.751 -19.194   9.028  1.00  0.00     0.159 HD
HETATM   28  H   UNL     1      43.834 -17.842   9.692  1.00  0.00     0.159 HD
HETATM   29  O   UNL     1      42.479 -17.537   7.597  1.00  0.00    -0.266 OA
ENDBRANCH   8  25
TORSDOF 7
ENDMDL
