MODEL 1
REMARK VINA RESULT:     -10.6      0.000      0.000
REMARK  6 active torsions:
REMARK  status: ('A' for Active; 'I' for Inactive)
REMARK    1  A    between atoms: C_8  and  C_9 
REMARK    2  A    between atoms: C_9  and  C_10 
REMARK    3  A    between atoms: C_10  and  N_11 
REMARK       I    between atoms: N_11  and  C_12 
REMARK    4  A    between atoms: C_12  and  C_13 
REMARK    5  A    between atoms: C_18  and  C_19 
REMARK    6  A    between atoms: C_29  and  C_30 
ROOT
HETATM    1  C   UNL     1      43.483 -14.042   6.323  1.00  0.00     0.148 C 
HETATM    2  N   UNL     1      42.175 -14.381   6.217  1.00  0.00    -0.165 NA
HETATM    3  N   UNL     1      42.130 -15.058   5.058  1.00  0.00    -0.240 N 
HETATM    4  C   UNL     1      43.352 -15.295   4.501  1.00  0.00     0.123 C 
HETATM    5  N   UNL     1      43.475 -16.095   3.425  1.00  0.00    -0.366 N 
HETATM    6  C   UNL     1      42.458 -17.097   3.088  1.00  0.00     0.118 C 
HETATM    7  C   UNL     1      41.205 -17.030   3.997  1.00  0.00     0.066 C 
HETATM    8  C   UNL     1      40.909 -15.619   4.521  1.00  0.00     0.221 C 
HETATM    9  C   UNL     1      44.246 -14.580   5.249  1.00  0.00     0.088 C 
HETATM   10  H   UNL     1      44.401 -16.296   3.047  1.00  0.00     0.161 HD
ENDROOT
BRANCH   1  11
HETATM   11  C   UNL     1      44.002 -13.245   7.445  1.00  0.00     0.272 C 
HETATM   12  N   UNL     1      43.182 -12.199   7.801  1.00  0.00    -0.355 N 
HETATM   13  H   UNL     1      42.277 -12.173   7.340  1.00  0.00     0.162 HD
HETATM   14  O   UNL     1      45.057 -13.506   8.016  1.00  0.00    -0.266 OA
BRANCH  12  15
HETATM   15  C   UNL     1      43.476 -11.349   8.933  1.00  0.00     0.127 C 
BRANCH  15  16
HETATM   16  C   UNL     1      42.385 -10.316   9.212  1.00  0.00     0.060 C 
BRANCH  16  17
HETATM   17  C   UNL     1      41.677 -10.550  10.512  1.00  0.00    -0.029 A 
HETATM   18  C   UNL     1      42.138 -10.220  11.827  1.00  0.00    -0.002 A 
HETATM   19  C   UNL     1      43.306  -9.614  12.339  1.00  0.00     0.014 A 
HETATM   20  C   UNL     1      41.154 -10.626  12.730  1.00  0.00     0.042 A 
HETATM   21  C   UNL     1      43.444  -9.439  13.722  1.00  0.00     0.001 A 
HETATM   22  C   UNL     1      42.443  -9.856  14.594  1.00  0.00     0.002 A 
HETATM   23  C   UNL     1      41.276 -10.457  14.114  1.00  0.00     0.030 A 
HETATM   24  N   UNL     1      40.134 -11.181  11.995  1.00  0.00    -0.365 N 
HETATM   25  H   UNL     1      39.285 -11.562  12.389  1.00  0.00     0.165 HD
HETATM   26  C   UNL     1      40.438 -11.146  10.661  1.00  0.00     0.096 A 
ENDBRANCH  16  17
ENDBRANCH  15  16
ENDBRANCH  12  15
ENDBRANCH   1  11
BRANCH   8  27
HETATM   27  C   UNL     1      40.336 -14.710   3.458  1.00  0.00     0.409 C 
HETATM   28  F   UNL     1      41.289 -13.990   2.827  1.00  0.00    -0.169 F 
HETATM   29  F   UNL     1      39.612 -15.355   2.521  1.00  0.00    -0.169 F 
HETATM   30  F   UNL     1      39.497 -13.809   4.037  1.00  0.00    -0.169 F 
ENDBRANCH   8  27
BRANCH   6  31
HETATM   31  C   UNL     1      43.109 -18.472   3.160  1.00  0.00    -0.033 A 
HETATM   32  C   UNL     1      43.620 -18.958   4.375  1.00  0.00     0.049 A 
HETATM   33  C   UNL     1      44.181 -20.220   4.386  1.00  0.00     0.105 A 
HETATM   34  C   UNL     1      44.253 -20.997   3.254  1.00  0.00     0.105 A 
HETATM   35  O   UNL     1      44.715 -20.841   5.472  1.00  0.00    -0.323 OA
HETATM   36  O   UNL     1      44.842 -22.201   3.483  1.00  0.00    -0.323 OA
HETATM   37  C   UNL     1      43.761 -20.564   2.045  1.00  0.00     0.040 A 
HETATM   38  C   UNL     1      45.120 -22.101   4.894  1.00  0.00     0.352 A 
HETATM   39  C   UNL     1      43.179 -19.295   2.004  1.00  0.00     0.012 A 
ENDBRANCH   6  31
TORSDOF 6
ENDMDL
MODEL 2
REMARK VINA RESULT:     -10.3      2.031      2.592
REMARK  6 active torsions:
REMARK  status: ('A' for Active; 'I' for Inactive)
REMARK    1  A    between atoms: C_8  and  C_9 
REMARK    2  A    between atoms: C_9  and  C_10 
REMARK    3  A    between atoms: C_10  and  N_11 
REMARK       I    between atoms: N_11  and  C_12 
REMARK    4  A    between atoms: C_12  and  C_13 
REMARK    5  A    between atoms: C_18  and  C_19 
REMARK    6  A    between atoms: C_29  and  C_30 
ROOT
HETATM    1  C   UNL     1      41.050 -13.847   4.591  1.00  0.00     0.148 C 
HETATM    2  N   UNL     1      40.246 -14.437   3.674  1.00  0.00    -0.165 NA
HETATM    3  N   UNL     1      41.106 -15.155   2.933  1.00  0.00    -0.240 N 
HETATM    4  C   UNL     1      42.381 -15.171   3.416  1.00  0.00     0.123 C 
HETATM    5  N   UNL     1      43.315 -15.973   2.868  1.00  0.00    -0.366 N 
HETATM    6  C   UNL     1      42.951 -17.166   2.097  1.00  0.00     0.118 C 
HETATM    7  C   UNL     1      41.425 -17.309   1.871  1.00  0.00     0.066 C 
HETATM    8  C   UNL     1      40.691 -15.963   1.806  1.00  0.00     0.221 C 
HETATM    9  C   UNL     1      42.402 -14.267   4.442  1.00  0.00     0.088 C 
HETATM   10  H   UNL     1      44.253 -16.004   3.270  1.00  0.00     0.161 HD
ENDROOT
BRANCH   1  11
HETATM   11  C   UNL     1      40.536 -12.920   5.611  1.00  0.00     0.272 C 
HETATM   12  N   UNL     1      41.219 -11.727   5.663  1.00  0.00    -0.355 N 
HETATM   13  H   UNL     1      41.904 -11.580   4.927  1.00  0.00     0.162 HD
HETATM   14  O   UNL     1      39.576 -13.185   6.328  1.00  0.00    -0.266 OA
BRANCH  12  15
HETATM   15  C   UNL     1      40.814 -10.653   6.542  1.00  0.00     0.127 C 
BRANCH  15  16
HETATM   16  C   UNL     1      41.826 -10.366   7.651  1.00  0.00     0.060 C 
BRANCH  16  17
HETATM   17  C   UNL     1      41.295 -10.666   9.019  1.00  0.00    -0.029 A 
HETATM   18  C   UNL     1      42.020 -10.664  10.255  1.00  0.00    -0.002 A 
HETATM   19  C   UNL     1      43.361 -10.404  10.610  1.00  0.00     0.014 A 
HETATM   20  C   UNL     1      41.122 -11.006  11.268  1.00  0.00     0.042 A 
HETATM   21  C   UNL     1      43.750 -10.497  11.953  1.00  0.00     0.001 A 
HETATM   22  C   UNL     1      42.828 -10.841  12.938  1.00  0.00     0.002 A 
HETATM   23  C   UNL     1      41.494 -11.102  12.613  1.00  0.00     0.030 A 
HETATM   24  N   UNL     1      39.899 -11.210  10.672  1.00  0.00    -0.365 N 
HETATM   25  H   UNL     1      39.058 -11.471  11.167  1.00  0.00     0.165 HD
HETATM   26  C   UNL     1      39.992 -11.013   9.322  1.00  0.00     0.096 A 
ENDBRANCH  16  17
ENDBRANCH  15  16
ENDBRANCH  12  15
ENDBRANCH   1  11
BRANCH   8  27
HETATM   27  C   UNL     1      40.937 -15.226   0.511  1.00  0.00     0.409 C 
HETATM   28  F   UNL     1      39.828 -14.605   0.052  1.00  0.00    -0.169 F 
HETATM   29  F   UNL     1      41.926 -14.312   0.582  1.00  0.00    -0.169 F 
HETATM   30  F   UNL     1      41.304 -16.114  -0.452  1.00  0.00    -0.169 F 
ENDBRANCH   8  27
BRANCH   6  31
HETATM   31  C   UNL     1      43.509 -18.384   2.821  1.00  0.00    -0.033 A 
HETATM   32  C   UNL     1      43.516 -19.644   2.200  1.00  0.00     0.049 A 
HETATM   33  C   UNL     1      44.053 -20.709   2.896  1.00  0.00     0.105 A 
HETATM   34  C   UNL     1      44.568 -20.568   4.163  1.00  0.00     0.105 A 
HETATM   35  O   UNL     1      44.143 -21.988   2.442  1.00  0.00    -0.323 OA
HETATM   36  O   UNL     1      45.044 -21.738   4.667  1.00  0.00    -0.323 OA
HETATM   37  C   UNL     1      44.586 -19.354   4.807  1.00  0.00     0.040 A 
HETATM   38  C   UNL     1      44.784 -22.632   3.566  1.00  0.00     0.352 A 
HETATM   39  C   UNL     1      44.059 -18.255   4.125  1.00  0.00     0.012 A 
ENDBRANCH   6  31
TORSDOF 6
ENDMDL
MODEL 3
REMARK VINA RESULT:      -9.9      1.968      2.273
REMARK  6 active torsions:
REMARK  status: ('A' for Active; 'I' for Inactive)
REMARK    1  A    between atoms: C_8  and  C_9 
REMARK    2  A    between atoms: C_9  and  C_10 
REMARK    3  A    between atoms: C_10  and  N_11 
REMARK       I    between atoms: N_11  and  C_12 
REMARK    4  A    between atoms: C_12  and  C_13 
REMARK    5  A    between atoms: C_18  and  C_19 
REMARK    6  A    between atoms: C_29  and  C_30 
ROOT
HETATM    1  C   UNL     1      40.767 -13.390   5.031  1.00  0.00     0.148 C 
HETATM    2  N   UNL     1      40.126 -13.878   3.941  1.00  0.00    -0.165 NA
HETATM    3  N   UNL     1      41.097 -14.533   3.284  1.00  0.00    -0.240 N 
HETATM    4  C   UNL     1      42.276 -14.614   3.966  1.00  0.00     0.123 C 
HETATM    5  N   UNL     1      43.288 -15.372   3.503  1.00  0.00    -0.366 N 
HETATM    6  C   UNL     1      43.058 -16.479   2.569  1.00  0.00     0.118 C 
HETATM    7  C   UNL     1      41.590 -16.578   2.083  1.00  0.00     0.066 C 
HETATM    8  C   UNL     1      40.874 -15.222   2.032  1.00  0.00     0.221 C 
HETATM    9  C   UNL     1      42.126 -13.813   5.065  1.00  0.00     0.088 C 
HETATM   10  H   UNL     1      44.147 -15.454   4.047  1.00  0.00     0.161 HD
ENDROOT
BRANCH   1  11
HETATM   11  C   UNL     1      40.090 -12.560   6.039  1.00  0.00     0.272 C 
HETATM   12  N   UNL     1      40.958 -11.872   6.855  1.00  0.00    -0.355 N 
HETATM   13  H   UNL     1      41.939 -11.920   6.594  1.00  0.00     0.162 HD
HETATM   14  O   UNL     1      38.868 -12.478   6.124  1.00  0.00    -0.266 OA
BRANCH  12  15
HETATM   15  C   UNL     1      40.489 -10.938   7.854  1.00  0.00     0.127 C 
BRANCH  15  16
HETATM   16  C   UNL     1      41.563 -10.551   8.871  1.00  0.00     0.060 C 
BRANCH  16  17
HETATM   17  C   UNL     1      41.121 -10.745  10.289  1.00  0.00    -0.029 A 
HETATM   18  C   UNL     1      41.842 -10.408  11.480  1.00  0.00    -0.002 A 
HETATM   19  C   UNL     1      43.103  -9.830  11.738  1.00  0.00     0.014 A 
HETATM   20  C   UNL     1      41.046 -10.772  12.569  1.00  0.00     0.042 A 
HETATM   21  C   UNL     1      43.518  -9.638  13.063  1.00  0.00     0.001 A 
HETATM   22  C   UNL     1      42.699 -10.012  14.124  1.00  0.00     0.002 A 
HETATM   23  C   UNL     1      41.445 -10.586  13.897  1.00  0.00     0.030 A 
HETATM   24  N   UNL     1      39.887 -11.308  12.061  1.00  0.00    -0.365 N 
HETATM   25  H   UNL     1      39.124 -11.658  12.623  1.00  0.00     0.165 HD
HETATM   26  C   UNL     1      39.922 -11.302  10.693  1.00  0.00     0.096 A 
ENDBRANCH  16  17
ENDBRANCH  15  16
ENDBRANCH  12  15
ENDBRANCH   1  11
BRANCH   8  27
HETATM   27  C   UNL     1      41.328 -14.366   0.872  1.00  0.00     0.409 C 
HETATM   28  F   UNL     1      42.021 -15.071  -0.049  1.00  0.00    -0.169 F 
HETATM   29  F   UNL     1      40.324 -13.728   0.239  1.00  0.00    -0.169 F 
HETATM   30  F   UNL     1      42.170 -13.399   1.327  1.00  0.00    -0.169 F 
ENDBRANCH   8  27
BRANCH   6  31
HETATM   31  C   UNL     1      43.493 -17.769   3.252  1.00  0.00    -0.033 A 
HETATM   32  C   UNL     1      43.282 -17.956   4.628  1.00  0.00     0.049 A 
HETATM   33  C   UNL     1      43.679 -19.154   5.190  1.00  0.00     0.105 A 
HETATM   34  C   UNL     1      44.267 -20.150   4.447  1.00  0.00     0.105 A 
HETATM   35  O   UNL     1      43.544 -19.498   6.499  1.00  0.00    -0.323 OA
HETATM   36  O   UNL     1      44.579 -21.243   5.192  1.00  0.00    -0.323 OA
HETATM   37  C   UNL     1      44.487 -20.012   3.096  1.00  0.00     0.040 A 
HETATM   38  C   UNL     1      44.106 -20.829   6.490  1.00  0.00     0.352 A 
HETATM   39  C   UNL     1      44.089 -18.815   2.497  1.00  0.00     0.012 A 
ENDBRANCH   6  31
TORSDOF 6
ENDMDL
MODEL 4
REMARK VINA RESULT:      -9.7      3.821      5.093
REMARK  6 active torsions:
REMARK  status: ('A' for Active; 'I' for Inactive)
REMARK    1  A    between atoms: C_8  and  C_9 
REMARK    2  A    between atoms: C_9  and  C_10 
REMARK    3  A    between atoms: C_10  and  N_11 
REMARK       I    between atoms: N_11  and  C_12 
REMARK    4  A    between atoms: C_12  and  C_13 
REMARK    5  A    between atoms: C_18  and  C_19 
REMARK    6  A    between atoms: C_29  and  C_30 
ROOT
HETATM    1  C   UNL     1      40.436 -13.169   5.855  1.00  0.00     0.148 C 
HETATM    2  N   UNL     1      41.576 -13.898   5.778  1.00  0.00    -0.165 NA
HETATM    3  N   UNL     1      41.275 -14.838   4.866  1.00  0.00    -0.240 N 
HETATM    4  C   UNL     1      40.070 -14.657   4.255  1.00  0.00     0.123 C 
HETATM    5  N   UNL     1      39.705 -15.427   3.212  1.00  0.00    -0.366 N 
HETATM    6  C   UNL     1      40.694 -16.134   2.391  1.00  0.00     0.118 C 
HETATM    7  C   UNL     1      42.141 -16.013   2.933  1.00  0.00     0.066 C 
HETATM    8  C   UNL     1      42.208 -15.866   4.458  1.00  0.00     0.221 C 
HETATM    9  C   UNL     1      39.460 -13.634   4.928  1.00  0.00     0.088 C 
HETATM   10  H   UNL     1      38.818 -15.250   2.739  1.00  0.00     0.161 HD
ENDROOT
BRANCH   1  11
HETATM   11  C   UNL     1      40.288 -12.030   6.773  1.00  0.00     0.272 C 
HETATM   12  N   UNL     1      41.488 -11.502   7.190  1.00  0.00    -0.355 N 
HETATM   13  H   UNL     1      42.315 -11.873   6.732  1.00  0.00     0.162 HD
HETATM   14  O   UNL     1      39.196 -11.585   7.113  1.00  0.00    -0.266 OA
BRANCH  12  15
HETATM   15  C   UNL     1      41.555 -10.327   8.029  1.00  0.00     0.127 C 
BRANCH  15  16
HETATM   16  C   UNL     1      42.470 -10.501   9.242  1.00  0.00     0.060 C 
BRANCH  16  17
HETATM   17  C   UNL     1      41.715 -10.638  10.529  1.00  0.00    -0.029 A 
HETATM   18  C   UNL     1      42.158 -10.276  11.841  1.00  0.00    -0.002 A 
HETATM   19  C   UNL     1      43.343  -9.713  12.361  1.00  0.00     0.014 A 
HETATM   20  C   UNL     1      41.128 -10.586  12.732  1.00  0.00     0.042 A 
HETATM   21  C   UNL     1      43.454  -9.484  13.739  1.00  0.00     0.001 A 
HETATM   22  C   UNL     1      42.407  -9.806  14.598  1.00  0.00     0.002 A 
HETATM   23  C   UNL     1      41.222 -10.363  14.110  1.00  0.00     0.030 A 
HETATM   24  N   UNL     1      40.099 -11.117  11.991  1.00  0.00    -0.365 N 
HETATM   25  H   UNL     1      39.220 -11.434  12.376  1.00  0.00     0.165 HD
HETATM   26  C   UNL     1      40.441 -11.158  10.666  1.00  0.00     0.096 A 
ENDBRANCH  16  17
ENDBRANCH  15  16
ENDBRANCH  12  15
ENDBRANCH   1  11
BRANCH   8  27
HETATM   27  C   UNL     1      41.916 -17.159   5.183  1.00  0.00     0.409 C 
HETATM   28  F   UNL     1      40.654 -17.206   5.663  1.00  0.00    -0.169 F 
HETATM   29  F   UNL     1      42.118 -18.262   4.434  1.00  0.00    -0.169 F 
HETATM   30  F   UNL     1      42.740 -17.270   6.259  1.00  0.00    -0.169 F 
ENDBRANCH   8  27
BRANCH   6  31
HETATM   31  C   UNL     1      40.599 -15.594   0.970  1.00  0.00    -0.033 A 
HETATM   32  C   UNL     1      39.831 -14.452   0.688  1.00  0.00     0.049 A 
HETATM   33  C   UNL     1      39.797 -13.997  -0.615  1.00  0.00     0.105 A 
HETATM   34  C   UNL     1      40.483 -14.627  -1.627  1.00  0.00     0.105 A 
HETATM   35  O   UNL     1      39.111 -12.909  -1.057  1.00  0.00    -0.323 OA
HETATM   36  O   UNL     1      40.315 -14.017  -2.831  1.00  0.00    -0.323 OA
HETATM   37  C   UNL     1      41.251 -15.744  -1.396  1.00  0.00     0.040 A 
HETATM   38  C   UNL     1      39.455 -12.921  -2.460  1.00  0.00     0.352 A 
HETATM   39  C   UNL     1      41.313 -16.223  -0.086  1.00  0.00     0.012 A 
ENDBRANCH   6  31
TORSDOF 6
ENDMDL
MODEL 5
REMARK VINA RESULT:      -9.6      4.984      8.812
REMARK  6 active torsions:
REMARK  status: ('A' for Active; 'I' for Inactive)
REMARK    1  A    between atoms: C_8  and  C_9 
REMARK    2  A    between atoms: C_9  and  C_10 
REMARK    3  A    between atoms: C_10  and  N_11 
REMARK       I    between atoms: N_11  and  C_12 
REMARK    4  A    between atoms: C_12  and  C_13 
REMARK    5  A    between atoms: C_18  and  C_19 
REMARK    6  A    between atoms: C_29  and  C_30 
ROOT
HETATM    1  C   UNL     1      39.511 -14.331   1.233  1.00  0.00     0.148 C 
HETATM    2  N   UNL     1      40.568 -13.582   1.633  1.00  0.00    -0.165 NA
HETATM    3  N   UNL     1      41.019 -14.243   2.711  1.00  0.00    -0.240 N 
HETATM    4  C   UNL     1      40.405 -15.441   2.929  1.00  0.00     0.123 C 
HETATM    5  N   UNL     1      40.858 -16.285   3.877  1.00  0.00    -0.366 N 
HETATM    6  C   UNL     1      42.235 -16.217   4.376  1.00  0.00     0.118 C 
HETATM    7  C   UNL     1      43.034 -15.015   3.812  1.00  0.00     0.066 C 
HETATM    8  C   UNL     1      42.156 -13.799   3.488  1.00  0.00     0.221 C 
HETATM    9  C   UNL     1      39.366 -15.494   2.041  1.00  0.00     0.088 C 
HETATM   10  H   UNL     1      40.413 -17.195   3.997  1.00  0.00     0.161 HD
ENDROOT
BRANCH   1  11
HETATM   11  C   UNL     1      38.672 -13.961   0.083  1.00  0.00     0.272 C 
HETATM   12  N   UNL     1      39.090 -14.519  -1.103  1.00  0.00    -0.355 N 
HETATM   13  H   UNL     1      39.839 -15.202  -1.028  1.00  0.00     0.162 HD
HETATM   14  O   UNL     1      37.683 -13.242   0.184  1.00  0.00    -0.266 OA
BRANCH  12  15
HETATM   15  C   UNL     1      38.350 -14.344  -2.332  1.00  0.00     0.127 C 
BRANCH  15  16
HETATM   16  C   UNL     1      39.007 -13.359  -3.299  1.00  0.00     0.060 C 
BRANCH  16  17
HETATM   17  C   UNL     1      40.456 -13.125  -2.999  1.00  0.00    -0.029 A 
HETATM   18  C   UNL     1      41.023 -12.079  -2.200  1.00  0.00    -0.002 A 
HETATM   19  C   UNL     1      40.487 -10.994  -1.472  1.00  0.00     0.014 A 
HETATM   20  C   UNL     1      42.408 -12.253  -2.203  1.00  0.00     0.042 A 
HETATM   21  C   UNL     1      41.349 -10.132  -0.783  1.00  0.00     0.001 A 
HETATM   22  C   UNL     1      42.726 -10.335  -0.808  1.00  0.00     0.002 A 
HETATM   23  C   UNL     1      43.283 -11.401  -1.519  1.00  0.00     0.030 A 
HETATM   24  N   UNL     1      42.675 -13.360  -2.974  1.00  0.00    -0.365 N 
HETATM   25  H   UNL     1      43.601 -13.723  -3.154  1.00  0.00     0.165 HD
HETATM   26  C   UNL     1      41.511 -13.889  -3.461  1.00  0.00     0.096 A 
ENDBRANCH  16  17
ENDBRANCH  15  16
ENDBRANCH  12  15
ENDBRANCH   1  11
BRANCH   8  27
HETATM   27  C   UNL     1      41.693 -13.067   4.727  1.00  0.00     0.409 C 
HETATM   28  F   UNL     1      41.954 -11.743   4.670  1.00  0.00    -0.169 F 
HETATM   29  F   UNL     1      40.381 -13.222   4.993  1.00  0.00    -0.169 F 
HETATM   30  F   UNL     1      42.363 -13.543   5.810  1.00  0.00    -0.169 F 
ENDBRANCH   8  27
BRANCH   6  31
HETATM   31  C   UNL     1      42.924 -17.533   4.039  1.00  0.00    -0.033 A 
HETATM   32  C   UNL     1      43.471 -18.334   5.055  1.00  0.00     0.049 A 
HETATM   33  C   UNL     1      44.066 -19.527   4.693  1.00  0.00     0.105 A 
HETATM   34  C   UNL     1      44.138 -19.939   3.383  1.00  0.00     0.105 A 
HETATM   35  O   UNL     1      44.636 -20.419   5.546  1.00  0.00    -0.323 OA
HETATM   36  O   UNL     1      44.763 -21.139   3.246  1.00  0.00    -0.323 OA
HETATM   37  C   UNL     1      43.611 -19.189   2.357  1.00  0.00     0.040 A 
HETATM   38  C   UNL     1      45.065 -21.444   4.622  1.00  0.00     0.352 A 
HETATM   39  C   UNL     1      42.995 -17.982   2.693  1.00  0.00     0.012 A 
ENDBRANCH   6  31
TORSDOF 6
ENDMDL
MODEL 6
REMARK VINA RESULT:      -9.5      5.026      9.416
REMARK  6 active torsions:
REMARK  status: ('A' for Active; 'I' for Inactive)
REMARK    1  A    between atoms: C_8  and  C_9 
REMARK    2  A    between atoms: C_9  and  C_10 
REMARK    3  A    between atoms: C_10  and  N_11 
REMARK       I    between atoms: N_11  and  C_12 
REMARK    4  A    between atoms: C_12  and  C_13 
REMARK    5  A    between atoms: C_18  and  C_19 
REMARK    6  A    between atoms: C_29  and  C_30 
ROOT
HETATM    1  C   UNL     1      40.460 -14.464   1.555  1.00  0.00     0.148 C 
HETATM    2  N   UNL     1      41.565 -13.990   2.181  1.00  0.00    -0.165 NA
HETATM    3  N   UNL     1      41.820 -14.933   3.103  1.00  0.00    -0.240 N 
HETATM    4  C   UNL     1      41.033 -16.042   3.000  1.00  0.00     0.123 C 
HETATM    5  N   UNL     1      41.277 -17.131   3.754  1.00  0.00    -0.366 N 
HETATM    6  C   UNL     1      42.598 -17.385   4.339  1.00  0.00     0.118 C 
HETATM    7  C   UNL     1      43.600 -16.224   4.118  1.00  0.00     0.066 C 
HETATM    8  C   UNL     1      42.928 -14.849   4.030  1.00  0.00     0.221 C 
HETATM    9  C   UNL     1      40.085 -15.740   2.063  1.00  0.00     0.088 C 
HETATM   10  H   UNL     1      40.705 -17.967   3.634  1.00  0.00     0.161 HD
ENDROOT
BRANCH   1  11
HETATM   11  C   UNL     1      39.790 -13.728   0.472  1.00  0.00     0.272 C 
HETATM   12  N   UNL     1      38.952 -14.512  -0.286  1.00  0.00    -0.355 N 
HETATM   13  H   UNL     1      38.803 -15.456   0.056  1.00  0.00     0.162 HD
HETATM   14  O   UNL     1      39.952 -12.526   0.284  1.00  0.00    -0.266 OA
BRANCH  12  15
HETATM   15  C   UNL     1      38.139 -13.957  -1.346  1.00  0.00     0.127 C 
BRANCH  15  16
HETATM   16  C   UNL     1      38.586 -14.392  -2.741  1.00  0.00     0.060 C 
BRANCH  16  17
HETATM   17  C   UNL     1      39.977 -13.944  -3.075  1.00  0.00    -0.029 A 
HETATM   18  C   UNL     1      40.395 -12.638  -3.490  1.00  0.00    -0.002 A 
HETATM   19  C   UNL     1      39.728 -11.414  -3.715  1.00  0.00     0.014 A 
HETATM   20  C   UNL     1      41.775 -12.686  -3.694  1.00  0.00     0.042 A 
HETATM   21  C   UNL     1      40.460 -10.295  -4.133  1.00  0.00     0.001 A 
HETATM   22  C   UNL     1      41.836 -10.379  -4.327  1.00  0.00     0.002 A 
HETATM   23  C   UNL     1      42.521 -11.577  -4.111  1.00  0.00     0.030 A 
HETATM   24  N   UNL     1      42.181 -13.969  -3.415  1.00  0.00    -0.365 N 
HETATM   25  H   UNL     1      43.136 -14.295  -3.480  1.00  0.00     0.165 HD
HETATM   26  C   UNL     1      41.109 -14.735  -3.047  1.00  0.00     0.096 A 
ENDBRANCH  16  17
ENDBRANCH  15  16
ENDBRANCH  12  15
ENDBRANCH   1  11
BRANCH   8  27
HETATM   27  C   UNL     1      42.454 -14.344   5.373  1.00  0.00     0.409 C 
HETATM   28  F   UNL     1      42.896 -15.108   6.396  1.00  0.00    -0.169 F 
HETATM   29  F   UNL     1      42.798 -13.066   5.628  1.00  0.00    -0.169 F 
HETATM   30  F   UNL     1      41.095 -14.392   5.419  1.00  0.00    -0.169 F 
ENDBRANCH   8  27
BRANCH   6  31
HETATM   31  C   UNL     1      43.132 -18.684   3.750  1.00  0.00    -0.033 A 
HETATM   32  C   UNL     1      43.811 -19.610   4.560  1.00  0.00     0.049 A 
HETATM   33  C   UNL     1      44.256 -20.780   3.977  1.00  0.00     0.105 A 
HETATM   34  C   UNL     1      44.057 -21.054   2.644  1.00  0.00     0.105 A 
HETATM   35  O   UNL     1      44.922 -21.780   4.615  1.00  0.00    -0.323 OA
HETATM   36  O   UNL     1      44.573 -22.256   2.275  1.00  0.00    -0.323 OA
HETATM   37  C   UNL     1      43.394 -20.179   1.816  1.00  0.00     0.040 A 
HETATM   38  C   UNL     1      45.108 -22.718   3.531  1.00  0.00     0.352 A 
HETATM   39  C   UNL     1      42.923 -18.990   2.378  1.00  0.00     0.012 A 
ENDBRANCH   6  31
TORSDOF 6
ENDMDL
MODEL 7
REMARK VINA RESULT:      -9.4      5.003      9.388
REMARK  6 active torsions:
REMARK  status: ('A' for Active; 'I' for Inactive)
REMARK    1  A    between atoms: C_8  and  C_9 
REMARK    2  A    between atoms: C_9  and  C_10 
REMARK    3  A    between atoms: C_10  and  N_11 
REMARK       I    between atoms: N_11  and  C_12 
REMARK    4  A    between atoms: C_12  and  C_13 
REMARK    5  A    between atoms: C_18  and  C_19 
REMARK    6  A    between atoms: C_29  and  C_30 
ROOT
HETATM    1  C   UNL     1      41.841 -12.753   1.040  1.00  0.00     0.148 C 
HETATM    2  N   UNL     1      42.112 -12.535   2.350  1.00  0.00    -0.165 NA
HETATM    3  N   UNL     1      41.689 -13.664   2.941  1.00  0.00    -0.240 N 
HETATM    4  C   UNL     1      41.304 -14.640   2.069  1.00  0.00     0.123 C 
HETATM    5  N   UNL     1      41.006 -15.877   2.510  1.00  0.00    -0.366 N 
HETATM    6  C   UNL     1      41.509 -16.382   3.791  1.00  0.00     0.118 C 
HETATM    7  C   UNL     1      42.272 -15.315   4.615  1.00  0.00     0.066 C 
HETATM    8  C   UNL     1      41.774 -13.885   4.368  1.00  0.00     0.221 C 
HETATM    9  C   UNL     1      41.309 -14.057   0.832  1.00  0.00     0.088 C 
HETATM   10  H   UNL     1      40.760 -16.607   1.839  1.00  0.00     0.161 HD
ENDROOT
BRANCH   1  11
HETATM   11  C   UNL     1      42.110 -11.748   0.000  1.00  0.00     0.272 C 
HETATM   12  N   UNL     1      41.015 -11.462  -0.782  1.00  0.00    -0.355 N 
HETATM   13  H   UNL     1      40.138 -11.877  -0.481  1.00  0.00     0.162 HD
HETATM   14  O   UNL     1      43.203 -11.207  -0.136  1.00  0.00    -0.266 OA
BRANCH  12  15
HETATM   15  C   UNL     1      41.053 -10.441  -1.805  1.00  0.00     0.127 C 
BRANCH  15  16
HETATM   16  C   UNL     1      41.042 -11.007  -3.225  1.00  0.00     0.060 C 
BRANCH  16  17
HETATM   17  C   UNL     1      41.186 -12.498  -3.261  1.00  0.00    -0.029 A 
HETATM   18  C   UNL     1      40.143 -13.472  -3.386  1.00  0.00    -0.002 A 
HETATM   19  C   UNL     1      38.738 -13.401  -3.511  1.00  0.00     0.014 A 
HETATM   20  C   UNL     1      40.742 -14.733  -3.369  1.00  0.00     0.042 A 
HETATM   21  C   UNL     1      37.993 -14.583  -3.612  1.00  0.00     0.001 A 
HETATM   22  C   UNL     1      38.623 -15.824  -3.591  1.00  0.00     0.002 A 
HETATM   23  C   UNL     1      40.012 -15.922  -3.470  1.00  0.00     0.030 A 
HETATM   24  N   UNL     1      42.096 -14.535  -3.238  1.00  0.00    -0.365 N 
HETATM   25  H   UNL     1      42.781 -15.277  -3.196  1.00  0.00     0.165 HD
HETATM   26  C   UNL     1      42.375 -13.198  -3.167  1.00  0.00     0.096 A 
ENDBRANCH  16  17
ENDBRANCH  15  16
ENDBRANCH  12  15
ENDBRANCH   1  11
BRANCH   8  27
HETATM   27  C   UNL     1      40.440 -13.612   5.023  1.00  0.00     0.409 C 
HETATM   28  F   UNL     1      40.398 -12.400   5.620  1.00  0.00    -0.169 F 
HETATM   29  F   UNL     1      39.391 -13.698   4.181  1.00  0.00    -0.169 F 
HETATM   30  F   UNL     1      40.221 -14.529   6.004  1.00  0.00    -0.169 F 
ENDBRANCH   8  27
BRANCH   6  31
HETATM   31  C   UNL     1      42.396 -17.588   3.508  1.00  0.00    -0.033 A 
HETATM   32  C   UNL     1      43.130 -18.194   4.541  1.00  0.00     0.049 A 
HETATM   33  C   UNL     1      43.903 -19.295   4.229  1.00  0.00     0.105 A 
HETATM   34  C   UNL     1      43.971 -19.802   2.953  1.00  0.00     0.105 A 
HETATM   35  O   UNL     1      44.667 -20.001   5.106  1.00  0.00    -0.323 OA
HETATM   36  O   UNL     1      44.787 -20.886   2.864  1.00  0.00    -0.323 OA
HETATM   37  C   UNL     1      43.265 -19.244   1.912  1.00  0.00     0.040 A 
HETATM   38  C   UNL     1      45.214 -21.015   4.235  1.00  0.00     0.352 A 
HETATM   39  C   UNL     1      42.468 -18.134   2.198  1.00  0.00     0.012 A 
ENDBRANCH   6  31
TORSDOF 6
ENDMDL
MODEL 8
REMARK VINA RESULT:      -9.4      4.939      9.587
REMARK  6 active torsions:
REMARK  status: ('A' for Active; 'I' for Inactive)
REMARK    1  A    between atoms: C_8  and  C_9 
REMARK    2  A    between atoms: C_9  and  C_10 
REMARK    3  A    between atoms: C_10  and  N_11 
REMARK       I    between atoms: N_11  and  C_12 
REMARK    4  A    between atoms: C_12  and  C_13 
REMARK    5  A    between atoms: C_18  and  C_19 
REMARK    6  A    between atoms: C_29  and  C_30 
ROOT
HETATM    1  C   UNL     1      39.339 -13.921   1.688  1.00  0.00     0.148 C 
HETATM    2  N   UNL     1      40.486 -13.241   1.932  1.00  0.00    -0.165 NA
HETATM    3  N   UNL     1      41.082 -13.981   2.882  1.00  0.00    -0.240 N 
HETATM    4  C   UNL     1      40.454 -15.163   3.145  1.00  0.00     0.123 C 
HETATM    5  N   UNL     1      41.019 -16.077   3.957  1.00  0.00    -0.366 N 
HETATM    6  C   UNL     1      42.463 -16.096   4.210  1.00  0.00     0.118 C 
HETATM    7  C   UNL     1      43.214 -14.898   3.574  1.00  0.00     0.066 C 
HETATM    8  C   UNL     1      42.357 -13.631   3.468  1.00  0.00     0.221 C 
HETATM    9  C   UNL     1      39.276 -15.121   2.452  1.00  0.00     0.088 C 
HETATM   10  H   UNL     1      40.555 -16.973   4.110  1.00  0.00     0.161 HD
ENDROOT
BRANCH   1  11
HETATM   11  C   UNL     1      38.334 -13.452   0.722  1.00  0.00     0.272 C 
HETATM   12  N   UNL     1      38.549 -12.164   0.288  1.00  0.00    -0.355 N 
HETATM   13  H   UNL     1      39.424 -11.740   0.585  1.00  0.00     0.162 HD
HETATM   14  O   UNL     1      37.408 -14.155   0.330  1.00  0.00    -0.266 OA
BRANCH  12  15
HETATM   15  C   UNL     1      37.720 -11.551  -0.725  1.00  0.00     0.127 C 
BRANCH  15  16
HETATM   16  C   UNL     1      38.373 -11.524  -2.106  1.00  0.00     0.060 C 
BRANCH  16  17
HETATM   17  C   UNL     1      38.110 -12.766  -2.902  1.00  0.00    -0.029 A 
HETATM   18  C   UNL     1      38.919 -13.946  -2.968  1.00  0.00    -0.002 A 
HETATM   19  C   UNL     1      40.137 -14.341  -2.372  1.00  0.00     0.014 A 
HETATM   20  C   UNL     1      38.287 -14.840  -3.835  1.00  0.00     0.042 A 
HETATM   21  C   UNL     1      40.672 -15.602  -2.664  1.00  0.00     0.001 A 
HETATM   22  C   UNL     1      40.015 -16.469  -3.534  1.00  0.00     0.002 A 
HETATM   23  C   UNL     1      38.808 -16.104  -4.135  1.00  0.00     0.030 A 
HETATM   24  N   UNL     1      37.139 -14.229  -4.279  1.00  0.00    -0.365 N 
HETATM   25  H   UNL     1      36.481 -14.645  -4.922  1.00  0.00     0.165 HD
HETATM   26  C   UNL     1      37.024 -12.981  -3.729  1.00  0.00     0.096 A 
ENDBRANCH  16  17
ENDBRANCH  15  16
ENDBRANCH  12  15
ENDBRANCH   1  11
BRANCH   8  27
HETATM   27  C   UNL     1      42.153 -12.951   4.802  1.00  0.00     0.409 C 
HETATM   28  F   UNL     1      40.998 -13.320   5.398  1.00  0.00    -0.169 F 
HETATM   29  F   UNL     1      43.158 -13.155   5.678  1.00  0.00    -0.169 F 
HETATM   30  F   UNL     1      42.074 -11.605   4.617  1.00  0.00    -0.169 F 
ENDBRANCH   8  27
BRANCH   6  31
HETATM   31  C   UNL     1      43.015 -17.419   3.694  1.00  0.00    -0.033 A 
HETATM   32  C   UNL     1      43.537 -18.371   4.585  1.00  0.00     0.049 A 
HETATM   33  C   UNL     1      44.006 -19.561   4.063  1.00  0.00     0.105 A 
HETATM   34  C   UNL     1      43.976 -19.829   2.715  1.00  0.00     0.105 A 
HETATM   35  O   UNL     1      44.536 -20.587   4.781  1.00  0.00    -0.323 OA
HETATM   36  O   UNL     1      44.485 -21.054   2.414  1.00  0.00    -0.323 OA
HETATM   37  C   UNL     1      43.469 -18.928   1.808  1.00  0.00     0.040 A 
HETATM   38  C   UNL     1      44.825 -21.535   3.730  1.00  0.00     0.352 A 
HETATM   39  C   UNL     1      42.980 -17.719   2.306  1.00  0.00     0.012 A 
ENDBRANCH   6  31
TORSDOF 6
ENDMDL
MODEL 9
REMARK VINA RESULT:      -9.4      4.280      7.777
REMARK  6 active torsions:
REMARK  status: ('A' for Active; 'I' for Inactive)
REMARK    1  A    between atoms: C_8  and  C_9 
REMARK    2  A    between atoms: C_9  and  C_10 
REMARK    3  A    between atoms: C_10  and  N_11 
REMARK       I    between atoms: N_11  and  C_12 
REMARK    4  A    between atoms: C_12  and  C_13 
REMARK    5  A    between atoms: C_18  and  C_19 
REMARK    6  A    between atoms: C_29  and  C_30 
ROOT
HETATM    1  C   UNL     1      41.200 -13.323   4.919  1.00  0.00     0.148 C 
HETATM    2  N   UNL     1      42.502 -12.977   5.060  1.00  0.00    -0.165 NA
HETATM    3  N   UNL     1      42.992 -13.950   5.845  1.00  0.00    -0.240 N 
HETATM    4  C   UNL     1      42.117 -14.967   6.087  1.00  0.00     0.123 C 
HETATM    5  N   UNL     1      42.517 -16.083   6.726  1.00  0.00    -0.366 N 
HETATM    6  C   UNL     1      43.927 -16.483   6.770  1.00  0.00     0.118 C 
HETATM    7  C   UNL     1      44.882 -15.436   6.145  1.00  0.00     0.066 C 
HETATM    8  C   UNL     1      44.373 -13.994   6.275  1.00  0.00     0.221 C 
HETATM    9  C   UNL     1      40.918 -14.556   5.573  1.00  0.00     0.088 C 
HETATM   10  H   UNL     1      41.859 -16.852   6.861  1.00  0.00     0.161 HD
ENDROOT
BRANCH   1  11
HETATM   11  C   UNL     1      40.245 -12.509   4.151  1.00  0.00     0.272 C 
HETATM   12  N   UNL     1      40.642 -12.277   2.854  1.00  0.00    -0.355 N 
HETATM   13  H   UNL     1      41.468 -12.784   2.549  1.00  0.00     0.162 HD
HETATM   14  O   UNL     1      39.189 -12.099   4.622  1.00  0.00    -0.266 OA
BRANCH  12  15
HETATM   15  C   UNL     1      39.803 -11.569   1.914  1.00  0.00     0.127 C 
BRANCH  15  16
HETATM   16  C   UNL     1      39.232 -12.468   0.817  1.00  0.00     0.060 C 
BRANCH  16  17
HETATM   17  C   UNL     1      40.204 -13.507   0.348  1.00  0.00    -0.029 A 
HETATM   18  C   UNL     1      40.376 -14.834   0.860  1.00  0.00    -0.002 A 
HETATM   19  C   UNL     1      39.761 -15.581   1.888  1.00  0.00     0.014 A 
HETATM   20  C   UNL     1      41.395 -15.439   0.123  1.00  0.00     0.042 A 
HETATM   21  C   UNL     1      40.185 -16.892   2.137  1.00  0.00     0.001 A 
HETATM   22  C   UNL     1      41.205 -17.465   1.383  1.00  0.00     0.002 A 
HETATM   23  C   UNL     1      41.830 -16.748   0.359  1.00  0.00     0.030 A 
HETATM   24  N   UNL     1      41.827 -14.518  -0.802  1.00  0.00    -0.365 N 
HETATM   25  H   UNL     1      42.563 -14.683  -1.474  1.00  0.00     0.165 HD
HETATM   26  C   UNL     1      41.122 -13.352  -0.673  1.00  0.00     0.096 A 
ENDBRANCH  16  17
ENDBRANCH  15  16
ENDBRANCH  12  15
ENDBRANCH   1  11
BRANCH   8  27
HETATM   27  C   UNL     1      44.504 -13.454   7.680  1.00  0.00     0.409 C 
HETATM   28  F   UNL     1      45.772 -13.094   7.978  1.00  0.00    -0.169 F 
HETATM   29  F   UNL     1      43.701 -12.402   7.937  1.00  0.00    -0.169 F 
HETATM   30  F   UNL     1      44.163 -14.424   8.571  1.00  0.00    -0.169 F 
ENDBRANCH   8  27
BRANCH   6  31
HETATM   31  C   UNL     1      44.058 -17.827   6.065  1.00  0.00    -0.033 A 
HETATM   32  C   UNL     1      44.108 -17.897   4.663  1.00  0.00     0.049 A 
HETATM   33  C   UNL     1      44.247 -19.141   4.079  1.00  0.00     0.105 A 
HETATM   34  C   UNL     1      44.333 -20.293   4.825  1.00  0.00     0.105 A 
HETATM   35  O   UNL     1      44.317 -19.386   2.742  1.00  0.00    -0.323 OA
HETATM   36  O   UNL     1      44.466 -21.405   4.054  1.00  0.00    -0.323 OA
HETATM   37  C   UNL     1      44.294 -20.271   6.199  1.00  0.00     0.040 A 
HETATM   38  C   UNL     1      44.468 -20.822   2.736  1.00  0.00     0.352 A 
HETATM   39  C   UNL     1      44.163 -19.026   6.820  1.00  0.00     0.012 A 
ENDBRANCH   6  31
TORSDOF 6
ENDMDL
MODEL 10
REMARK VINA RESULT:      -9.3      7.082     11.040
REMARK  6 active torsions:
REMARK  status: ('A' for Active; 'I' for Inactive)
REMARK    1  A    between atoms: C_8  and  C_9 
REMARK    2  A    between atoms: C_9  and  C_10 
REMARK    3  A    between atoms: C_10  and  N_11 
REMARK       I    between atoms: N_11  and  C_12 
REMARK    4  A    between atoms: C_12  and  C_13 
REMARK    5  A    between atoms: C_18  and  C_19 
REMARK    6  A    between atoms: C_29  and  C_30 
ROOT
HETATM    1  C   UNL     1      41.433 -14.505   0.480  1.00  0.00     0.148 C 
HETATM    2  N   UNL     1      41.523 -13.163   0.311  1.00  0.00    -0.165 NA
HETATM    3  N   UNL     1      41.250 -13.002  -0.995  1.00  0.00    -0.240 N 
HETATM    4  C   UNL     1      40.848 -14.142  -1.626  1.00  0.00     0.123 C 
HETATM    5  N   UNL     1      40.392 -14.103  -2.893  1.00  0.00    -0.366 N 
HETATM    6  C   UNL     1      39.860 -12.871  -3.483  1.00  0.00     0.118 C 
HETATM    7  C   UNL     1      40.013 -11.633  -2.564  1.00  0.00     0.066 C 
HETATM    8  C   UNL     1      41.237 -11.708  -1.642  1.00  0.00     0.221 C 
HETATM    9  C   UNL     1      41.035 -15.153  -0.724  1.00  0.00     0.088 C 
HETATM   10  H   UNL     1      40.056 -14.959  -3.335  1.00  0.00     0.161 HD
ENDROOT
BRANCH   1  11
HETATM   11  C   UNL     1      41.693 -15.157   1.773  1.00  0.00     0.272 C 
HETATM   12  N   UNL     1      41.926 -16.508   1.668  1.00  0.00    -0.355 N 
HETATM   13  H   UNL     1      42.011 -16.868   0.722  1.00  0.00     0.162 HD
HETATM   14  O   UNL     1      41.717 -14.543   2.835  1.00  0.00    -0.266 OA
BRANCH  12  15
HETATM   15  C   UNL     1      42.283 -17.313   2.815  1.00  0.00     0.127 C 
BRANCH  15  16
HETATM   16  C   UNL     1      43.788 -17.549   2.942  1.00  0.00     0.060 C 
BRANCH  16  17
HETATM   17  C   UNL     1      44.130 -18.620   3.934  1.00  0.00    -0.029 A 
HETATM   18  C   UNL     1      44.300 -20.019   3.681  1.00  0.00    -0.002 A 
HETATM   19  C   UNL     1      44.219 -20.829   2.527  1.00  0.00     0.014 A 
HETATM   20  C   UNL     1      44.606 -20.631   4.898  1.00  0.00     0.042 A 
HETATM   21  C   UNL     1      44.445 -22.208   2.634  1.00  0.00     0.001 A 
HETATM   22  C   UNL     1      44.748 -22.785   3.864  1.00  0.00     0.002 A 
HETATM   23  C   UNL     1      44.836 -22.006   5.021  1.00  0.00     0.030 A 
HETATM   24  N   UNL     1      44.622 -19.643   5.854  1.00  0.00    -0.365 N 
HETATM   25  H   UNL     1      44.816 -19.797   6.834  1.00  0.00     0.165 HD
HETATM   26  C   UNL     1      44.333 -18.431   5.288  1.00  0.00     0.096 A 
ENDBRANCH  16  17
ENDBRANCH  15  16
ENDBRANCH  12  15
ENDBRANCH   1  11
BRANCH   8  27
HETATM   27  C   UNL     1      42.537 -11.475  -2.377  1.00  0.00     0.409 C 
HETATM   28  F   UNL     1      43.472 -10.890  -1.597  1.00  0.00    -0.169 F 
HETATM   29  F   UNL     1      43.074 -12.593  -2.904  1.00  0.00    -0.169 F 
HETATM   30  F   UNL     1      42.321 -10.625  -3.418  1.00  0.00    -0.169 F 
ENDBRANCH   8  27
BRANCH   6  31
HETATM   31  C   UNL     1      38.397 -13.109  -3.834  1.00  0.00    -0.033 A 
HETATM   32  C   UNL     1      37.547 -12.030  -4.127  1.00  0.00     0.049 A 
HETATM   33  C   UNL     1      36.235 -12.307  -4.457  1.00  0.00     0.105 A 
HETATM   34  C   UNL     1      35.749 -13.593  -4.501  1.00  0.00     0.105 A 
HETATM   35  O   UNL     1      35.285 -11.386  -4.773  1.00  0.00    -0.323 OA
HETATM   36  O   UNL     1      34.434 -13.643  -4.847  1.00  0.00    -0.323 OA
HETATM   37  C   UNL     1      36.546 -14.679  -4.227  1.00  0.00     0.040 A 
HETATM   38  C   UNL     1      34.150 -12.242  -5.031  1.00  0.00     0.352 A 
HETATM   39  C   UNL     1      37.881 -14.432  -3.898  1.00  0.00     0.012 A 
ENDBRANCH   6  31
TORSDOF 6
ENDMDL
