MODEL 1
REMARK VINA RESULT:      -9.0      0.000      0.000
REMARK  7 active torsions:
REMARK  status: ('A' for Active; 'I' for Inactive)
REMARK    1  A    between atoms: C_6  and  C_7 
REMARK    2  A    between atoms: N_13  and  C_15 
REMARK    3  A    between atoms: C_15  and  C_16 
REMARK    4  A    between atoms: C_16  and  N_17 
REMARK       I    between atoms: N_17  and  C_18 
REMARK    5  A    between atoms: C_18  and  C_19 
REMARK    6  A    between atoms: C_19  and  N_20 
REMARK    7  A    between atoms: C_19  and  C_27 
ROOT
HETATM    1  C   UNL     1      44.909 -13.651   7.712  1.00  0.00     0.150 C 
ENDROOT
BRANCH   1   2
HETATM    2  C   UNL     1      44.427 -14.332   6.411  1.00  0.00     0.255 C 
BRANCH   2   3
HETATM    3  N   UNL     1      43.236 -15.252   6.615  1.00  0.00    -0.063 N 
HETATM    4  C   UNL     1      43.424 -16.712   6.189  1.00  0.00     0.272 C 
HETATM    5  C   UNL     1      43.584 -16.931   4.659  1.00  0.00     0.188 C 
HETATM    6  O   UNL     1      42.344 -16.627   3.993  1.00  0.00    -0.339 OA
HETATM    7  C   UNL     1      42.279 -15.316   3.616  1.00  0.00     0.077 A 
HETATM    8  C   UNL     1      42.074 -14.312   4.567  1.00  0.00     0.001 A 
HETATM    9  C   UNL     1      42.358 -15.020   2.258  1.00  0.00     0.037 A 
HETATM   10  C   UNL     1      41.980 -12.983   4.132  1.00  0.00     0.012 A 
HETATM   11  C   UNL     1      41.957 -14.662   6.020  1.00  0.00     0.276 C 
HETATM   12  C   UNL     1      42.085 -12.677   2.773  1.00  0.00     0.001 A 
HETATM   13  C   UNL     1      42.271 -13.695   1.838  1.00  0.00     0.003 A 
HETATM   14  H   UNL     1      43.041 -15.283   7.625  1.00  0.00     0.280 HD
BRANCH   5  15
HETATM   15  C   UNL     1      43.973 -18.368   4.393  1.00  0.00    -0.020 A 
HETATM   16  C   UNL     1      44.399 -19.260   5.363  1.00  0.00     0.059 A 
HETATM   17  S   UNL     1      44.736 -20.816   4.740  1.00  0.00    -0.113 SA
HETATM   18  C   UNL     1      44.346 -20.323   3.153  1.00  0.00     0.050 A 
HETATM   19  C   UNL     1      43.955 -19.003   3.104  1.00  0.00     0.017 A 
ENDBRANCH   5  15
ENDBRANCH   2   3
ENDBRANCH   1   2
BRANCH   1  20
HETATM   20  N   UNL     1      43.909 -12.787   8.350  1.00  0.00    -0.357 N 
HETATM   21  C   UNL     1      44.248 -11.545   8.864  1.00  0.00     0.253 C 
HETATM   22  O   UNL     1      45.424 -11.197   8.942  1.00  0.00    -0.271 OA
HETATM   23  H   UNL     1      42.940 -12.947   8.078  1.00  0.00     0.162 HD
BRANCH  21  24
HETATM   24  C   UNL     1      43.067 -10.655   9.386  1.00  0.00     0.314 C 
BRANCH  24  25
HETATM   25  N   UNL     1      41.672 -11.026   8.837  1.00  0.00    -0.050 N 
HETATM   26  H   UNL     1      41.560 -12.033   9.011  1.00  0.00     0.281 HD
HETATM   27  C   UNL     1      40.535 -10.322   9.578  1.00  0.00     0.262 C 
HETATM   28  C   UNL     1      39.186 -10.820   9.050  1.00  0.00     0.195 C 
HETATM   29  O   UNL     1      39.086 -10.599   7.641  1.00  0.00    -0.388 OA
HETATM   30  C   UNL     1      40.090 -11.316   6.915  1.00  0.00     0.195 C 
HETATM   31  C   UNL     1      41.494 -10.851   7.323  1.00  0.00     0.262 C 
ENDBRANCH  24  25
BRANCH  24  32
HETATM   32  C   UNL     1      43.059 -10.507  10.888  1.00  0.00    -0.001 A 
HETATM   33  C   UNL     1      42.852 -11.592  11.737  1.00  0.00     0.126 A 
HETATM   34  N   UNL     1      42.819 -11.499  13.079  1.00  0.00    -0.272 NA
HETATM   35  C   UNL     1      42.985 -10.276  13.627  1.00  0.00     0.116 A 
HETATM   36  C   UNL     1      43.185  -9.132  12.877  1.00  0.00     0.020 A 
HETATM   37  C   UNL     1      43.220  -9.249  11.489  1.00  0.00     0.012 A 
ENDBRANCH  24  32
ENDBRANCH  21  24
ENDBRANCH   1  20
TORSDOF 7
ENDMDL
MODEL 2
REMARK VINA RESULT:      -8.6      5.222      9.572
REMARK  7 active torsions:
REMARK  status: ('A' for Active; 'I' for Inactive)
REMARK    1  A    between atoms: C_6  and  C_7 
REMARK    2  A    between atoms: N_13  and  C_15 
REMARK    3  A    between atoms: C_15  and  C_16 
REMARK    4  A    between atoms: C_16  and  N_17 
REMARK       I    between atoms: N_17  and  C_18 
REMARK    5  A    between atoms: C_18  and  C_19 
REMARK    6  A    between atoms: C_19  and  N_20 
REMARK    7  A    between atoms: C_19  and  C_27 
ROOT
HETATM    1  C   UNL     1      39.310 -15.152   1.738  1.00  0.00     0.150 C 
ENDROOT
BRANCH   1   2
HETATM    2  C   UNL     1      40.218 -16.347   2.107  1.00  0.00     0.255 C 
BRANCH   2   3
HETATM    3  N   UNL     1      41.590 -16.287   1.456  1.00  0.00    -0.063 N 
HETATM    4  C   UNL     1      42.416 -17.577   1.493  1.00  0.00     0.272 C 
HETATM    5  C   UNL     1      42.887 -18.010   2.908  1.00  0.00     0.188 C 
HETATM    6  O   UNL     1      43.857 -17.070   3.407  1.00  0.00    -0.339 OA
HETATM    7  C   UNL     1      43.267 -16.058   4.110  1.00  0.00     0.077 A 
HETATM    8  C   UNL     1      42.555 -15.053   3.449  1.00  0.00     0.001 A 
HETATM    9  C   UNL     1      43.451 -16.025   5.490  1.00  0.00     0.037 A 
HETATM   10  C   UNL     1      41.995 -14.016   4.207  1.00  0.00     0.012 A 
HETATM   11  C   UNL     1      42.402 -15.093   1.958  1.00  0.00     0.276 C 
HETATM   12  C   UNL     1      42.154 -13.992   5.594  1.00  0.00     0.001 A 
HETATM   13  C   UNL     1      42.883 -14.994   6.234  1.00  0.00     0.003 A 
HETATM   14  H   UNL     1      41.447 -16.081   0.458  1.00  0.00     0.280 HD
BRANCH   5  15
HETATM   15  C   UNL     1      43.500 -19.391   2.836  1.00  0.00    -0.020 A 
HETATM   16  C   UNL     1      43.282 -20.294   1.809  1.00  0.00     0.059 A 
HETATM   17  S   UNL     1      44.144 -21.757   2.011  1.00  0.00    -0.113 SA
HETATM   18  C   UNL     1      44.805 -21.226   3.492  1.00  0.00     0.050 A 
HETATM   19  C   UNL     1      44.387 -19.954   3.817  1.00  0.00     0.017 A 
ENDBRANCH   5  15
ENDBRANCH   2   3
ENDBRANCH   1   2
BRANCH   1  20
HETATM   20  N   UNL     1      39.439 -14.698   0.349  1.00  0.00    -0.357 N 
HETATM   21  C   UNL     1      39.225 -13.374  -0.002  1.00  0.00     0.253 C 
HETATM   22  O   UNL     1      38.767 -12.574   0.811  1.00  0.00    -0.271 OA
HETATM   23  H   UNL     1      40.031 -15.266  -0.255  1.00  0.00     0.162 HD
BRANCH  21  24
HETATM   24  C   UNL     1      39.537 -12.983  -1.489  1.00  0.00     0.314 C 
BRANCH  24  25
HETATM   25  N   UNL     1      40.939 -12.382  -1.730  1.00  0.00    -0.050 N 
HETATM   26  H   UNL     1      41.535 -13.166  -2.025  1.00  0.00     0.281 HD
HETATM   27  C   UNL     1      40.960 -11.361  -2.867  1.00  0.00     0.262 C 
HETATM   28  C   UNL     1      42.397 -10.891  -3.115  1.00  0.00     0.195 C 
HETATM   29  O   UNL     1      42.956 -10.334  -1.923  1.00  0.00    -0.388 OA
HETATM   30  C   UNL     1      43.026 -11.296  -0.865  1.00  0.00     0.195 C 
HETATM   31  C   UNL     1      41.624 -11.795  -0.489  1.00  0.00     0.262 C 
ENDBRANCH  24  25
BRANCH  24  32
HETATM   32  C   UNL     1      39.223 -14.089  -2.468  1.00  0.00    -0.001 A 
HETATM   33  C   UNL     1      40.218 -14.896  -3.015  1.00  0.00     0.126 A 
HETATM   34  N   UNL     1      39.982 -15.879  -3.903  1.00  0.00    -0.272 NA
HETATM   35  C   UNL     1      38.705 -16.079  -4.293  1.00  0.00     0.116 A 
HETATM   36  C   UNL     1      37.645 -15.327  -3.822  1.00  0.00     0.020 A 
HETATM   37  C   UNL     1      37.908 -14.317  -2.899  1.00  0.00     0.012 A 
ENDBRANCH  24  32
ENDBRANCH  21  24
ENDBRANCH   1  20
TORSDOF 7
ENDMDL
MODEL 3
REMARK VINA RESULT:      -8.5      5.597     10.066
REMARK  7 active torsions:
REMARK  status: ('A' for Active; 'I' for Inactive)
REMARK    1  A    between atoms: C_6  and  C_7 
REMARK    2  A    between atoms: N_13  and  C_15 
REMARK    3  A    between atoms: C_15  and  C_16 
REMARK    4  A    between atoms: C_16  and  N_17 
REMARK       I    between atoms: N_17  and  C_18 
REMARK    5  A    between atoms: C_18  and  C_19 
REMARK    6  A    between atoms: C_19  and  N_20 
REMARK    7  A    between atoms: C_19  and  C_27 
ROOT
HETATM    1  C   UNL     1      41.457 -16.192  -0.393  1.00  0.00     0.150 C 
ENDROOT
BRANCH   1   2
HETATM    2  C   UNL     1      41.303 -14.705  -0.786  1.00  0.00     0.255 C 
BRANCH   2   3
HETATM    3  N   UNL     1      42.118 -14.315  -2.007  1.00  0.00    -0.063 N 
HETATM    4  C   UNL     1      42.673 -12.887  -2.025  1.00  0.00     0.272 C 
HETATM    5  C   UNL     1      41.600 -11.770  -2.138  1.00  0.00     0.188 C 
HETATM    6  O   UNL     1      40.980 -11.820  -3.436  1.00  0.00    -0.339 OA
HETATM    7  C   UNL     1      39.879 -12.628  -3.442  1.00  0.00     0.077 A 
HETATM    8  C   UNL     1      40.018 -14.018  -3.397  1.00  0.00     0.001 A 
HETATM    9  C   UNL     1      38.628 -12.029  -3.558  1.00  0.00     0.037 A 
HETATM   10  C   UNL     1      38.862 -14.811  -3.438  1.00  0.00     0.012 A 
HETATM   11  C   UNL     1      41.379 -14.639  -3.306  1.00  0.00     0.276 C 
HETATM   12  C   UNL     1      37.602 -14.215  -3.529  1.00  0.00     0.001 A 
HETATM   13  C   UNL     1      37.485 -12.826  -3.591  1.00  0.00     0.003 A 
HETATM   14  H   UNL     1      42.941 -14.931  -2.037  1.00  0.00     0.280 HD
BRANCH   5  15
HETATM   15  C   UNL     1      42.252 -10.421  -1.930  1.00  0.00    -0.020 A 
HETATM   16  C   UNL     1      41.694  -9.211  -2.307  1.00  0.00     0.059 A 
HETATM   17  S   UNL     1      42.673  -7.868  -1.906  1.00  0.00    -0.113 SA
HETATM   18  C   UNL     1      43.880  -8.878  -1.244  1.00  0.00     0.050 A 
HETATM   19  C   UNL     1      43.535 -10.209  -1.316  1.00  0.00     0.017 A 
ENDBRANCH   5  15
ENDBRANCH   2   3
ENDBRANCH   1   2
BRANCH   1  20
HETATM   20  N   UNL     1      42.418 -16.437   0.688  1.00  0.00    -0.357 N 
HETATM   21  C   UNL     1      42.057 -17.126   1.836  1.00  0.00     0.253 C 
HETATM   22  O   UNL     1      40.882 -17.413   2.052  1.00  0.00    -0.271 OA
HETATM   23  H   UNL     1      43.402 -16.426   0.423  1.00  0.00     0.162 HD
BRANCH  21  24
HETATM   24  C   UNL     1      43.208 -17.452   2.849  1.00  0.00     0.314 C 
BRANCH  24  25
HETATM   25  N   UNL     1      42.984 -16.936   4.287  1.00  0.00    -0.050 N 
HETATM   26  H   UNL     1      43.846 -17.156   4.803  1.00  0.00     0.281 HD
HETATM   27  C   UNL     1      42.808 -15.419   4.353  1.00  0.00     0.262 C 
HETATM   28  C   UNL     1      42.699 -14.973   5.815  1.00  0.00     0.195 C 
HETATM   29  O   UNL     1      41.612 -15.638   6.463  1.00  0.00    -0.388 OA
HETATM   30  C   UNL     1      41.794 -17.058   6.489  1.00  0.00     0.195 C 
HETATM   31  C   UNL     1      41.856 -17.626   5.065  1.00  0.00     0.262 C 
ENDBRANCH  24  25
BRANCH  24  32
HETATM   32  C   UNL     1      43.616 -18.906   2.831  1.00  0.00    -0.001 A 
HETATM   33  C   UNL     1      44.418 -19.461   3.825  1.00  0.00     0.126 A 
HETATM   34  N   UNL     1      44.818 -20.746   3.836  1.00  0.00    -0.272 NA
HETATM   35  C   UNL     1      44.426 -21.534   2.812  1.00  0.00     0.116 A 
HETATM   36  C   UNL     1      43.640 -21.081   1.768  1.00  0.00     0.020 A 
HETATM   37  C   UNL     1      43.231 -19.749   1.777  1.00  0.00     0.012 A 
ENDBRANCH  24  32
ENDBRANCH  21  24
ENDBRANCH   1  20
TORSDOF 7
ENDMDL
MODEL 4
REMARK VINA RESULT:      -8.5      5.512      9.595
REMARK  7 active torsions:
REMARK  status: ('A' for Active; 'I' for Inactive)
REMARK    1  A    between atoms: C_6  and  C_7 
REMARK    2  A    between atoms: N_13  and  C_15 
REMARK    3  A    between atoms: C_15  and  C_16 
REMARK    4  A    between atoms: C_16  and  N_17 
REMARK       I    between atoms: N_17  and  C_18 
REMARK    5  A    between atoms: C_18  and  C_19 
REMARK    6  A    between atoms: C_19  and  N_20 
REMARK    7  A    between atoms: C_19  and  C_27 
ROOT
HETATM    1  C   UNL     1      41.186 -15.748   1.548  1.00  0.00     0.150 C 
ENDROOT
BRANCH   1   2
HETATM    2  C   UNL     1      41.352 -15.615   0.017  1.00  0.00     0.255 C 
BRANCH   2   3
HETATM    3  N   UNL     1      41.607 -14.189  -0.441  1.00  0.00    -0.063 N 
HETATM    4  C   UNL     1      40.763 -13.099   0.227  1.00  0.00     0.272 C 
HETATM    5  C   UNL     1      39.248 -13.147  -0.111  1.00  0.00     0.188 C 
HETATM    6  O   UNL     1      39.047 -12.813  -1.497  1.00  0.00    -0.339 OA
HETATM    7  C   UNL     1      39.076 -13.921  -2.295  1.00  0.00     0.077 A 
HETATM    8  C   UNL     1      40.285 -14.567  -2.571  1.00  0.00     0.001 A 
HETATM    9  C   UNL     1      37.881 -14.344  -2.871  1.00  0.00     0.037 A 
HETATM   10  C   UNL     1      40.272 -15.681  -3.423  1.00  0.00     0.012 A 
HETATM   11  C   UNL     1      41.562 -14.069  -1.965  1.00  0.00     0.276 C 
HETATM   12  C   UNL     1      39.073 -16.126  -3.983  1.00  0.00     0.001 A 
HETATM   13  C   UNL     1      37.880 -15.457  -3.710  1.00  0.00     0.003 A 
HETATM   14  H   UNL     1      42.583 -13.962  -0.209  1.00  0.00     0.280 HD
BRANCH   5  15
HETATM   15  C   UNL     1      38.504 -12.166   0.768  1.00  0.00    -0.020 A 
HETATM   16  C   UNL     1      37.414 -11.416   0.361  1.00  0.00     0.059 A 
HETATM   17  S   UNL     1      36.783 -10.423   1.602  1.00  0.00    -0.113 SA
HETATM   18  C   UNL     1      37.973 -10.955   2.705  1.00  0.00     0.050 A 
HETATM   19  C   UNL     1      38.823 -11.879   2.140  1.00  0.00     0.017 A 
ENDBRANCH   5  15
ENDBRANCH   2   3
ENDBRANCH   1   2
BRANCH   1  20
HETATM   20  N   UNL     1      42.375 -16.248   2.246  1.00  0.00    -0.357 N 
HETATM   21  C   UNL     1      42.282 -17.209   3.240  1.00  0.00     0.253 C 
HETATM   22  O   UNL     1      41.187 -17.557   3.677  1.00  0.00    -0.271 OA
HETATM   23  H   UNL     1      43.259 -16.158   1.745  1.00  0.00     0.162 HD
BRANCH  21  24
HETATM   24  C   UNL     1      43.633 -17.769   3.806  1.00  0.00     0.314 C 
BRANCH  24  25
HETATM   25  N   UNL     1      43.863 -17.532   5.314  1.00  0.00    -0.050 N 
HETATM   26  H   UNL     1      44.866 -17.691   5.474  1.00  0.00     0.281 HD
HETATM   27  C   UNL     1      43.574 -16.093   5.740  1.00  0.00     0.262 C 
HETATM   28  C   UNL     1      43.926 -15.910   7.220  1.00  0.00     0.195 C 
HETATM   29  O   UNL     1      43.195 -16.835   8.028  1.00  0.00    -0.388 OA
HETATM   30  C   UNL     1      43.512 -18.193   7.705  1.00  0.00     0.195 C 
HETATM   31  C   UNL     1      43.140 -18.508   6.250  1.00  0.00     0.262 C 
ENDBRANCH  24  25
BRANCH  24  32
HETATM   32  C   UNL     1      43.886 -19.206   3.417  1.00  0.00    -0.001 A 
HETATM   33  C   UNL     1      44.667 -20.056   4.197  1.00  0.00     0.126 A 
HETATM   34  N   UNL     1      44.931 -21.336   3.877  1.00  0.00    -0.272 NA
HETATM   35  C   UNL     1      44.416 -21.813   2.724  1.00  0.00     0.116 A 
HETATM   36  C   UNL     1      43.638 -21.052   1.871  1.00  0.00     0.020 A 
HETATM   37  C   UNL     1      43.371 -19.730   2.222  1.00  0.00     0.012 A 
ENDBRANCH  24  32
ENDBRANCH  21  24
ENDBRANCH   1  20
TORSDOF 7
ENDMDL
MODEL 5
REMARK VINA RESULT:      -8.1      4.743     10.001
REMARK  7 active torsions:
REMARK  status: ('A' for Active; 'I' for Inactive)
REMARK    1  A    between atoms: C_6  and  C_7 
REMARK    2  A    between atoms: N_13  and  C_15 
REMARK    3  A    between atoms: C_15  and  C_16 
REMARK    4  A    between atoms: C_16  and  N_17 
REMARK       I    between atoms: N_17  and  C_18 
REMARK    5  A    between atoms: C_18  and  C_19 
REMARK    6  A    between atoms: C_19  and  N_20 
REMARK    7  A    between atoms: C_19  and  C_27 
ROOT
HETATM    1  C   UNL     1      42.591 -15.552   2.049  1.00  0.00     0.150 C 
ENDROOT
BRANCH   1   2
HETATM    2  C   UNL     1      43.368 -14.874   3.200  1.00  0.00     0.255 C 
BRANCH   2   3
HETATM    3  N   UNL     1      42.534 -14.666   4.452  1.00  0.00    -0.063 N 
HETATM    4  C   UNL     1      43.185 -13.850   5.574  1.00  0.00     0.272 C 
HETATM    5  C   UNL     1      44.400 -14.534   6.257  1.00  0.00     0.188 C 
HETATM    6  O   UNL     1      43.957 -15.684   7.001  1.00  0.00    -0.339 OA
HETATM    7  C   UNL     1      43.977 -16.818   6.240  1.00  0.00     0.077 A 
HETATM    8  C   UNL     1      43.015 -17.025   5.247  1.00  0.00     0.001 A 
HETATM    9  C   UNL     1      44.939 -17.783   6.528  1.00  0.00     0.037 A 
HETATM   10  C   UNL     1      43.053 -18.218   4.512  1.00  0.00     0.012 A 
HETATM   11  C   UNL     1      41.969 -15.984   4.981  1.00  0.00     0.276 C 
HETATM   12  C   UNL     1      44.032 -19.179   4.778  1.00  0.00     0.001 A 
HETATM   13  C   UNL     1      44.972 -18.962   5.786  1.00  0.00     0.003 A 
HETATM   14  H   UNL     1      41.695 -14.136   4.178  1.00  0.00     0.280 HD
BRANCH   5  15
HETATM   15  C   UNL     1      45.076 -13.550   7.186  1.00  0.00    -0.020 A 
HETATM   16  C   UNL     1      44.496 -13.019   8.326  1.00  0.00     0.059 A 
HETATM   17  S   UNL     1      45.535 -11.956   9.172  1.00  0.00    -0.113 SA
HETATM   18  C   UNL     1      46.774 -12.161   8.017  1.00  0.00     0.050 A 
HETATM   19  C   UNL     1      46.406 -13.032   7.015  1.00  0.00     0.017 A 
ENDBRANCH   5  15
ENDBRANCH   2   3
ENDBRANCH   1   2
BRANCH   1  20
HETATM   20  N   UNL     1      42.094 -14.627   1.025  1.00  0.00    -0.357 N 
HETATM   21  C   UNL     1      41.388 -15.079  -0.079  1.00  0.00     0.253 C 
HETATM   22  O   UNL     1      41.293 -16.281  -0.315  1.00  0.00    -0.271 OA
HETATM   23  H   UNL     1      41.954 -13.662   1.323  1.00  0.00     0.162 HD
BRANCH  21  24
HETATM   24  C   UNL     1      40.783 -13.982  -1.023  1.00  0.00     0.314 C 
BRANCH  24  25
HETATM   25  N   UNL     1      41.799 -12.962  -1.581  1.00  0.00    -0.050 N 
HETATM   26  H   UNL     1      42.669 -13.487  -1.735  1.00  0.00     0.281 HD
HETATM   27  C   UNL     1      41.383 -12.390  -2.936  1.00  0.00     0.262 C 
HETATM   28  C   UNL     1      42.487 -11.471  -3.471  1.00  0.00     0.195 C 
HETATM   29  O   UNL     1      42.761 -10.422  -2.540  1.00  0.00    -0.388 OA
HETATM   30  C   UNL     1      43.233 -10.928  -1.288  1.00  0.00     0.195 C 
HETATM   31  C   UNL     1      42.174 -11.821  -0.627  1.00  0.00     0.262 C 
ENDBRANCH  24  25
BRANCH  24  32
HETATM   32  C   UNL     1      39.908 -14.557  -2.111  1.00  0.00    -0.001 A 
HETATM   33  C   UNL     1      40.422 -15.363  -3.125  1.00  0.00     0.126 A 
HETATM   34  N   UNL     1      39.680 -15.879  -4.122  1.00  0.00    -0.272 NA
HETATM   35  C   UNL     1      38.363 -15.584  -4.141  1.00  0.00     0.116 A 
HETATM   36  C   UNL     1      37.753 -14.785  -3.191  1.00  0.00     0.020 A 
HETATM   37  C   UNL     1      38.537 -14.264  -2.164  1.00  0.00     0.012 A 
ENDBRANCH  24  32
ENDBRANCH  21  24
ENDBRANCH   1  20
TORSDOF 7
ENDMDL
MODEL 6
REMARK VINA RESULT:      -8.1      5.456      7.826
REMARK  7 active torsions:
REMARK  status: ('A' for Active; 'I' for Inactive)
REMARK    1  A    between atoms: C_6  and  C_7 
REMARK    2  A    between atoms: N_13  and  C_15 
REMARK    3  A    between atoms: C_15  and  C_16 
REMARK    4  A    between atoms: C_16  and  N_17 
REMARK       I    between atoms: N_17  and  C_18 
REMARK    5  A    between atoms: C_18  and  C_19 
REMARK    6  A    between atoms: C_19  and  N_20 
REMARK    7  A    between atoms: C_19  and  C_27 
ROOT
HETATM    1  C   UNL     1      41.354 -15.707  -0.187  1.00  0.00     0.150 C 
ENDROOT
BRANCH   1   2
HETATM    2  C   UNL     1      41.628 -16.390   1.173  1.00  0.00     0.255 C 
BRANCH   2   3
HETATM    3  N   UNL     1      43.094 -16.381   1.569  1.00  0.00    -0.063 N 
HETATM    4  C   UNL     1      43.748 -17.750   1.783  1.00  0.00     0.272 C 
HETATM    5  C   UNL     1      43.216 -18.544   3.007  1.00  0.00     0.188 C 
HETATM    6  O   UNL     1      43.607 -17.881   4.224  1.00  0.00    -0.339 OA
HETATM    7  C   UNL     1      42.669 -16.976   4.632  1.00  0.00     0.077 A 
HETATM    8  C   UNL     1      42.513 -15.761   3.958  1.00  0.00     0.001 A 
HETATM    9  C   UNL     1      41.924 -17.273   5.770  1.00  0.00     0.037 A 
HETATM   10  C   UNL     1      41.561 -14.847   4.431  1.00  0.00     0.012 A 
HETATM   11  C   UNL     1      43.353 -15.452   2.755  1.00  0.00     0.276 C 
HETATM   12  C   UNL     1      40.793 -15.150   5.558  1.00  0.00     0.001 A 
HETATM   13  C   UNL     1      40.975 -16.360   6.227  1.00  0.00     0.003 A 
HETATM   14  H   UNL     1      43.618 -15.943   0.800  1.00  0.00     0.280 HD
BRANCH   5  15
HETATM   15  C   UNL     1      43.780 -19.948   2.982  1.00  0.00    -0.020 A 
HETATM   16  C   UNL     1      44.376 -20.575   4.063  1.00  0.00     0.059 A 
HETATM   17  S   UNL     1      44.884 -22.170   3.714  1.00  0.00    -0.113 SA
HETATM   18  C   UNL     1      44.343 -22.046   2.099  1.00  0.00     0.050 A 
HETATM   19  C   UNL     1      43.776 -20.819   1.838  1.00  0.00     0.017 A 
ENDBRANCH   5  15
ENDBRANCH   2   3
ENDBRANCH   1   2
BRANCH   1  20
HETATM   20  N   UNL     1      41.280 -14.243  -0.126  1.00  0.00    -0.357 N 
HETATM   21  C   UNL     1      40.116 -13.563  -0.449  1.00  0.00     0.253 C 
HETATM   22  O   UNL     1      39.160 -14.154  -0.946  1.00  0.00    -0.271 OA
HETATM   23  H   UNL     1      41.948 -13.786   0.493  1.00  0.00     0.162 HD
BRANCH  21  24
HETATM   24  C   UNL     1      40.117 -12.014  -0.203  1.00  0.00     0.314 C 
BRANCH  24  25
HETATM   25  N   UNL     1      39.817 -11.578   1.247  1.00  0.00    -0.050 N 
HETATM   26  H   UNL     1      40.704 -11.220   1.623  1.00  0.00     0.281 HD
HETATM   27  C   UNL     1      38.812 -10.429   1.327  1.00  0.00     0.262 C 
HETATM   28  C   UNL     1      38.647  -9.984   2.783  1.00  0.00     0.195 C 
HETATM   29  O   UNL     1      38.229 -11.081   3.600  1.00  0.00    -0.388 OA
HETATM   30  C   UNL     1      39.195 -12.137   3.610  1.00  0.00     0.195 C 
HETATM   31  C   UNL     1      39.396 -12.706   2.198  1.00  0.00     0.262 C 
ENDBRANCH  24  25
BRANCH  24  32
HETATM   32  C   UNL     1      41.346 -11.330  -0.753  1.00  0.00    -0.001 A 
HETATM   33  C   UNL     1      42.317 -10.775   0.077  1.00  0.00     0.126 A 
HETATM   34  N   UNL     1      43.416 -10.141  -0.373  1.00  0.00    -0.272 NA
HETATM   35  C   UNL     1      43.573 -10.031  -1.709  1.00  0.00     0.116 A 
HETATM   36  C   UNL     1      42.665 -10.535  -2.621  1.00  0.00     0.020 A 
HETATM   37  C   UNL     1      41.535 -11.192  -2.136  1.00  0.00     0.012 A 
ENDBRANCH  24  32
ENDBRANCH  21  24
ENDBRANCH   1  20
TORSDOF 7
ENDMDL
MODEL 7
REMARK VINA RESULT:      -7.9      5.358      9.524
REMARK  7 active torsions:
REMARK  status: ('A' for Active; 'I' for Inactive)
REMARK    1  A    between atoms: C_6  and  C_7 
REMARK    2  A    between atoms: N_13  and  C_15 
REMARK    3  A    between atoms: C_15  and  C_16 
REMARK    4  A    between atoms: C_16  and  N_17 
REMARK       I    between atoms: N_17  and  C_18 
REMARK    5  A    between atoms: C_18  and  C_19 
REMARK    6  A    between atoms: C_19  and  N_20 
REMARK    7  A    between atoms: C_19  and  C_27 
ROOT
HETATM    1  C   UNL     1      41.434 -15.935  -0.225  1.00  0.00     0.150 C 
ENDROOT
BRANCH   1   2
HETATM    2  C   UNL     1      41.281 -14.481  -0.728  1.00  0.00     0.255 C 
BRANCH   2   3
HETATM    3  N   UNL     1      42.127 -14.171  -1.951  1.00  0.00    -0.063 N 
HETATM    4  C   UNL     1      42.736 -12.767  -2.018  1.00  0.00     0.272 C 
HETATM    5  C   UNL     1      41.707 -11.617  -2.193  1.00  0.00     0.188 C 
HETATM    6  O   UNL     1      41.104 -11.698  -3.498  1.00  0.00    -0.339 OA
HETATM    7  C   UNL     1      39.973 -12.464  -3.487  1.00  0.00     0.077 A 
HETATM    8  C   UNL     1      40.059 -13.856  -3.384  1.00  0.00     0.001 A 
HETATM    9  C   UNL     1      38.747 -11.825  -3.648  1.00  0.00     0.037 A 
HETATM   10  C   UNL     1      38.875 -14.606  -3.411  1.00  0.00     0.012 A 
HETATM   11  C   UNL     1      41.396 -14.521  -3.247  1.00  0.00     0.276 C 
HETATM   12  C   UNL     1      37.640 -13.969  -3.545  1.00  0.00     0.001 A 
HETATM   13  C   UNL     1      37.576 -12.581  -3.665  1.00  0.00     0.003 A 
HETATM   14  H   UNL     1      42.927 -14.818  -1.943  1.00  0.00     0.280 HD
BRANCH   5  15
HETATM   15  C   UNL     1      42.406 -10.285  -2.030  1.00  0.00    -0.020 A 
HETATM   16  C   UNL     1      41.993  -9.103  -2.622  1.00  0.00     0.059 A 
HETATM   17  S   UNL     1      42.984  -7.770  -2.216  1.00  0.00    -0.113 SA
HETATM   18  C   UNL     1      44.005  -8.751  -1.263  1.00  0.00     0.050 A 
HETATM   19  C   UNL     1      43.589 -10.064  -1.245  1.00  0.00     0.017 A 
ENDBRANCH   5  15
ENDBRANCH   2   3
ENDBRANCH   1   2
BRANCH   1  20
HETATM   20  N   UNL     1      41.863 -16.051   1.172  1.00  0.00    -0.357 N 
HETATM   21  C   UNL     1      41.107 -16.742   2.107  1.00  0.00     0.253 C 
HETATM   22  O   UNL     1      39.979 -17.142   1.830  1.00  0.00    -0.271 OA
HETATM   23  H   UNL     1      42.863 -15.947   1.345  1.00  0.00     0.162 HD
BRANCH  21  24
HETATM   24  C   UNL     1      41.743 -16.922   3.529  1.00  0.00     0.314 C 
BRANCH  24  25
HETATM   25  N   UNL     1      42.973 -17.854   3.587  1.00  0.00    -0.050 N 
HETATM   26  H   UNL     1      43.787 -17.256   3.396  1.00  0.00     0.281 HD
HETATM   27  C   UNL     1      43.191 -18.466   4.970  1.00  0.00     0.262 C 
HETATM   28  C   UNL     1      44.484 -19.288   4.976  1.00  0.00     0.195 C 
HETATM   29  O   UNL     1      44.436 -20.306   3.973  1.00  0.00    -0.388 OA
HETATM   30  C   UNL     1      44.316 -19.755   2.657  1.00  0.00     0.195 C 
HETATM   31  C   UNL     1      43.014 -18.954   2.518  1.00  0.00     0.262 C 
ENDBRANCH  24  25
BRANCH  24  32
HETATM   32  C   UNL     1      41.997 -15.611   4.233  1.00  0.00    -0.001 A 
HETATM   33  C   UNL     1      43.249 -15.000   4.228  1.00  0.00     0.126 A 
HETATM   34  N   UNL     1      43.521 -13.842   4.857  1.00  0.00    -0.272 NA
HETATM   35  C   UNL     1      42.519 -13.250   5.542  1.00  0.00     0.116 A 
HETATM   36  C   UNL     1      41.243 -13.777   5.621  1.00  0.00     0.020 A 
HETATM   37  C   UNL     1      40.980 -14.974   4.959  1.00  0.00     0.012 A 
ENDBRANCH  24  32
ENDBRANCH  21  24
ENDBRANCH   1  20
TORSDOF 7
ENDMDL
MODEL 8
REMARK VINA RESULT:      -7.9      5.589      9.375
REMARK  7 active torsions:
REMARK  status: ('A' for Active; 'I' for Inactive)
REMARK    1  A    between atoms: C_6  and  C_7 
REMARK    2  A    between atoms: N_13  and  C_15 
REMARK    3  A    between atoms: C_15  and  C_16 
REMARK    4  A    between atoms: C_16  and  N_17 
REMARK       I    between atoms: N_17  and  C_18 
REMARK    5  A    between atoms: C_18  and  C_19 
REMARK    6  A    between atoms: C_19  and  N_20 
REMARK    7  A    between atoms: C_19  and  C_27 
ROOT
HETATM    1  C   UNL     1      41.229 -16.987   0.660  1.00  0.00     0.150 C 
ENDROOT
BRANCH   1   2
HETATM    2  C   UNL     1      41.304 -15.447   0.541  1.00  0.00     0.255 C 
BRANCH   2   3
HETATM    3  N   UNL     1      40.040 -14.822  -0.027  1.00  0.00    -0.063 N 
HETATM    4  C   UNL     1      40.239 -13.682  -1.031  1.00  0.00     0.272 C 
HETATM    5  C   UNL     1      40.851 -12.386  -0.435  1.00  0.00     0.188 C 
HETATM    6  O   UNL     1      39.909 -11.773   0.466  1.00  0.00    -0.339 OA
HETATM    7  C   UNL     1      40.068 -12.221   1.746  1.00  0.00     0.077 A 
HETATM    8  C   UNL     1      39.654 -13.507   2.106  1.00  0.00     0.001 A 
HETATM    9  C   UNL     1      40.590 -11.339   2.689  1.00  0.00     0.037 A 
HETATM   10  C   UNL     1      39.804 -13.913   3.439  1.00  0.00     0.012 A 
HETATM   11  C   UNL     1      39.062 -14.424   1.079  1.00  0.00     0.276 C 
HETATM   12  C   UNL     1      40.352 -13.042   4.384  1.00  0.00     0.001 A 
HETATM   13  C   UNL     1      40.742 -11.757   4.009  1.00  0.00     0.003 A 
HETATM   14  H   UNL     1      39.538 -15.558  -0.541  1.00  0.00     0.280 HD
BRANCH   5  15
HETATM   15  C   UNL     1      41.191 -11.427  -1.555  1.00  0.00    -0.020 A 
HETATM   16  C   UNL     1      40.368 -10.401  -1.988  1.00  0.00     0.059 A 
HETATM   17  S   UNL     1      41.057  -9.481  -3.254  1.00  0.00    -0.113 SA
HETATM   18  C   UNL     1      42.460 -10.453  -3.269  1.00  0.00     0.050 A 
HETATM   19  C   UNL     1      42.407 -11.449  -2.320  1.00  0.00     0.017 A 
ENDBRANCH   5  15
ENDBRANCH   2   3
ENDBRANCH   1   2
BRANCH   1  20
HETATM   20  N   UNL     1      41.935 -17.540   1.820  1.00  0.00    -0.357 N 
HETATM   21  C   UNL     1      43.315 -17.675   1.831  1.00  0.00     0.253 C 
HETATM   22  O   UNL     1      43.973 -17.482   0.812  1.00  0.00    -0.271 OA
HETATM   23  H   UNL     1      41.451 -17.469   2.715  1.00  0.00     0.162 HD
BRANCH  21  24
HETATM   24  C   UNL     1      43.964 -18.139   3.182  1.00  0.00     0.314 C 
BRANCH  24  25
HETATM   25  N   UNL     1      43.308 -17.567   4.457  1.00  0.00    -0.050 N 
HETATM   26  H   UNL     1      43.868 -17.920   5.244  1.00  0.00     0.281 HD
HETATM   27  C   UNL     1      43.371 -16.041   4.524  1.00  0.00     0.262 C 
HETATM   28  C   UNL     1      42.800 -15.556   5.860  1.00  0.00     0.195 C 
HETATM   29  O   UNL     1      41.457 -16.017   6.029  1.00  0.00    -0.388 OA
HETATM   30  C   UNL     1      41.381 -17.446   6.054  1.00  0.00     0.195 C 
HETATM   31  C   UNL     1      41.876 -18.042   4.729  1.00  0.00     0.262 C 
ENDBRANCH  24  25
BRANCH  24  32
HETATM   32  C   UNL     1      44.145 -19.636   3.265  1.00  0.00    -0.001 A 
HETATM   33  C   UNL     1      44.678 -20.253   4.395  1.00  0.00     0.126 A 
HETATM   34  N   UNL     1      44.872 -21.581   4.502  1.00  0.00    -0.272 NA
HETATM   35  C   UNL     1      44.541 -22.351   3.444  1.00  0.00     0.116 A 
HETATM   36  C   UNL     1      44.016 -21.839   2.272  1.00  0.00     0.020 A 
HETATM   37  C   UNL     1      43.817 -20.463   2.181  1.00  0.00     0.012 A 
ENDBRANCH  24  32
ENDBRANCH  21  24
ENDBRANCH   1  20
TORSDOF 7
ENDMDL
MODEL 9
REMARK VINA RESULT:      -7.9      5.193      8.302
REMARK  7 active torsions:
REMARK  status: ('A' for Active; 'I' for Inactive)
REMARK    1  A    between atoms: C_6  and  C_7 
REMARK    2  A    between atoms: N_13  and  C_15 
REMARK    3  A    between atoms: C_15  and  C_16 
REMARK    4  A    between atoms: C_16  and  N_17 
REMARK       I    between atoms: N_17  and  C_18 
REMARK    5  A    between atoms: C_18  and  C_19 
REMARK    6  A    between atoms: C_19  and  N_20 
REMARK    7  A    between atoms: C_19  and  C_27 
ROOT
HETATM    1  C   UNL     1      40.497 -15.215   4.231  1.00  0.00     0.150 C 
ENDROOT
BRANCH   1   2
HETATM    2  C   UNL     1      41.213 -16.578   4.097  1.00  0.00     0.255 C 
BRANCH   2   3
HETATM    3  N   UNL     1      42.603 -16.474   3.492  1.00  0.00    -0.063 N 
HETATM    4  C   UNL     1      43.168 -17.753   2.864  1.00  0.00     0.272 C 
HETATM    5  C   UNL     1      43.476 -18.894   3.872  1.00  0.00     0.188 C 
HETATM    6  O   UNL     1      44.578 -18.513   4.716  1.00  0.00    -0.339 OA
HETATM    7  C   UNL     1      44.155 -17.874   5.847  1.00  0.00     0.077 A 
HETATM    8  C   UNL     1      43.681 -16.561   5.785  1.00  0.00     0.001 A 
HETATM    9  C   UNL     1      44.270 -18.546   7.061  1.00  0.00     0.037 A 
HETATM   10  C   UNL     1      43.287 -15.932   6.975  1.00  0.00     0.012 A 
HETATM   11  C   UNL     1      43.599 -15.848   4.469  1.00  0.00     0.276 C 
HETATM   12  C   UNL     1      43.377 -16.609   8.193  1.00  0.00     0.001 A 
HETATM   13  C   UNL     1      43.869 -17.913   8.236  1.00  0.00     0.003 A 
HETATM   14  H   UNL     1      42.553 -15.790   2.725  1.00  0.00     0.280 HD
BRANCH   5  15
HETATM   15  C   UNL     1      43.819 -20.157   3.114  1.00  0.00    -0.020 A 
HETATM   16  C   UNL     1      43.410 -20.433   1.820  1.00  0.00     0.059 A 
HETATM   17  S   UNL     1      43.991 -21.934   1.241  1.00  0.00    -0.113 SA
HETATM   18  C   UNL     1      44.780 -22.260   2.720  1.00  0.00     0.050 A 
HETATM   19  C   UNL     1      44.613 -21.239   3.629  1.00  0.00     0.017 A 
ENDBRANCH   5  15
ENDBRANCH   2   3
ENDBRANCH   1   2
BRANCH   1  20
HETATM   20  N   UNL     1      40.564 -14.374   3.031  1.00  0.00    -0.357 N 
HETATM   21  C   UNL     1      39.658 -14.521   1.991  1.00  0.00     0.253 C 
HETATM   22  O   UNL     1      38.870 -15.464   1.974  1.00  0.00    -0.271 OA
HETATM   23  H   UNL     1      41.028 -13.473   3.141  1.00  0.00     0.162 HD
BRANCH  21  24
HETATM   24  C   UNL     1      39.742 -13.467   0.833  1.00  0.00     0.314 C 
BRANCH  24  25
HETATM   25  N   UNL     1      39.903 -14.059  -0.584  1.00  0.00    -0.050 N 
HETATM   26  H   UNL     1      39.025 -14.553  -0.784  1.00  0.00     0.281 HD
HETATM   27  C   UNL     1      40.059 -12.987  -1.662  1.00  0.00     0.262 C 
HETATM   28  C   UNL     1      40.106 -13.644  -3.045  1.00  0.00     0.195 C 
HETATM   29  O   UNL     1      41.174 -14.592  -3.114  1.00  0.00    -0.388 OA
HETATM   30  C   UNL     1      41.008 -15.655  -2.170  1.00  0.00     0.195 C 
HETATM   31  C   UNL     1      41.008 -15.113  -0.734  1.00  0.00     0.262 C 
ENDBRANCH  24  25
BRANCH  24  32
HETATM   32  C   UNL     1      38.640 -12.438   0.891  1.00  0.00    -0.001 A 
HETATM   33  C   UNL     1      38.860 -11.145   1.360  1.00  0.00     0.126 A 
HETATM   34  N   UNL     1      37.901 -10.204   1.444  1.00  0.00    -0.272 NA
HETATM   35  C   UNL     1      36.652 -10.545   1.062  1.00  0.00     0.116 A 
HETATM   36  C   UNL     1      36.323 -11.803   0.593  1.00  0.00     0.020 A 
HETATM   37  C   UNL     1      37.329 -12.762   0.508  1.00  0.00     0.012 A 
ENDBRANCH  24  32
ENDBRANCH  21  24
ENDBRANCH   1  20
TORSDOF 7
ENDMDL
MODEL 10
REMARK VINA RESULT:      -7.8      5.646      8.949
REMARK  7 active torsions:
REMARK  status: ('A' for Active; 'I' for Inactive)
REMARK    1  A    between atoms: C_6  and  C_7 
REMARK    2  A    between atoms: N_13  and  C_15 
REMARK    3  A    between atoms: C_15  and  C_16 
REMARK    4  A    between atoms: C_16  and  N_17 
REMARK       I    between atoms: N_17  and  C_18 
REMARK    5  A    between atoms: C_18  and  C_19 
REMARK    6  A    between atoms: C_19  and  N_20 
REMARK    7  A    between atoms: C_19  and  C_27 
ROOT
HETATM    1  C   UNL     1      41.419 -15.822  -0.263  1.00  0.00     0.150 C 
ENDROOT
BRANCH   1   2
HETATM    2  C   UNL     1      41.603 -16.149   1.236  1.00  0.00     0.255 C 
BRANCH   2   3
HETATM    3  N   UNL     1      43.057 -16.166   1.678  1.00  0.00    -0.063 N 
HETATM    4  C   UNL     1      43.701 -17.547   1.840  1.00  0.00     0.272 C 
HETATM    5  C   UNL     1      43.130 -18.401   3.005  1.00  0.00     0.188 C 
HETATM    6  O   UNL     1      43.484 -17.803   4.266  1.00  0.00    -0.339 OA
HETATM    7  C   UNL     1      42.536 -16.917   4.691  1.00  0.00     0.077 A 
HETATM    8  C   UNL     1      42.404 -15.668   4.076  1.00  0.00     0.001 A 
HETATM    9  C   UNL     1      41.756 -17.269   5.789  1.00  0.00     0.037 A 
HETATM   10  C   UNL     1      41.440 -14.776   4.567  1.00  0.00     0.012 A 
HETATM   11  C   UNL     1      43.281 -15.300   2.918  1.00  0.00     0.276 C 
HETATM   12  C   UNL     1      40.636 -15.134   5.651  1.00  0.00     0.001 A 
HETATM   13  C   UNL     1      40.795 -16.377   6.262  1.00  0.00     0.003 A 
HETATM   14  H   UNL     1      43.605 -15.691   0.948  1.00  0.00     0.280 HD
BRANCH   5  15
HETATM   15  C   UNL     1      43.692 -19.804   2.925  1.00  0.00    -0.020 A 
HETATM   16  C   UNL     1      44.375 -20.437   3.949  1.00  0.00     0.059 A 
HETATM   17  S   UNL     1      44.854 -22.029   3.550  1.00  0.00    -0.113 SA
HETATM   18  C   UNL     1      44.183 -21.896   1.986  1.00  0.00     0.050 A 
HETATM   19  C   UNL     1      43.595 -20.668   1.780  1.00  0.00     0.017 A 
ENDBRANCH   5  15
ENDBRANCH   2   3
ENDBRANCH   1   2
BRANCH   1  20
HETATM   20  N   UNL     1      40.384 -14.822  -0.543  1.00  0.00    -0.357 N 
HETATM   21  C   UNL     1      40.613 -13.766  -1.411  1.00  0.00     0.253 C 
HETATM   22  O   UNL     1      41.740 -13.546  -1.849  1.00  0.00    -0.271 OA
HETATM   23  H   UNL     1      39.421 -15.120  -0.392  1.00  0.00     0.162 HD
BRANCH  21  24
HETATM   24  C   UNL     1      39.384 -12.850  -1.743  1.00  0.00     0.314 C 
BRANCH  24  25
HETATM   25  N   UNL     1      38.244 -13.538  -2.525  1.00  0.00    -0.050 N 
HETATM   26  H   UNL     1      37.523 -13.767  -1.829  1.00  0.00     0.281 HD
HETATM   27  C   UNL     1      37.586 -12.615  -3.551  1.00  0.00     0.262 C 
HETATM   28  C   UNL     1      36.401 -13.331  -4.207  1.00  0.00     0.195 C 
HETATM   29  O   UNL     1      36.828 -14.549  -4.821  1.00  0.00    -0.388 OA
HETATM   30  C   UNL     1      37.372 -15.466  -3.867  1.00  0.00     0.195 C 
HETATM   31  C   UNL     1      38.612 -14.872  -3.185  1.00  0.00     0.262 C 
ENDBRANCH  24  25
BRANCH  24  32
HETATM   32  C   UNL     1      38.867 -12.098  -0.540  1.00  0.00    -0.001 A 
HETATM   33  C   UNL     1      39.507 -10.963  -0.047  1.00  0.00     0.126 A 
HETATM   34  N   UNL     1      39.090 -10.275   1.031  1.00  0.00    -0.272 NA
HETATM   35  C   UNL     1      37.992 -10.725   1.676  1.00  0.00     0.116 A 
HETATM   36  C   UNL     1      37.289 -11.847   1.279  1.00  0.00     0.020 A 
HETATM   37  C   UNL     1      37.734 -12.543   0.157  1.00  0.00     0.012 A 
ENDBRANCH  24  32
ENDBRANCH  21  24
ENDBRANCH   1  20
TORSDOF 7
ENDMDL
