MODEL 1
REMARK VINA RESULT:      -9.0      0.000      0.000
REMARK  2 active torsions:
REMARK  status: ('A' for Active; 'I' for Inactive)
REMARK    1  A    between atoms: C_4  and  C_5 
REMARK       I    between atoms: C_5  and  N_6 
REMARK    2  A    between atoms: N_6  and  N_7 
ROOT
HETATM    1  N   UNL     1      43.961 -15.731   6.804  1.00  0.00    -0.282 N 
HETATM    2  C   UNL     1      43.448 -15.778   5.579  1.00  0.00     0.127 C 
HETATM    3  C   UNL     1      43.663 -16.995   4.752  1.00  0.00     0.015 A 
HETATM    4  C   UNL     1      43.543 -16.893   3.351  1.00  0.00    -0.042 A 
HETATM    5  C   UNL     1      43.776 -18.002   2.529  1.00  0.00     0.008 A 
HETATM    6  C   UNL     1      44.092 -19.233   3.097  1.00  0.00     0.001 A 
HETATM    7  C   UNL     1      44.176 -19.360   4.480  1.00  0.00     0.001 A 
HETATM    8  C   UNL     1      43.962 -18.252   5.304  1.00  0.00     0.016 A 
HETATM    9  C   UNL     1      43.190 -15.556   2.751  1.00  0.00     0.070 C 
HETATM   10  C   UNL     1      42.216 -14.794   3.666  1.00  0.00     0.035 C 
HETATM   11  C   UNL     1      42.009 -13.341   3.185  1.00  0.00     0.031 C 
HETATM   12  C   UNL     1      40.543 -13.249   2.781  1.00  0.00     0.002 C 
HETATM   13  C   UNL     1      39.853 -14.230   3.710  1.00  0.00     0.002 C 
HETATM   14  C   UNL     1      40.806 -15.417   3.717  1.00  0.00     0.031 C 
HETATM   15  N   UNL     1      42.763 -14.761   5.053  1.00  0.00    -0.365 N 
HETATM   16  H   UNL     1      42.608 -13.945   5.620  1.00  0.00     0.162 HD
HETATM   17  H   UNL     1      44.539 -16.528   7.096  1.00  0.00     0.188 HD
ENDROOT
BRANCH   1  18
HETATM   18  N   UNL     1      43.869 -14.753   7.701  1.00  0.00    -0.264 N 
HETATM   19  C   UNL     1      44.792 -13.726   7.546  1.00  0.00     0.270 C 
HETATM   20  O   UNL     1      45.605 -13.751   6.624  1.00  0.00    -0.266 OA
HETATM   21  H   UNL     1      43.131 -14.711   8.392  1.00  0.00     0.190 HD
BRANCH  19  22
HETATM   22  C   UNL     1      44.717 -12.594   8.500  1.00  0.00     0.033 A 
HETATM   23  C   UNL     1      45.811 -12.207   9.286  1.00  0.00     0.017 A 
HETATM   24  C   UNL     1      45.683 -11.136  10.173  1.00  0.00     0.001 A 
HETATM   25  C   UNL     1      44.472 -10.448  10.274  1.00  0.00     0.000 A 
HETATM   26  C   UNL     1      43.389 -10.821   9.480  1.00  0.00     0.001 A 
HETATM   27  C   UNL     1      43.510 -11.887   8.590  1.00  0.00     0.017 A 
ENDBRANCH  19  22
ENDBRANCH   1  18
TORSDOF 2
ENDMDL
MODEL 2
REMARK VINA RESULT:      -8.7      3.773      7.345
REMARK  2 active torsions:
REMARK  status: ('A' for Active; 'I' for Inactive)
REMARK    1  A    between atoms: C_4  and  C_5 
REMARK       I    between atoms: C_5  and  N_6 
REMARK    2  A    between atoms: N_6  and  N_7 
ROOT
HETATM    1  N   UNL     1      42.071 -17.248   1.072  1.00  0.00    -0.282 N 
HETATM    2  C   UNL     1      41.827 -16.021   1.520  1.00  0.00     0.127 C 
HETATM    3  C   UNL     1      41.520 -14.943   0.541  1.00  0.00     0.015 A 
HETATM    4  C   UNL     1      41.713 -13.601   0.928  1.00  0.00    -0.042 A 
HETATM    5  C   UNL     1      41.477 -12.556   0.027  1.00  0.00     0.008 A 
HETATM    6  C   UNL     1      41.007 -12.834  -1.253  1.00  0.00     0.001 A 
HETATM    7  C   UNL     1      40.775 -14.151  -1.638  1.00  0.00     0.001 A 
HETATM    8  C   UNL     1      41.027 -15.200  -0.749  1.00  0.00     0.016 A 
HETATM    9  C   UNL     1      42.211 -13.315   2.321  1.00  0.00     0.070 C 
HETATM   10  C   UNL     1      41.632 -14.329   3.321  1.00  0.00     0.035 C 
HETATM   11  C   UNL     1      42.292 -14.193   4.710  1.00  0.00     0.031 C 
HETATM   12  C   UNL     1      41.179 -13.743   5.650  1.00  0.00     0.002 C 
HETATM   13  C   UNL     1      39.935 -14.377   5.059  1.00  0.00     0.002 C 
HETATM   14  C   UNL     1      40.118 -14.156   3.564  1.00  0.00     0.031 C 
HETATM   15  N   UNL     1      41.869 -15.713   2.817  1.00  0.00    -0.365 N 
HETATM   16  H   UNL     1      42.063 -16.447   3.477  1.00  0.00     0.162 HD
HETATM   17  H   UNL     1      42.094 -17.376   0.053  1.00  0.00     0.188 HD
ENDROOT
BRANCH   1  18
HETATM   18  N   UNL     1      42.346 -18.344   1.776  1.00  0.00    -0.264 N 
HETATM   19  C   UNL     1      43.699 -18.605   1.951  1.00  0.00     0.270 C 
HETATM   20  O   UNL     1      44.547 -17.845   1.487  1.00  0.00    -0.266 OA
HETATM   21  H   UNL     1      41.630 -18.900   2.225  1.00  0.00     0.190 HD
BRANCH  19  22
HETATM   22  C   UNL     1      44.063 -19.798   2.752  1.00  0.00     0.033 A 
HETATM   23  C   UNL     1      44.390 -19.712   4.112  1.00  0.00     0.017 A 
HETATM   24  C   UNL     1      44.731 -20.868   4.818  1.00  0.00     0.001 A 
HETATM   25  C   UNL     1      44.741 -22.106   4.174  1.00  0.00     0.000 A 
HETATM   26  C   UNL     1      44.399 -22.196   2.825  1.00  0.00     0.001 A 
HETATM   27  C   UNL     1      44.054 -21.046   2.115  1.00  0.00     0.017 A 
ENDBRANCH  19  22
ENDBRANCH   1  18
TORSDOF 2
ENDMDL
MODEL 3
REMARK VINA RESULT:      -8.6      3.444      6.482
REMARK  2 active torsions:
REMARK  status: ('A' for Active; 'I' for Inactive)
REMARK    1  A    between atoms: C_4  and  C_5 
REMARK       I    between atoms: C_5  and  N_6 
REMARK    2  A    between atoms: N_6  and  N_7 
ROOT
HETATM    1  N   UNL     1      41.219 -17.262   2.629  1.00  0.00    -0.282 N 
HETATM    2  C   UNL     1      42.068 -17.645   3.578  1.00  0.00     0.127 C 
HETATM    3  C   UNL     1      43.002 -18.769   3.298  1.00  0.00     0.015 A 
HETATM    4  C   UNL     1      43.559 -19.473   4.386  1.00  0.00    -0.042 A 
HETATM    5  C   UNL     1      44.412 -20.562   4.172  1.00  0.00     0.008 A 
HETATM    6  C   UNL     1      44.750 -20.936   2.874  1.00  0.00     0.001 A 
HETATM    7  C   UNL     1      44.239 -20.227   1.791  1.00  0.00     0.001 A 
HETATM    8  C   UNL     1      43.373 -19.150   1.998  1.00  0.00     0.016 A 
HETATM    9  C   UNL     1      43.193 -19.049   5.785  1.00  0.00     0.070 C 
HETATM   10  C   UNL     1      43.025 -17.523   5.861  1.00  0.00     0.035 C 
HETATM   11  C   UNL     1      42.441 -17.086   7.222  1.00  0.00     0.031 C 
HETATM   12  C   UNL     1      43.534 -16.259   7.890  1.00  0.00     0.002 C 
HETATM   13  C   UNL     1      44.257 -15.615   6.723  1.00  0.00     0.002 C 
HETATM   14  C   UNL     1      44.351 -16.750   5.713  1.00  0.00     0.031 C 
HETATM   15  N   UNL     1      42.099 -17.072   4.781  1.00  0.00    -0.365 N 
HETATM   16  H   UNL     1      41.475 -16.304   4.962  1.00  0.00     0.162 HD
HETATM   17  H   UNL     1      41.213 -17.811   1.761  1.00  0.00     0.188 HD
ENDROOT
BRANCH   1  18
HETATM   18  N   UNL     1      40.323 -16.279   2.671  1.00  0.00    -0.264 N 
HETATM   19  C   UNL     1      40.472 -15.308   1.689  1.00  0.00     0.270 C 
HETATM   20  O   UNL     1      41.369 -15.396   0.853  1.00  0.00    -0.266 OA
HETATM   21  H   UNL     1      39.540 -16.279   3.311  1.00  0.00     0.190 HD
BRANCH  19  22
HETATM   22  C   UNL     1      39.483 -14.203   1.670  1.00  0.00     0.033 A 
HETATM   23  C   UNL     1      38.361 -14.221   0.830  1.00  0.00     0.017 A 
HETATM   24  C   UNL     1      37.464 -13.151   0.849  1.00  0.00     0.001 A 
HETATM   25  C   UNL     1      37.679 -12.069   1.705  1.00  0.00     0.000 A 
HETATM   26  C   UNL     1      38.785 -12.058   2.553  1.00  0.00     0.001 A 
HETATM   27  C   UNL     1      39.684 -13.125   2.542  1.00  0.00     0.017 A 
ENDBRANCH  19  22
ENDBRANCH   1  18
TORSDOF 2
ENDMDL
MODEL 4
REMARK VINA RESULT:      -8.6      5.130      7.920
REMARK  2 active torsions:
REMARK  status: ('A' for Active; 'I' for Inactive)
REMARK    1  A    between atoms: C_4  and  C_5 
REMARK       I    between atoms: C_5  and  N_6 
REMARK    2  A    between atoms: N_6  and  N_7 
ROOT
HETATM    1  N   UNL     1      40.712 -15.922   2.094  1.00  0.00    -0.282 N 
HETATM    2  C   UNL     1      40.344 -15.069   1.145  1.00  0.00     0.127 C 
HETATM    3  C   UNL     1      39.573 -13.854   1.526  1.00  0.00     0.015 A 
HETATM    4  C   UNL     1      38.799 -13.206   0.541  1.00  0.00    -0.042 A 
HETATM    5  C   UNL     1      38.026 -12.084   0.862  1.00  0.00     0.008 A 
HETATM    6  C   UNL     1      38.047 -11.573   2.157  1.00  0.00     0.001 A 
HETATM    7  C   UNL     1      38.836 -12.178   3.131  1.00  0.00     0.001 A 
HETATM    8  C   UNL     1      39.596 -13.309   2.820  1.00  0.00     0.016 A 
HETATM    9  C   UNL     1      38.795 -13.764  -0.859  1.00  0.00     0.070 C 
HETATM   10  C   UNL     1      40.178 -14.334  -1.217  1.00  0.00     0.035 C 
HETATM   11  C   UNL     1      40.142 -15.103  -2.556  1.00  0.00     0.031 C 
HETATM   12  C   UNL     1      41.037 -14.315  -3.504  1.00  0.00     0.002 C 
HETATM   13  C   UNL     1      42.084 -13.709  -2.588  1.00  0.00     0.002 C 
HETATM   14  C   UNL     1      41.263 -13.251  -1.391  1.00  0.00     0.031 C 
HETATM   15  N   UNL     1      40.621 -15.271  -0.144  1.00  0.00    -0.365 N 
HETATM   16  H   UNL     1      41.153 -16.086  -0.396  1.00  0.00     0.162 HD
HETATM   17  H   UNL     1      40.388 -15.725   3.049  1.00  0.00     0.188 HD
ENDROOT
BRANCH   1  18
HETATM   18  N   UNL     1      41.413 -17.046   1.967  1.00  0.00    -0.264 N 
HETATM   19  C   UNL     1      42.237 -17.349   3.044  1.00  0.00     0.270 C 
HETATM   20  O   UNL     1      42.273 -16.614   4.029  1.00  0.00    -0.266 OA
HETATM   21  H   UNL     1      41.295 -17.680   1.187  1.00  0.00     0.190 HD
BRANCH  19  22
HETATM   22  C   UNL     1      43.019 -18.606   2.970  1.00  0.00     0.033 A 
HETATM   23  C   UNL     1      42.924 -19.481   1.879  1.00  0.00     0.017 A 
HETATM   24  C   UNL     1      43.681 -20.654   1.863  1.00  0.00     0.001 A 
HETATM   25  C   UNL     1      44.535 -20.953   2.926  1.00  0.00     0.000 A 
HETATM   26  C   UNL     1      44.645 -20.075   4.003  1.00  0.00     0.001 A 
HETATM   27  C   UNL     1      43.894 -18.900   4.024  1.00  0.00     0.017 A 
ENDBRANCH  19  22
ENDBRANCH   1  18
TORSDOF 2
ENDMDL
MODEL 5
REMARK VINA RESULT:      -8.6      3.797      7.411
REMARK  2 active torsions:
REMARK  status: ('A' for Active; 'I' for Inactive)
REMARK    1  A    between atoms: C_4  and  C_5 
REMARK       I    between atoms: C_5  and  N_6 
REMARK    2  A    between atoms: N_6  and  N_7 
ROOT
HETATM    1  N   UNL     1      41.660 -17.870   1.473  1.00  0.00    -0.282 N 
HETATM    2  C   UNL     1      41.903 -17.528   2.734  1.00  0.00     0.127 C 
HETATM    3  C   UNL     1      42.789 -18.394   3.559  1.00  0.00     0.015 A 
HETATM    4  C   UNL     1      42.692 -18.319   4.963  1.00  0.00    -0.042 A 
HETATM    5  C   UNL     1      43.476 -19.143   5.780  1.00  0.00     0.008 A 
HETATM    6  C   UNL     1      44.392 -20.020   5.206  1.00  0.00     0.001 A 
HETATM    7  C   UNL     1      44.528 -20.078   3.822  1.00  0.00     0.001 A 
HETATM    8  C   UNL     1      43.734 -19.270   3.002  1.00  0.00     0.016 A 
HETATM    9  C   UNL     1      41.703 -17.357   5.570  1.00  0.00     0.070 C 
HETATM   10  C   UNL     1      41.604 -16.078   4.722  1.00  0.00     0.035 C 
HETATM   11  C   UNL     1      40.446 -15.174   5.197  1.00  0.00     0.031 C 
HETATM   12  C   UNL     1      41.107 -13.900   5.711  1.00  0.00     0.002 C 
HETATM   13  C   UNL     1      42.349 -13.769   4.851  1.00  0.00     0.002 C 
HETATM   14  C   UNL     1      42.869 -15.198   4.787  1.00  0.00     0.031 C 
HETATM   15  N   UNL     1      41.363 -16.446   3.297  1.00  0.00    -0.365 N 
HETATM   16  H   UNL     1      40.776 -15.856   2.732  1.00  0.00     0.162 HD
HETATM   17  H   UNL     1      42.056 -18.761   1.148  1.00  0.00     0.188 HD
ENDROOT
BRANCH   1  18
HETATM   18  N   UNL     1      40.918 -17.231   0.572  1.00  0.00    -0.264 N 
HETATM   19  C   UNL     1      41.482 -16.066   0.068  1.00  0.00     0.270 C 
HETATM   20  O   UNL     1      42.594 -15.698   0.441  1.00  0.00    -0.266 OA
HETATM   21  H   UNL     1      40.048 -17.605   0.214  1.00  0.00     0.190 HD
BRANCH  19  22
HETATM   22  C   UNL     1      40.712 -15.328  -0.962  1.00  0.00     0.033 A 
HETATM   23  C   UNL     1      39.842 -14.279  -0.633  1.00  0.00     0.017 A 
HETATM   24  C   UNL     1      39.137 -13.621  -1.643  1.00  0.00     0.001 A 
HETATM   25  C   UNL     1      39.302 -14.000  -2.977  1.00  0.00     0.000 A 
HETATM   26  C   UNL     1      40.181 -15.031  -3.307  1.00  0.00     0.001 A 
HETATM   27  C   UNL     1      40.890 -15.691  -2.303  1.00  0.00     0.017 A 
ENDBRANCH  19  22
ENDBRANCH   1  18
TORSDOF 2
ENDMDL
MODEL 6
REMARK VINA RESULT:      -8.4      3.468      7.114
REMARK  2 active torsions:
REMARK  status: ('A' for Active; 'I' for Inactive)
REMARK    1  A    between atoms: C_4  and  C_5 
REMARK       I    between atoms: C_5  and  N_6 
REMARK    2  A    between atoms: N_6  and  N_7 
ROOT
HETATM    1  N   UNL     1      40.479 -16.818   1.655  1.00  0.00    -0.282 N 
HETATM    2  C   UNL     1      41.353 -16.790   2.655  1.00  0.00     0.127 C 
HETATM    3  C   UNL     1      42.323 -17.909   2.797  1.00  0.00     0.015 A 
HETATM    4  C   UNL     1      42.919 -18.135   4.054  1.00  0.00    -0.042 A 
HETATM    5  C   UNL     1      43.807 -19.200   4.245  1.00  0.00     0.008 A 
HETATM    6  C   UNL     1      44.141 -20.027   3.176  1.00  0.00     0.001 A 
HETATM    7  C   UNL     1      43.591 -19.794   1.919  1.00  0.00     0.001 A 
HETATM    8  C   UNL     1      42.690 -18.743   1.727  1.00  0.00     0.016 A 
HETATM    9  C   UNL     1      42.557 -17.225   5.200  1.00  0.00     0.070 C 
HETATM   10  C   UNL     1      42.335 -15.788   4.699  1.00  0.00     0.035 C 
HETATM   11  C   UNL     1      41.754 -14.886   5.809  1.00  0.00     0.031 C 
HETATM   12  C   UNL     1      42.825 -13.838   6.088  1.00  0.00     0.002 C 
HETATM   13  C   UNL     1      43.510 -13.662   4.746  1.00  0.00     0.002 C 
HETATM   14  C   UNL     1      43.631 -15.091   4.236  1.00  0.00     0.031 C 
HETATM   15  N   UNL     1      41.379 -15.805   3.553  1.00  0.00    -0.365 N 
HETATM   16  H   UNL     1      40.731 -15.043   3.447  1.00  0.00     0.162 HD
HETATM   17  H   UNL     1      40.480 -17.654   1.058  1.00  0.00     0.188 HD
ENDROOT
BRANCH   1  18
HETATM   18  N   UNL     1      39.549 -15.917   1.346  1.00  0.00    -0.264 N 
HETATM   19  C   UNL     1      39.949 -14.951   0.431  1.00  0.00     0.270 C 
HETATM   20  O   UNL     1      41.082 -14.973  -0.046  1.00  0.00    -0.266 OA
HETATM   21  H   UNL     1      38.596 -15.976   1.681  1.00  0.00     0.190 HD
BRANCH  19  22
HETATM   22  C   UNL     1      38.944 -13.939   0.027  1.00  0.00     0.033 A 
HETATM   23  C   UNL     1      38.904 -13.402  -1.267  1.00  0.00     0.017 A 
HETATM   24  C   UNL     1      37.938 -12.447  -1.592  1.00  0.00     0.001 A 
HETATM   25  C   UNL     1      37.011 -12.032  -0.634  1.00  0.00     0.000 A 
HETATM   26  C   UNL     1      37.039 -12.578   0.648  1.00  0.00     0.001 A 
HETATM   27  C   UNL     1      37.999 -13.534   0.979  1.00  0.00     0.017 A 
ENDBRANCH  19  22
ENDBRANCH   1  18
TORSDOF 2
ENDMDL
MODEL 7
REMARK VINA RESULT:      -8.4      4.649      7.080
REMARK  2 active torsions:
REMARK  status: ('A' for Active; 'I' for Inactive)
REMARK    1  A    between atoms: C_4  and  C_5 
REMARK       I    between atoms: C_5  and  N_6 
REMARK    2  A    between atoms: N_6  and  N_7 
ROOT
HETATM    1  N   UNL     1      41.938 -16.916   0.471  1.00  0.00    -0.282 N 
HETATM    2  C   UNL     1      41.634 -15.623   0.434  1.00  0.00     0.127 C 
HETATM    3  C   UNL     1      41.349 -14.986  -0.881  1.00  0.00     0.015 A 
HETATM    4  C   UNL     1      41.480 -13.587  -0.999  1.00  0.00    -0.042 A 
HETATM    5  C   UNL     1      41.262 -12.949  -2.226  1.00  0.00     0.008 A 
HETATM    6  C   UNL     1      40.872 -13.692  -3.336  1.00  0.00     0.001 A 
HETATM    7  C   UNL     1      40.700 -15.069  -3.226  1.00  0.00     0.001 A 
HETATM    8  C   UNL     1      40.934 -15.714  -2.008  1.00  0.00     0.016 A 
HETATM    9  C   UNL     1      41.892 -12.795   0.215  1.00  0.00     0.070 C 
HETATM   10  C   UNL     1      41.289 -13.407   1.490  1.00  0.00     0.035 C 
HETATM   11  C   UNL     1      41.868 -12.748   2.761  1.00  0.00     0.031 C 
HETATM   12  C   UNL     1      40.692 -12.044   3.428  1.00  0.00     0.002 C 
HETATM   13  C   UNL     1      39.501 -12.906   3.058  1.00  0.00     0.002 C 
HETATM   14  C   UNL     1      39.760 -13.230   1.593  1.00  0.00     0.031 C 
HETATM   15  N   UNL     1      41.595 -14.866   1.532  1.00  0.00    -0.365 N 
HETATM   16  H   UNL     1      41.775 -15.303   2.420  1.00  0.00     0.162 HD
HETATM   17  H   UNL     1      42.020 -17.401  -0.430  1.00  0.00     0.188 HD
ENDROOT
BRANCH   1  18
HETATM   18  N   UNL     1      42.207 -17.670   1.534  1.00  0.00    -0.264 N 
HETATM   19  C   UNL     1      43.558 -17.861   1.792  1.00  0.00     0.270 C 
HETATM   20  O   UNL     1      44.411 -17.340   1.076  1.00  0.00    -0.266 OA
HETATM   21  H   UNL     1      41.488 -18.009   2.161  1.00  0.00     0.190 HD
BRANCH  19  22
HETATM   22  C   UNL     1      43.916 -18.669   2.982  1.00  0.00     0.033 A 
HETATM   23  C   UNL     1      44.383 -19.987   2.876  1.00  0.00     0.017 A 
HETATM   24  C   UNL     1      44.700 -20.705   4.031  1.00  0.00     0.001 A 
HETATM   25  C   UNL     1      44.561 -20.111   5.287  1.00  0.00     0.000 A 
HETATM   26  C   UNL     1      44.114 -18.795   5.393  1.00  0.00     0.001 A 
HETATM   27  C   UNL     1      43.798 -18.071   4.244  1.00  0.00     0.017 A 
ENDBRANCH  19  22
ENDBRANCH   1  18
TORSDOF 2
ENDMDL
MODEL 8
REMARK VINA RESULT:      -8.4      3.665      7.177
REMARK  2 active torsions:
REMARK  status: ('A' for Active; 'I' for Inactive)
REMARK    1  A    between atoms: C_4  and  C_5 
REMARK       I    between atoms: C_5  and  N_6 
REMARK    2  A    between atoms: N_6  and  N_7 
ROOT
HETATM    1  N   UNL     1      40.989 -16.214   4.191  1.00  0.00    -0.282 N 
HETATM    2  C   UNL     1      40.639 -15.141   3.489  1.00  0.00     0.127 C 
HETATM    3  C   UNL     1      40.161 -13.931   4.212  1.00  0.00     0.015 A 
HETATM    4  C   UNL     1      39.376 -12.991   3.513  1.00  0.00    -0.042 A 
HETATM    5  C   UNL     1      38.870 -11.858   4.162  1.00  0.00     0.008 A 
HETATM    6  C   UNL     1      39.175 -11.630   5.501  1.00  0.00     0.001 A 
HETATM    7  C   UNL     1      39.980 -12.528   6.194  1.00  0.00     0.001 A 
HETATM    8  C   UNL     1      40.473 -13.670   5.556  1.00  0.00     0.016 A 
HETATM    9  C   UNL     1      39.064 -13.245   2.061  1.00  0.00     0.070 C 
HETATM   10  C   UNL     1      40.255 -13.924   1.364  1.00  0.00     0.035 C 
HETATM   11  C   UNL     1      39.884 -14.391  -0.061  1.00  0.00     0.031 C 
HETATM   12  C   UNL     1      40.753 -13.564  -1.001  1.00  0.00     0.002 C 
HETATM   13  C   UNL     1      42.014 -13.316  -0.197  1.00  0.00     0.002 C 
HETATM   14  C   UNL     1      41.476 -12.997   1.190  1.00  0.00     0.031 C 
HETATM   15  N   UNL     1      40.680 -15.114   2.157  1.00  0.00    -0.365 N 
HETATM   16  H   UNL     1      41.017 -15.929   1.672  1.00  0.00     0.162 HD
HETATM   17  H   UNL     1      40.851 -16.170   5.208  1.00  0.00     0.188 HD
ENDROOT
BRANCH   1  18
HETATM   18  N   UNL     1      41.453 -17.378   3.742  1.00  0.00    -0.264 N 
HETATM   19  C   UNL     1      42.811 -17.586   3.948  1.00  0.00     0.270 C 
HETATM   20  O   UNL     1      43.493 -16.739   4.521  1.00  0.00    -0.266 OA
HETATM   21  H   UNL     1      40.852 -18.096   3.359  1.00  0.00     0.190 HD
BRANCH  19  22
HETATM   22  C   UNL     1      43.377 -18.880   3.495  1.00  0.00     0.033 A 
HETATM   23  C   UNL     1      44.258 -19.627   4.289  1.00  0.00     0.017 A 
HETATM   24  C   UNL     1      44.765 -20.837   3.810  1.00  0.00     0.001 A 
HETATM   25  C   UNL     1      44.392 -21.305   2.549  1.00  0.00     0.000 A 
HETATM   26  C   UNL     1      43.501 -20.571   1.766  1.00  0.00     0.001 A 
HETATM   27  C   UNL     1      42.989 -19.364   2.239  1.00  0.00     0.017 A 
ENDBRANCH  19  22
ENDBRANCH   1  18
TORSDOF 2
ENDMDL
MODEL 9
REMARK VINA RESULT:      -8.2      1.974      3.962
REMARK  2 active torsions:
REMARK  status: ('A' for Active; 'I' for Inactive)
REMARK    1  A    between atoms: C_4  and  C_5 
REMARK       I    between atoms: C_5  and  N_6 
REMARK    2  A    between atoms: N_6  and  N_7 
ROOT
HETATM    1  N   UNL     1      42.816 -13.313   6.219  1.00  0.00    -0.282 N 
HETATM    2  C   UNL     1      42.723 -14.590   5.866  1.00  0.00     0.127 C 
HETATM    3  C   UNL     1      42.179 -14.931   4.524  1.00  0.00     0.015 A 
HETATM    4  C   UNL     1      41.653 -16.222   4.313  1.00  0.00    -0.042 A 
HETATM    5  C   UNL     1      41.093 -16.574   3.079  1.00  0.00     0.008 A 
HETATM    6  C   UNL     1      41.088 -15.658   2.031  1.00  0.00     0.001 A 
HETATM    7  C   UNL     1      41.638 -14.393   2.211  1.00  0.00     0.001 A 
HETATM    8  C   UNL     1      42.182 -14.029   3.447  1.00  0.00     0.016 A 
HETATM    9  C   UNL     1      41.675 -17.207   5.454  1.00  0.00     0.070 C 
HETATM   10  C   UNL     1      42.944 -17.020   6.303  1.00  0.00     0.035 C 
HETATM   11  C   UNL     1      42.887 -17.864   7.596  1.00  0.00     0.031 C 
HETATM   12  C   UNL     1      44.012 -18.884   7.468  1.00  0.00     0.002 C 
HETATM   13  C   UNL     1      45.063 -18.157   6.650  1.00  0.00     0.002 C 
HETATM   14  C   UNL     1      44.236 -17.455   5.582  1.00  0.00     0.031 C 
HETATM   15  N   UNL     1      43.080 -15.584   6.681  1.00  0.00    -0.365 N 
HETATM   16  H   UNL     1      43.460 -15.349   7.583  1.00  0.00     0.162 HD
HETATM   17  H   UNL     1      42.445 -12.619   5.558  1.00  0.00     0.188 HD
ENDROOT
BRANCH   1  18
HETATM   18  N   UNL     1      43.286 -12.801   7.355  1.00  0.00    -0.264 N 
HETATM   19  C   UNL     1      42.639 -11.653   7.793  1.00  0.00     0.270 C 
HETATM   20  O   UNL     1      41.696 -11.186   7.158  1.00  0.00    -0.266 OA
HETATM   21  H   UNL     1      44.001 -13.258   7.906  1.00  0.00     0.190 HD
BRANCH  19  22
HETATM   22  C   UNL     1      43.101 -11.057   9.069  1.00  0.00     0.033 A 
HETATM   23  C   UNL     1      44.389 -11.284   9.576  1.00  0.00     0.017 A 
HETATM   24  C   UNL     1      44.770 -10.702  10.786  1.00  0.00     0.001 A 
HETATM   25  C   UNL     1      43.876  -9.890  11.487  1.00  0.00     0.000 A 
HETATM   26  C   UNL     1      42.602  -9.649  10.976  1.00  0.00     0.001 A 
HETATM   27  C   UNL     1      42.215 -10.225   9.767  1.00  0.00     0.017 A 
ENDBRANCH  19  22
ENDBRANCH   1  18
TORSDOF 2
ENDMDL
MODEL 10
REMARK VINA RESULT:      -8.1      3.369      6.947
REMARK  2 active torsions:
REMARK  status: ('A' for Active; 'I' for Inactive)
REMARK    1  A    between atoms: C_4  and  C_5 
REMARK       I    between atoms: C_5  and  N_6 
REMARK    2  A    between atoms: N_6  and  N_7 
ROOT
HETATM    1  N   UNL     1      43.602 -17.959   2.263  1.00  0.00    -0.282 N 
HETATM    2  C   UNL     1      43.658 -17.977   3.591  1.00  0.00     0.127 C 
HETATM    3  C   UNL     1      43.996 -19.250   4.282  1.00  0.00     0.015 A 
HETATM    4  C   UNL     1      43.619 -19.410   5.631  1.00  0.00    -0.042 A 
HETATM    5  C   UNL     1      43.880 -20.606   6.311  1.00  0.00     0.008 A 
HETATM    6  C   UNL     1      44.554 -21.639   5.666  1.00  0.00     0.001 A 
HETATM    7  C   UNL     1      44.967 -21.482   4.346  1.00  0.00     0.001 A 
HETATM    8  C   UNL     1      44.693 -20.297   3.657  1.00  0.00     0.016 A 
HETATM    9  C   UNL     1      42.900 -18.278   6.320  1.00  0.00     0.070 C 
HETATM   10  C   UNL     1      43.426 -16.922   5.822  1.00  0.00     0.035 C 
HETATM   11  C   UNL     1      42.562 -15.754   6.346  1.00  0.00     0.031 C 
HETATM   12  C   UNL     1      43.478 -14.944   7.256  1.00  0.00     0.002 C 
HETATM   13  C   UNL     1      44.851 -15.132   6.639  1.00  0.00     0.002 C 
HETATM   14  C   UNL     1      44.864 -16.612   6.285  1.00  0.00     0.031 C 
HETATM   15  N   UNL     1      43.400 -16.897   4.330  1.00  0.00    -0.365 N 
HETATM   16  H   UNL     1      43.185 -16.035   3.859  1.00  0.00     0.162 HD
HETATM   17  H   UNL     1      43.739 -18.855   1.780  1.00  0.00     0.188 HD
ENDROOT
BRANCH   1  18
HETATM   18  N   UNL     1      43.337 -16.930   1.461  1.00  0.00    -0.264 N 
HETATM   19  C   UNL     1      42.028 -16.866   1.003  1.00  0.00     0.270 C 
HETATM   20  O   UNL     1      41.202 -17.708   1.350  1.00  0.00    -0.266 OA
HETATM   21  H   UNL     1      44.010 -16.200   1.267  1.00  0.00     0.190 HD
BRANCH  19  22
HETATM   22  C   UNL     1      41.668 -15.723   0.130  1.00  0.00     0.033 A 
HETATM   23  C   UNL     1      41.184 -15.903  -1.173  1.00  0.00     0.017 A 
HETATM   24  C   UNL     1      40.866 -14.790  -1.955  1.00  0.00     0.001 A 
HETATM   25  C   UNL     1      41.022 -13.502  -1.439  1.00  0.00     0.000 A 
HETATM   26  C   UNL     1      41.486 -13.322  -0.137  1.00  0.00     0.001 A 
HETATM   27  C   UNL     1      41.803 -14.429   0.650  1.00  0.00     0.017 A 
ENDBRANCH  19  22
ENDBRANCH   1  18
TORSDOF 2
ENDMDL
