MODEL 1
REMARK VINA RESULT:      -9.1      0.000      0.000
REMARK  4 active torsions:
REMARK  status: ('A' for Active; 'I' for Inactive)
REMARK    1  A    between atoms: O_2  and  C_3 
REMARK    2  A    between atoms: C_4  and  C_5 
REMARK    3  A    between atoms: C_9  and  C_10 
REMARK       I    between atoms: C_10  and  N_11 
REMARK    4  A    between atoms: N_11  and  N_12 
ROOT
HETATM    1  C   UNL     1      45.161 -13.566   7.354  1.00  0.00     0.289 C 
HETATM    2  N   UNL     1      44.255 -14.614   7.375  1.00  0.00    -0.241 N 
HETATM    3  O   UNL     1      46.089 -13.475   6.553  1.00  0.00    -0.264 OA
HETATM    4  H   UNL     1      43.491 -14.627   8.050  1.00  0.00     0.192 HD
ENDROOT
BRANCH   1   5
HETATM    5  C   UNL     1      44.932 -12.544   8.344  1.00  0.00     0.121 A 
HETATM    6  N   UNL     1      45.913 -11.648   8.672  1.00  0.00    -0.272 N 
HETATM    7  N   UNL     1      45.542 -10.724   9.569  1.00  0.00    -0.174 NA
HETATM    8  H   UNL     1      46.852 -11.614   8.288  1.00  0.00     0.189 HD
HETATM    9  C   UNL     1      44.284 -11.061   9.894  1.00  0.00     0.092 A 
HETATM   10  C   UNL     1      43.859 -12.192   9.138  1.00  0.00     0.071 A 
BRANCH   9  11
HETATM   11  C   UNL     1      43.494 -10.287  10.849  1.00  0.00     0.028 A 
HETATM   12  C   UNL     1      42.312  -9.619  10.486  1.00  0.00     0.080 A 
HETATM   13  C   UNL     1      41.589  -8.886  11.436  1.00  0.00     0.037 A 
HETATM   14  C   UNL     1      42.021  -8.839  12.761  1.00  0.00     0.003 A 
HETATM   15  C   UNL     1      43.184  -9.506  13.137  1.00  0.00     0.001 A 
HETATM   16  C   UNL     1      43.918 -10.222  12.187  1.00  0.00     0.017 A 
BRANCH  12  17
HETATM   17  O   UNL     1      41.906  -9.587   9.175  1.00  0.00    -0.355 OA
HETATM   18  C   UNL     1      40.590 -10.124   9.039  1.00  0.00     0.210 C 
ENDBRANCH  12  17
ENDBRANCH   9  11
ENDBRANCH   1   5
BRANCH   2  19
HETATM   19  N   UNL     1      44.339 -15.619   6.448  1.00  0.00    -0.165 NA
HETATM   20  C   UNL     1      44.117 -16.822   6.872  1.00  0.00     0.157 A 
HETATM   21  C   UNL     1      43.765 -17.284   8.289  1.00  0.00     0.277 A 
HETATM   22  C   UNL     1      44.146 -18.029   6.055  1.00  0.00     0.027 A 
HETATM   23  O   UNL     1      43.645 -16.547   9.245  1.00  0.00    -0.266 OA
HETATM   24  N   UNL     1      43.622 -18.652   8.208  1.00  0.00    -0.321 N 
HETATM   25  C   UNL     1      43.842 -19.092   6.904  1.00  0.00     0.048 A 
HETATM   26  H   UNL     1      43.385 -19.236   8.996  1.00  0.00     0.169 HD
HETATM   27  C   UNL     1      43.781 -20.387   6.434  1.00  0.00     0.030 A 
HETATM   28  C   UNL     1      44.037 -20.587   5.071  1.00  0.00     0.002 A 
HETATM   29  C   UNL     1      44.345 -19.506   4.219  1.00  0.00     0.001 A 
HETATM   30  C   UNL     1      44.402 -18.200   4.710  1.00  0.00     0.016 A 
ENDBRANCH   2  19
TORSDOF 4
ENDMDL
MODEL 2
REMARK VINA RESULT:      -9.0      6.847     10.889
REMARK  4 active torsions:
REMARK  status: ('A' for Active; 'I' for Inactive)
REMARK    1  A    between atoms: O_2  and  C_3 
REMARK    2  A    between atoms: C_4  and  C_5 
REMARK    3  A    between atoms: C_9  and  C_10 
REMARK       I    between atoms: C_10  and  N_11 
REMARK    4  A    between atoms: N_11  and  N_12 
ROOT
HETATM    1  C   UNL     1      41.146 -16.127   0.532  1.00  0.00     0.289 C 
HETATM    2  N   UNL     1      40.098 -15.848   1.394  1.00  0.00    -0.241 N 
HETATM    3  O   UNL     1      41.265 -15.636  -0.588  1.00  0.00    -0.264 OA
HETATM    4  H   UNL     1      40.061 -16.268   2.322  1.00  0.00     0.192 HD
ENDROOT
BRANCH   1   5
HETATM    5  C   UNL     1      42.134 -17.040   1.052  1.00  0.00     0.121 A 
HETATM    6  N   UNL     1      43.467 -16.840   0.821  1.00  0.00    -0.272 N 
HETATM    7  N   UNL     1      44.271 -17.739   1.407  1.00  0.00    -0.174 NA
HETATM    8  H   UNL     1      43.881 -16.084   0.284  1.00  0.00     0.189 HD
HETATM    9  C   UNL     1      43.431 -18.603   1.998  1.00  0.00     0.092 A 
HETATM   10  C   UNL     1      42.079 -18.193   1.809  1.00  0.00     0.071 A 
BRANCH   9  11
HETATM   11  C   UNL     1      43.909 -19.746   2.772  1.00  0.00     0.028 A 
HETATM   12  C   UNL     1      44.275 -19.643   4.124  1.00  0.00     0.080 A 
HETATM   13  C   UNL     1      44.731 -20.767   4.825  1.00  0.00     0.037 A 
HETATM   14  C   UNL     1      44.796 -22.008   4.192  1.00  0.00     0.003 A 
HETATM   15  C   UNL     1      44.426 -22.126   2.855  1.00  0.00     0.001 A 
HETATM   16  C   UNL     1      43.989 -21.003   2.148  1.00  0.00     0.017 A 
BRANCH  12  17
HETATM   17  O   UNL     1      44.292 -18.421   4.749  1.00  0.00    -0.355 OA
HETATM   18  C   UNL     1      45.077 -18.472   5.941  1.00  0.00     0.210 C 
ENDBRANCH  12  17
ENDBRANCH   9  11
ENDBRANCH   1   5
BRANCH   2  19
HETATM   19  N   UNL     1      39.125 -14.954   1.032  1.00  0.00    -0.165 NA
HETATM   20  C   UNL     1      39.051 -13.862   1.724  1.00  0.00     0.157 A 
HETATM   21  C   UNL     1      39.916 -13.423   2.908  1.00  0.00     0.277 A 
HETATM   22  C   UNL     1      38.100 -12.779   1.501  1.00  0.00     0.027 A 
HETATM   23  O   UNL     1      40.826 -14.074   3.377  1.00  0.00    -0.266 OA
HETATM   24  N   UNL     1      39.438 -12.184   3.278  1.00  0.00    -0.321 N 
HETATM   25  C   UNL     1      38.378 -11.803   2.457  1.00  0.00     0.048 A 
HETATM   26  H   UNL     1      39.821 -11.643   4.038  1.00  0.00     0.169 HD
HETATM   27  C   UNL     1      37.652 -10.632   2.514  1.00  0.00     0.030 A 
HETATM   28  C   UNL     1      36.626 -10.466   1.574  1.00  0.00     0.002 A 
HETATM   29  C   UNL     1      36.352 -11.459   0.610  1.00  0.00     0.001 A 
HETATM   30  C   UNL     1      37.097 -12.639   0.565  1.00  0.00     0.016 A 
ENDBRANCH   2  19
TORSDOF 4
ENDMDL
MODEL 3
REMARK VINA RESULT:      -8.9      1.733      2.315
REMARK  4 active torsions:
REMARK  status: ('A' for Active; 'I' for Inactive)
REMARK    1  A    between atoms: O_2  and  C_3 
REMARK    2  A    between atoms: C_4  and  C_5 
REMARK    3  A    between atoms: C_9  and  C_10 
REMARK       I    between atoms: C_10  and  N_11 
REMARK    4  A    between atoms: N_11  and  N_12 
ROOT
HETATM    1  C   UNL     1      45.094 -13.649   7.462  1.00  0.00     0.289 C 
HETATM    2  N   UNL     1      44.156 -14.667   7.528  1.00  0.00    -0.241 N 
HETATM    3  O   UNL     1      46.013 -13.613   6.648  1.00  0.00    -0.264 OA
HETATM    4  H   UNL     1      43.401 -14.636   8.212  1.00  0.00     0.192 HD
ENDROOT
BRANCH   1   5
HETATM    5  C   UNL     1      44.909 -12.590   8.421  1.00  0.00     0.121 A 
HETATM    6  N   UNL     1      45.865 -11.628   8.602  1.00  0.00    -0.272 N 
HETATM    7  N   UNL     1      45.535 -10.679   9.489  1.00  0.00    -0.174 NA
HETATM    8  H   UNL     1      46.757 -11.566   8.121  1.00  0.00     0.189 HD
HETATM    9  C   UNL     1      44.338 -11.063   9.959  1.00  0.00     0.092 A 
HETATM   10  C   UNL     1      43.903 -12.252   9.305  1.00  0.00     0.071 A 
BRANCH   9  11
HETATM   11  C   UNL     1      43.605 -10.281  10.953  1.00  0.00     0.028 A 
HETATM   12  C   UNL     1      42.446  -9.553  10.638  1.00  0.00     0.080 A 
HETATM   13  C   UNL     1      41.780  -8.816  11.624  1.00  0.00     0.037 A 
HETATM   14  C   UNL     1      42.245  -8.823  12.939  1.00  0.00     0.003 A 
HETATM   15  C   UNL     1      43.387  -9.550  13.268  1.00  0.00     0.001 A 
HETATM   16  C   UNL     1      44.065 -10.271  12.282  1.00  0.00     0.017 A 
BRANCH  12  17
HETATM   17  O   UNL     1      42.010  -9.468   9.339  1.00  0.00    -0.355 OA
HETATM   18  C   UNL     1      40.762 -10.142   9.178  1.00  0.00     0.210 C 
ENDBRANCH  12  17
ENDBRANCH   9  11
ENDBRANCH   1   5
BRANCH   2  19
HETATM   19  N   UNL     1      44.198 -15.704   6.633  1.00  0.00    -0.165 NA
HETATM   20  C   UNL     1      43.297 -15.707   5.703  1.00  0.00     0.157 A 
HETATM   21  C   UNL     1      42.174 -14.695   5.460  1.00  0.00     0.277 A 
HETATM   22  C   UNL     1      43.167 -16.707   4.650  1.00  0.00     0.027 A 
HETATM   23  O   UNL     1      41.971 -13.712   6.141  1.00  0.00    -0.266 OA
HETATM   24  N   UNL     1      41.502 -15.147   4.345  1.00  0.00    -0.321 N 
HETATM   25  C   UNL     1      42.080 -16.322   3.867  1.00  0.00     0.048 A 
HETATM   26  H   UNL     1      40.706 -14.674   3.944  1.00  0.00     0.169 HD
HETATM   27  C   UNL     1      41.692 -17.062   2.769  1.00  0.00     0.030 A 
HETATM   28  C   UNL     1      42.435 -18.213   2.477  1.00  0.00     0.002 A 
HETATM   29  C   UNL     1      43.533 -18.596   3.275  1.00  0.00     0.001 A 
HETATM   30  C   UNL     1      43.914 -17.835   4.382  1.00  0.00     0.016 A 
ENDBRANCH   2  19
TORSDOF 4
ENDMDL
MODEL 4
REMARK VINA RESULT:      -8.9      7.860     11.940
REMARK  4 active torsions:
REMARK  status: ('A' for Active; 'I' for Inactive)
REMARK    1  A    between atoms: O_2  and  C_3 
REMARK    2  A    between atoms: C_4  and  C_5 
REMARK    3  A    between atoms: C_9  and  C_10 
REMARK       I    between atoms: C_10  and  N_11 
REMARK    4  A    between atoms: N_11  and  N_12 
ROOT
HETATM    1  C   UNL     1      40.632 -15.575   1.280  1.00  0.00     0.289 C 
HETATM    2  N   UNL     1      40.426 -15.107  -0.008  1.00  0.00    -0.241 N 
HETATM    3  O   UNL     1      40.027 -15.161   2.266  1.00  0.00    -0.264 OA
HETATM    4  H   UNL     1      40.942 -15.502  -0.794  1.00  0.00     0.192 HD
ENDROOT
BRANCH   1   5
HETATM    5  C   UNL     1      41.612 -16.625   1.396  1.00  0.00     0.121 A 
HETATM    6  N   UNL     1      42.712 -16.654   0.583  1.00  0.00    -0.272 N 
HETATM    7  N   UNL     1      43.563 -17.659   0.839  1.00  0.00    -0.174 NA
HETATM    8  H   UNL     1      42.939 -15.990  -0.151  1.00  0.00     0.189 HD
HETATM    9  C   UNL     1      42.969 -18.357   1.819  1.00  0.00     0.092 A 
HETATM   10  C   UNL     1      41.747 -17.734   2.207  1.00  0.00     0.071 A 
BRANCH   9  11
HETATM   11  C   UNL     1      43.583 -19.545   2.409  1.00  0.00     0.028 A 
HETATM   12  C   UNL     1      44.213 -19.525   3.665  1.00  0.00     0.080 A 
HETATM   13  C   UNL     1      44.791 -20.688   4.189  1.00  0.00     0.037 A 
HETATM   14  C   UNL     1      44.718 -21.887   3.481  1.00  0.00     0.003 A 
HETATM   15  C   UNL     1      44.087 -21.923   2.240  1.00  0.00     0.001 A 
HETATM   16  C   UNL     1      43.527 -20.760   1.706  1.00  0.00     0.017 A 
BRANCH  12  17
HETATM   17  O   UNL     1      44.364 -18.344   4.349  1.00  0.00    -0.355 OA
HETATM   18  C   UNL     1      44.871 -18.581   5.663  1.00  0.00     0.210 C 
ENDBRANCH  12  17
ENDBRANCH   9  11
ENDBRANCH   1   5
BRANCH   2  19
HETATM   19  N   UNL     1      39.481 -14.146  -0.252  1.00  0.00    -0.165 NA
HETATM   20  C   UNL     1      39.113 -13.990  -1.483  1.00  0.00     0.157 A 
HETATM   21  C   UNL     1      39.594 -14.746  -2.725  1.00  0.00     0.277 A 
HETATM   22  C   UNL     1      38.119 -13.035  -1.957  1.00  0.00     0.027 A 
HETATM   23  O   UNL     1      40.424 -15.630  -2.717  1.00  0.00    -0.266 OA
HETATM   24  N   UNL     1      38.889 -14.210  -3.781  1.00  0.00    -0.321 N 
HETATM   25  C   UNL     1      38.024 -13.210  -3.337  1.00  0.00     0.048 A 
HETATM   26  H   UNL     1      38.996 -14.517  -4.736  1.00  0.00     0.169 HD
HETATM   27  C   UNL     1      37.156 -12.454  -4.096  1.00  0.00     0.030 A 
HETATM   28  C   UNL     1      36.376 -11.505  -3.422  1.00  0.00     0.002 A 
HETATM   29  C   UNL     1      36.478 -11.332  -2.026  1.00  0.00     0.001 A 
HETATM   30  C   UNL     1      37.362 -12.107  -1.272  1.00  0.00     0.016 A 
ENDBRANCH   2  19
TORSDOF 4
ENDMDL
MODEL 5
REMARK VINA RESULT:      -8.6      7.965     11.652
REMARK  4 active torsions:
REMARK  status: ('A' for Active; 'I' for Inactive)
REMARK    1  A    between atoms: O_2  and  C_3 
REMARK    2  A    between atoms: C_4  and  C_5 
REMARK    3  A    between atoms: C_9  and  C_10 
REMARK       I    between atoms: C_10  and  N_11 
REMARK    4  A    between atoms: N_11  and  N_12 
ROOT
HETATM    1  C   UNL     1      41.195 -14.952  -1.089  1.00  0.00     0.289 C 
HETATM    2  N   UNL     1      42.290 -14.162  -1.401  1.00  0.00    -0.241 N 
HETATM    3  O   UNL     1      40.125 -14.913  -1.692  1.00  0.00    -0.264 OA
HETATM    4  H   UNL     1      43.161 -14.250  -0.880  1.00  0.00     0.192 HD
ENDROOT
BRANCH   1   5
HETATM    5  C   UNL     1      41.398 -15.867   0.006  1.00  0.00     0.121 A 
HETATM    6  N   UNL     1      40.344 -16.315   0.754  1.00  0.00    -0.272 N 
HETATM    7  N   UNL     1      40.676 -17.200   1.704  1.00  0.00    -0.174 NA
HETATM    8  H   UNL     1      39.368 -16.060   0.636  1.00  0.00     0.189 HD
HETATM    9  C   UNL     1      42.013 -17.293   1.621  1.00  0.00     0.092 A 
HETATM   10  C   UNL     1      42.505 -16.481   0.558  1.00  0.00     0.071 A 
BRANCH   9  11
HETATM   11  C   UNL     1      42.786 -18.180   2.487  1.00  0.00     0.028 A 
HETATM   12  C   UNL     1      42.875 -17.991   3.876  1.00  0.00     0.080 A 
HETATM   13  C   UNL     1      43.631 -18.865   4.667  1.00  0.00     0.037 A 
HETATM   14  C   UNL     1      44.279 -19.953   4.084  1.00  0.00     0.003 A 
HETATM   15  C   UNL     1      44.191 -20.159   2.709  1.00  0.00     0.001 A 
HETATM   16  C   UNL     1      43.453 -19.278   1.916  1.00  0.00     0.017 A 
BRANCH  12  17
HETATM   17  O   UNL     1      42.309 -16.887   4.466  1.00  0.00    -0.355 OA
HETATM   18  C   UNL     1      41.251 -17.268   5.345  1.00  0.00     0.210 C 
ENDBRANCH  12  17
ENDBRANCH   9  11
ENDBRANCH   1   5
BRANCH   2  19
HETATM   19  N   UNL     1      42.234 -13.290  -2.456  1.00  0.00    -0.165 NA
HETATM   20  C   UNL     1      42.370 -12.032  -2.180  1.00  0.00     0.157 A 
HETATM   21  C   UNL     1      42.590 -11.374  -0.815  1.00  0.00     0.277 A 
HETATM   22  C   UNL     1      42.352 -10.943  -3.149  1.00  0.00     0.027 A 
HETATM   23  O   UNL     1      42.666 -11.974   0.236  1.00  0.00    -0.266 OA
HETATM   24  N   UNL     1      42.678 -10.022  -1.065  1.00  0.00    -0.321 N 
HETATM   25  C   UNL     1      42.541  -9.765  -2.429  1.00  0.00     0.048 A 
HETATM   26  H   UNL     1      42.827  -9.330  -0.346  1.00  0.00     0.169 HD
HETATM   27  C   UNL     1      42.582  -8.540  -3.060  1.00  0.00     0.030 A 
HETATM   28  C   UNL     1      42.425  -8.530  -4.453  1.00  0.00     0.002 A 
HETATM   29  C   UNL     1      42.232  -9.727  -5.174  1.00  0.00     0.001 A 
HETATM   30  C   UNL     1      42.194 -10.960  -4.520  1.00  0.00     0.016 A 
ENDBRANCH   2  19
TORSDOF 4
ENDMDL
MODEL 6
REMARK VINA RESULT:      -8.5      2.594      9.271
REMARK  4 active torsions:
REMARK  status: ('A' for Active; 'I' for Inactive)
REMARK    1  A    between atoms: O_2  and  C_3 
REMARK    2  A    between atoms: C_4  and  C_5 
REMARK    3  A    between atoms: C_9  and  C_10 
REMARK       I    between atoms: C_10  and  N_11 
REMARK    4  A    between atoms: N_11  and  N_12 
ROOT
HETATM    1  C   UNL     1      41.962 -12.595   5.953  1.00  0.00     0.289 C 
HETATM    2  N   UNL     1      42.815 -12.282   7.000  1.00  0.00    -0.241 N 
HETATM    3  O   UNL     1      40.846 -12.103   5.805  1.00  0.00    -0.264 OA
HETATM    4  H   UNL     1      43.740 -12.705   7.061  1.00  0.00     0.192 HD
ENDROOT
BRANCH   1   5
HETATM    5  C   UNL     1      42.487 -13.544   5.004  1.00  0.00     0.121 A 
HETATM    6  N   UNL     1      43.267 -13.135   3.957  1.00  0.00    -0.272 N 
HETATM    7  N   UNL     1      43.726 -14.131   3.186  1.00  0.00    -0.174 NA
HETATM    8  H   UNL     1      43.535 -12.180   3.740  1.00  0.00     0.189 HD
HETATM    9  C   UNL     1      43.176 -15.238   3.709  1.00  0.00     0.092 A 
HETATM   10  C   UNL     1      42.400 -14.914   4.860  1.00  0.00     0.071 A 
BRANCH   9  11
HETATM   11  C   UNL     1      43.436 -16.569   3.164  1.00  0.00     0.028 A 
HETATM   12  C   UNL     1      43.603 -17.700   3.979  1.00  0.00     0.080 A 
HETATM   13  C   UNL     1      43.854 -18.955   3.411  1.00  0.00     0.037 A 
HETATM   14  C   UNL     1      43.911 -19.098   2.025  1.00  0.00     0.003 A 
HETATM   15  C   UNL     1      43.737 -17.987   1.205  1.00  0.00     0.001 A 
HETATM   16  C   UNL     1      43.505 -16.730   1.769  1.00  0.00     0.017 A 
BRANCH  12  17
HETATM   17  O   UNL     1      43.626 -17.576   5.346  1.00  0.00    -0.355 OA
HETATM   18  C   UNL     1      44.784 -18.208   5.893  1.00  0.00     0.210 C 
ENDBRANCH  12  17
ENDBRANCH   9  11
ENDBRANCH   1   5
BRANCH   2  19
HETATM   19  N   UNL     1      42.447 -11.352   7.936  1.00  0.00    -0.165 NA
HETATM   20  C   UNL     1      43.113 -11.348   9.046  1.00  0.00     0.157 A 
HETATM   21  C   UNL     1      44.277 -12.252   9.463  1.00  0.00     0.277 A 
HETATM   22  C   UNL     1      42.893 -10.441  10.166  1.00  0.00     0.027 A 
HETATM   23  O   UNL     1      44.747 -13.134   8.774  1.00  0.00    -0.266 OA
HETATM   24  N   UNL     1      44.636 -11.837  10.726  1.00  0.00    -0.321 N 
HETATM   25  C   UNL     1      43.831 -10.777  11.141  1.00  0.00     0.048 A 
HETATM   26  H   UNL     1      45.385 -12.253  11.259  1.00  0.00     0.169 HD
HETATM   27  C   UNL     1      43.894 -10.094  12.337  1.00  0.00     0.030 A 
HETATM   28  C   UNL     1      42.977  -9.052  12.530  1.00  0.00     0.002 A 
HETATM   29  C   UNL     1      42.030  -8.719  11.538  1.00  0.00     0.001 A 
HETATM   30  C   UNL     1      41.981  -9.420  10.331  1.00  0.00     0.016 A 
ENDBRANCH   2  19
TORSDOF 4
ENDMDL
MODEL 7
REMARK VINA RESULT:      -8.4      2.831      3.854
REMARK  4 active torsions:
REMARK  status: ('A' for Active; 'I' for Inactive)
REMARK    1  A    between atoms: O_2  and  C_3 
REMARK    2  A    between atoms: C_4  and  C_5 
REMARK    3  A    between atoms: C_9  and  C_10 
REMARK       I    between atoms: C_10  and  N_11 
REMARK    4  A    between atoms: N_11  and  N_12 
ROOT
HETATM    1  C   UNL     1      42.524 -13.830   3.868  1.00  0.00     0.289 C 
HETATM    2  N   UNL     1      42.053 -15.078   4.241  1.00  0.00    -0.241 N 
HETATM    3  O   UNL     1      43.246 -13.630   2.893  1.00  0.00    -0.264 OA
HETATM    4  H   UNL     1      41.439 -15.183   5.048  1.00  0.00     0.192 HD
ENDROOT
BRANCH   1   5
HETATM    5  C   UNL     1      42.085 -12.740   4.702  1.00  0.00     0.121 A 
HETATM    6  N   UNL     1      41.890 -11.489   4.183  1.00  0.00    -0.272 N 
HETATM    7  N   UNL     1      41.433 -10.588   5.064  1.00  0.00    -0.174 NA
HETATM    8  H   UNL     1      42.035 -11.207   3.218  1.00  0.00     0.189 HD
HETATM    9  C   UNL     1      41.383 -11.256   6.227  1.00  0.00     0.092 A 
HETATM   10  C   UNL     1      41.774 -12.614   6.041  1.00  0.00     0.071 A 
BRANCH   9  11
HETATM   11  C   UNL     1      40.916 -10.631   7.463  1.00  0.00     0.028 A 
HETATM   12  C   UNL     1      41.788 -10.270   8.503  1.00  0.00     0.080 A 
HETATM   13  C   UNL     1      41.294  -9.676   9.671  1.00  0.00     0.037 A 
HETATM   14  C   UNL     1      39.932  -9.409   9.799  1.00  0.00     0.003 A 
HETATM   15  C   UNL     1      39.057  -9.751   8.770  1.00  0.00     0.001 A 
HETATM   16  C   UNL     1      39.545 -10.361   7.612  1.00  0.00     0.017 A 
BRANCH  12  17
HETATM   17  O   UNL     1      43.122 -10.589   8.436  1.00  0.00    -0.355 OA
HETATM   18  C   UNL     1      43.615 -10.979   9.718  1.00  0.00     0.210 C 
ENDBRANCH  12  17
ENDBRANCH   9  11
ENDBRANCH   1   5
BRANCH   2  19
HETATM   19  N   UNL     1      42.360 -16.185   3.494  1.00  0.00    -0.165 NA
HETATM   20  C   UNL     1      43.082 -17.093   4.068  1.00  0.00     0.157 A 
HETATM   21  C   UNL     1      43.647 -17.104   5.491  1.00  0.00     0.277 A 
HETATM   22  C   UNL     1      43.512 -18.346   3.459  1.00  0.00     0.027 A 
HETATM   23  O   UNL     1      43.486 -16.218   6.304  1.00  0.00    -0.266 OA
HETATM   24  N   UNL     1      44.331 -18.294   5.610  1.00  0.00    -0.321 N 
HETATM   25  C   UNL     1      44.254 -19.024   4.425  1.00  0.00     0.048 A 
HETATM   26  H   UNL     1      44.811 -18.580   6.450  1.00  0.00     0.169 HD
HETATM   27  C   UNL     1      44.804 -20.262   4.165  1.00  0.00     0.030 A 
HETATM   28  C   UNL     1      44.587 -20.805   2.891  1.00  0.00     0.002 A 
HETATM   29  C   UNL     1      43.836 -20.112   1.919  1.00  0.00     0.001 A 
HETATM   30  C   UNL     1      43.284 -18.860   2.199  1.00  0.00     0.016 A 
ENDBRANCH   2  19
TORSDOF 4
ENDMDL
MODEL 8
REMARK VINA RESULT:      -8.4      7.462     11.553
REMARK  4 active torsions:
REMARK  status: ('A' for Active; 'I' for Inactive)
REMARK    1  A    between atoms: O_2  and  C_3 
REMARK    2  A    between atoms: C_4  and  C_5 
REMARK    3  A    between atoms: C_9  and  C_10 
REMARK       I    between atoms: C_10  and  N_11 
REMARK    4  A    between atoms: N_11  and  N_12 
ROOT
HETATM    1  C   UNL     1      41.382 -15.118   0.317  1.00  0.00     0.289 C 
HETATM    2  N   UNL     1      40.139 -15.249  -0.281  1.00  0.00    -0.241 N 
HETATM    3  O   UNL     1      42.112 -14.139   0.180  1.00  0.00    -0.264 OA
HETATM    4  H   UNL     1      39.566 -16.075  -0.116  1.00  0.00     0.192 HD
ENDROOT
BRANCH   1   5
HETATM    5  C   UNL     1      41.772 -16.224   1.155  1.00  0.00     0.121 A 
HETATM    6  N   UNL     1      41.147 -16.457   2.350  1.00  0.00    -0.272 N 
HETATM    7  N   UNL     1      41.579 -17.548   2.998  1.00  0.00    -0.174 NA
HETATM    8  H   UNL     1      40.397 -15.906   2.756  1.00  0.00     0.189 HD
HETATM    9  C   UNL     1      42.573 -18.020   2.229  1.00  0.00     0.092 A 
HETATM   10  C   UNL     1      42.719 -17.224   1.056  1.00  0.00     0.071 A 
BRANCH   9  11
HETATM   11  C   UNL     1      43.316 -19.230   2.575  1.00  0.00     0.028 A 
HETATM   12  C   UNL     1      44.124 -19.319   3.720  1.00  0.00     0.080 A 
HETATM   13  C   UNL     1      44.821 -20.499   4.009  1.00  0.00     0.037 A 
HETATM   14  C   UNL     1      44.692 -21.610   3.177  1.00  0.00     0.003 A 
HETATM   15  C   UNL     1      43.885 -21.539   2.044  1.00  0.00     0.001 A 
HETATM   16  C   UNL     1      43.205 -20.357   1.742  1.00  0.00     0.017 A 
BRANCH  12  17
HETATM   17  O   UNL     1      44.328 -18.219   4.515  1.00  0.00    -0.355 OA
HETATM   18  C   UNL     1      44.978 -18.586   5.733  1.00  0.00     0.210 C 
ENDBRANCH  12  17
ENDBRANCH   9  11
ENDBRANCH   1   5
BRANCH   2  19
HETATM   19  N   UNL     1      39.637 -14.239  -1.059  1.00  0.00    -0.165 NA
HETATM   20  C   UNL     1      38.607 -13.605  -0.597  1.00  0.00     0.157 A 
HETATM   21  C   UNL     1      37.861 -13.830   0.721  1.00  0.00     0.277 A 
HETATM   22  C   UNL     1      37.926 -12.497  -1.256  1.00  0.00     0.027 A 
HETATM   23  O   UNL     1      38.151 -14.674   1.543  1.00  0.00    -0.266 OA
HETATM   24  N   UNL     1      36.852 -12.892   0.741  1.00  0.00    -0.321 N 
HETATM   25  C   UNL     1      36.887 -12.110  -0.413  1.00  0.00     0.048 A 
HETATM   26  H   UNL     1      36.191 -12.799   1.498  1.00  0.00     0.169 HD
HETATM   27  C   UNL     1      36.045 -11.069  -0.746  1.00  0.00     0.030 A 
HETATM   28  C   UNL     1      36.279 -10.421  -1.966  1.00  0.00     0.002 A 
HETATM   29  C   UNL     1      37.333 -10.819  -2.815  1.00  0.00     0.001 A 
HETATM   30  C   UNL     1      38.177 -11.875  -2.462  1.00  0.00     0.016 A 
ENDBRANCH   2  19
TORSDOF 4
ENDMDL
MODEL 9
REMARK VINA RESULT:      -8.3      6.176     10.187
REMARK  4 active torsions:
REMARK  status: ('A' for Active; 'I' for Inactive)
REMARK    1  A    between atoms: O_2  and  C_3 
REMARK    2  A    between atoms: C_4  and  C_5 
REMARK    3  A    between atoms: C_9  and  C_10 
REMARK       I    between atoms: C_10  and  N_11 
REMARK    4  A    between atoms: N_11  and  N_12 
ROOT
HETATM    1  C   UNL     1      41.267 -15.152   3.972  1.00  0.00     0.289 C 
HETATM    2  N   UNL     1      40.302 -15.563   3.066  1.00  0.00    -0.241 N 
HETATM    3  O   UNL     1      41.378 -13.998   4.382  1.00  0.00    -0.264 OA
HETATM    4  H   UNL     1      40.243 -16.539   2.777  1.00  0.00     0.192 HD
ENDROOT
BRANCH   1   5
HETATM    5  C   UNL     1      42.147 -16.194   4.439  1.00  0.00     0.121 A 
HETATM    6  N   UNL     1      43.181 -15.914   5.289  1.00  0.00    -0.272 N 
HETATM    7  N   UNL     1      43.883 -16.987   5.679  1.00  0.00    -0.174 NA
HETATM    8  H   UNL     1      43.434 -15.000   5.653  1.00  0.00     0.189 HD
HETATM    9  C   UNL     1      43.328 -18.010   5.010  1.00  0.00     0.092 A 
HETATM   10  C   UNL     1      42.226 -17.556   4.228  1.00  0.00     0.071 A 
BRANCH   9  11
HETATM   11  C   UNL     1      43.797 -19.386   5.164  1.00  0.00     0.028 A 
HETATM   12  C   UNL     1      44.405 -20.098   4.117  1.00  0.00     0.080 A 
HETATM   13  C   UNL     1      44.836 -21.416   4.310  1.00  0.00     0.037 A 
HETATM   14  C   UNL     1      44.692 -22.024   5.556  1.00  0.00     0.003 A 
HETATM   15  C   UNL     1      44.101 -21.326   6.606  1.00  0.00     0.001 A 
HETATM   16  C   UNL     1      43.653 -20.017   6.411  1.00  0.00     0.017 A 
BRANCH  12  17
HETATM   17  O   UNL     1      44.491 -19.551   2.861  1.00  0.00    -0.355 OA
HETATM   18  C   UNL     1      43.584 -20.193   1.964  1.00  0.00     0.210 C 
ENDBRANCH  12  17
ENDBRANCH   9  11
ENDBRANCH   1   5
BRANCH   2  19
HETATM   19  N   UNL     1      39.376 -14.673   2.592  1.00  0.00    -0.165 NA
HETATM   20  C   UNL     1      39.374 -14.460   1.315  1.00  0.00     0.157 A 
HETATM   21  C   UNL     1      40.276 -15.078   0.243  1.00  0.00     0.277 A 
HETATM   22  C   UNL     1      38.469 -13.563   0.605  1.00  0.00     0.027 A 
HETATM   23  O   UNL     1      41.156 -15.885   0.463  1.00  0.00    -0.266 OA
HETATM   24  N   UNL     1      39.863 -14.530  -0.952  1.00  0.00    -0.321 N 
HETATM   25  C   UNL     1      38.806 -13.645  -0.745  1.00  0.00     0.048 A 
HETATM   26  H   UNL     1      40.279 -14.756  -1.842  1.00  0.00     0.169 HD
HETATM   27  C   UNL     1      38.126 -12.914  -1.697  1.00  0.00     0.030 A 
HETATM   28  C   UNL     1      37.086 -12.088  -1.249  1.00  0.00     0.002 A 
HETATM   29  C   UNL     1      36.753 -12.010   0.119  1.00  0.00     0.001 A 
HETATM   30  C   UNL     1      37.451 -12.758   1.070  1.00  0.00     0.016 A 
ENDBRANCH   2  19
TORSDOF 4
ENDMDL
MODEL 10
REMARK VINA RESULT:      -8.3      2.949      9.319
REMARK  4 active torsions:
REMARK  status: ('A' for Active; 'I' for Inactive)
REMARK    1  A    between atoms: O_2  and  C_3 
REMARK    2  A    between atoms: C_4  and  C_5 
REMARK    3  A    between atoms: C_9  and  C_10 
REMARK       I    between atoms: C_10  and  N_11 
REMARK    4  A    between atoms: N_11  and  N_12 
ROOT
HETATM    1  C   UNL     1      41.859 -12.615   6.225  1.00  0.00     0.289 C 
HETATM    2  N   UNL     1      42.776 -12.173   7.165  1.00  0.00    -0.241 N 
HETATM    3  O   UNL     1      40.693 -12.232   6.170  1.00  0.00    -0.264 OA
HETATM    4  H   UNL     1      43.738 -12.509   7.152  1.00  0.00     0.192 HD
ENDROOT
BRANCH   1   5
HETATM    5  C   UNL     1      42.376 -13.563   5.271  1.00  0.00     0.121 A 
HETATM    6  N   UNL     1      43.209 -13.164   4.262  1.00  0.00    -0.272 N 
HETATM    7  N   UNL     1      43.652 -14.160   3.482  1.00  0.00    -0.174 NA
HETATM    8  H   UNL     1      43.525 -12.216   4.079  1.00  0.00     0.189 HD
HETATM    9  C   UNL     1      43.036 -15.254   3.958  1.00  0.00     0.092 A 
HETATM   10  C   UNL     1      42.235 -14.924   5.089  1.00  0.00     0.071 A 
BRANCH   9  11
HETATM   11  C   UNL     1      43.258 -16.582   3.388  1.00  0.00     0.028 A 
HETATM   12  C   UNL     1      43.010 -16.874   2.036  1.00  0.00     0.080 A 
HETATM   13  C   UNL     1      43.235 -18.162   1.535  1.00  0.00     0.037 A 
HETATM   14  C   UNL     1      43.738 -19.160   2.369  1.00  0.00     0.003 A 
HETATM   15  C   UNL     1      43.999 -18.881   3.708  1.00  0.00     0.001 A 
HETATM   16  C   UNL     1      43.757 -17.602   4.215  1.00  0.00     0.017 A 
BRANCH  12  17
HETATM   17  O   UNL     1      42.445 -15.933   1.212  1.00  0.00    -0.355 OA
HETATM   18  C   UNL     1      41.619 -16.552   0.226  1.00  0.00     0.210 C 
ENDBRANCH  12  17
ENDBRANCH   9  11
ENDBRANCH   1   5
BRANCH   2  19
HETATM   19  N   UNL     1      42.416 -11.230   8.093  1.00  0.00    -0.165 NA
HETATM   20  C   UNL     1      43.064 -11.239   9.213  1.00  0.00     0.157 A 
HETATM   21  C   UNL     1      44.198 -12.169   9.652  1.00  0.00     0.277 A 
HETATM   22  C   UNL     1      42.847 -10.322  10.326  1.00  0.00     0.027 A 
HETATM   23  O   UNL     1      44.657 -13.065   8.975  1.00  0.00    -0.266 OA
HETATM   24  N   UNL     1      44.546 -11.757  10.920  1.00  0.00    -0.321 N 
HETATM   25  C   UNL     1      43.760 -10.676  11.318  1.00  0.00     0.048 A 
HETATM   26  H   UNL     1      45.276 -12.190  11.467  1.00  0.00     0.169 HD
HETATM   27  C   UNL     1      43.820  -9.991  12.513  1.00  0.00     0.030 A 
HETATM   28  C   UNL     1      42.925  -8.926  12.686  1.00  0.00     0.002 A 
HETATM   29  C   UNL     1      42.004  -8.574  11.678  1.00  0.00     0.001 A 
HETATM   30  C   UNL     1      41.958  -9.278  10.473  1.00  0.00     0.016 A 
ENDBRANCH   2  19
TORSDOF 4
ENDMDL
