MODEL 1
REMARK VINA RESULT:      -9.5      0.000      0.000
REMARK  2 active torsions:
REMARK  status: ('A' for Active; 'I' for Inactive)
REMARK    1  A    between atoms: C_4  and  C_5 
REMARK       I    between atoms: N_12  and  C_13 
REMARK    2  A    between atoms: C_13  and  C_14 
ROOT
HETATM    1  C   UNL     1      44.262 -18.641   5.135  1.00  0.00     0.097 A 
HETATM    2  N   UNL     1      44.721 -19.164   6.289  1.00  0.00    -0.173 NA
HETATM    3  N   UNL     1      44.697 -18.151   7.168  1.00  0.00    -0.281 N 
HETATM    4  H   UNL     1      44.991 -18.335   8.122  1.00  0.00     0.189 HD
HETATM    5  C   UNL     1      44.229 -17.001   6.628  1.00  0.00     0.039 A 
HETATM    6  C   UNL     1      43.960 -17.257   5.304  1.00  0.00     0.015 A 
HETATM    7  C   UNL     1      43.410 -16.238   4.369  1.00  0.00     0.169 C 
HETATM    8  N   UNL     1      42.950 -15.040   5.111  1.00  0.00    -0.343 N 
HETATM    9  C   UNL     1      42.195 -14.032   4.500  1.00  0.00     0.254 C 
HETATM   10  O   UNL     1      42.041 -12.913   4.983  1.00  0.00    -0.267 OA
HETATM   11  C   UNL     1      43.762 -14.618   6.276  1.00  0.00     0.132 C 
HETATM   12  C   UNL     1      43.971 -15.725   7.327  1.00  0.00     0.079 C 
ENDROOT
BRANCH   9  13
HETATM   13  C   UNL     1      41.585 -14.273   3.175  1.00  0.00     0.035 A 
HETATM   14  C   UNL     1      42.118 -13.586   2.079  1.00  0.00     0.056 A 
HETATM   15  C   UNL     1      41.563 -13.771   0.816  1.00  0.00     0.103 A 
HETATM   16  C   UNL     1      40.456 -14.612   0.653  1.00  0.00     0.102 A 
HETATM   17  O   UNL     1      42.148 -13.086  -0.217  1.00  0.00    -0.346 OA
HETATM   18  O   UNL     1      39.846 -14.816  -0.558  1.00  0.00    -0.346 OA
HETATM   19  C   UNL     1      39.918 -15.288   1.749  1.00  0.00     0.040 A 
HETATM   20  C   UNL     1      40.214 -13.804  -1.503  1.00  0.00     0.202 C 
HETATM   21  C   UNL     1      41.715 -13.578  -1.490  1.00  0.00     0.202 C 
HETATM   22  C   UNL     1      40.471 -15.106   3.019  1.00  0.00     0.020 A 
ENDBRANCH   9  13
BRANCH   1  23
HETATM   23  C   UNL     1      44.085 -19.487   3.952  1.00  0.00    -0.005 A 
HETATM   24  C   UNL     1      44.721 -20.737   3.892  1.00  0.00     0.014 A 
HETATM   25  C   UNL     1      44.541 -21.580   2.793  1.00  0.00     0.001 A 
HETATM   26  C   UNL     1      43.725 -21.181   1.738  1.00  0.00     0.000 A 
HETATM   27  C   UNL     1      43.099 -19.936   1.777  1.00  0.00     0.001 A 
HETATM   28  C   UNL     1      43.281 -19.090   2.876  1.00  0.00     0.014 A 
ENDBRANCH   1  23
TORSDOF 2
ENDMDL
MODEL 2
REMARK VINA RESULT:      -8.5      2.357      3.575
REMARK  2 active torsions:
REMARK  status: ('A' for Active; 'I' for Inactive)
REMARK    1  A    between atoms: C_4  and  C_5 
REMARK       I    between atoms: N_12  and  C_13 
REMARK    2  A    between atoms: C_13  and  C_14 
ROOT
HETATM    1  C   UNL     1      41.353 -16.453   4.599  1.00  0.00     0.097 A 
HETATM    2  N   UNL     1      40.881 -16.907   5.778  1.00  0.00    -0.173 NA
HETATM    3  N   UNL     1      40.188 -15.883   6.297  1.00  0.00    -0.281 N 
HETATM    4  H   UNL     1      39.726 -16.019   7.190  1.00  0.00     0.189 HD
HETATM    5  C   UNL     1      40.185 -14.793   5.494  1.00  0.00     0.039 A 
HETATM    6  C   UNL     1      40.950 -15.101   4.393  1.00  0.00     0.015 A 
HETATM    7  C   UNL     1      41.176 -14.157   3.265  1.00  0.00     0.169 C 
HETATM    8  N   UNL     1      40.264 -12.992   3.365  1.00  0.00    -0.343 N 
HETATM    9  C   UNL     1      40.117 -12.072   2.320  1.00  0.00     0.254 C 
HETATM   10  O   UNL     1      39.607 -10.962   2.461  1.00  0.00    -0.267 OA
HETATM   11  C   UNL     1      39.985 -12.473   4.724  1.00  0.00     0.132 C 
HETATM   12  C   UNL     1      39.441 -13.533   5.700  1.00  0.00     0.079 C 
ENDROOT
BRANCH   9  13
HETATM   13  C   UNL     1      40.642 -12.396   0.977  1.00  0.00     0.035 A 
HETATM   14  C   UNL     1      39.861 -13.210   0.151  1.00  0.00     0.056 A 
HETATM   15  C   UNL     1      40.325 -13.551  -1.116  1.00  0.00     0.103 A 
HETATM   16  C   UNL     1      41.584 -13.111  -1.544  1.00  0.00     0.102 A 
HETATM   17  O   UNL     1      39.500 -14.332  -1.882  1.00  0.00    -0.346 OA
HETATM   18  O   UNL     1      42.111 -13.434  -2.768  1.00  0.00    -0.346 OA
HETATM   19  C   UNL     1      42.367 -12.308  -0.714  1.00  0.00     0.040 A 
HETATM   20  C   UNL     1      41.423 -14.546  -3.352  1.00  0.00     0.202 C 
HETATM   21  C   UNL     1      39.919 -14.362  -3.250  1.00  0.00     0.202 C 
HETATM   22  C   UNL     1      41.906 -11.962   0.559  1.00  0.00     0.020 A 
ENDBRANCH   9  13
BRANCH   1  23
HETATM   23  C   UNL     1      42.113 -17.336   3.711  1.00  0.00    -0.005 A 
HETATM   24  C   UNL     1      43.222 -18.035   4.211  1.00  0.00     0.014 A 
HETATM   25  C   UNL     1      43.943 -18.912   3.397  1.00  0.00     0.001 A 
HETATM   26  C   UNL     1      43.566 -19.097   2.070  1.00  0.00     0.000 A 
HETATM   27  C   UNL     1      42.474 -18.398   1.555  1.00  0.00     0.001 A 
HETATM   28  C   UNL     1      41.753 -17.518   2.369  1.00  0.00     0.014 A 
ENDBRANCH   1  23
TORSDOF 2
ENDMDL
MODEL 3
REMARK VINA RESULT:      -8.4      4.542      7.736
REMARK  2 active torsions:
REMARK  status: ('A' for Active; 'I' for Inactive)
REMARK    1  A    between atoms: C_4  and  C_5 
REMARK       I    between atoms: N_12  and  C_13 
REMARK    2  A    between atoms: C_13  and  C_14 
ROOT
HETATM    1  C   UNL     1      41.335 -14.878   4.730  1.00  0.00     0.097 A 
HETATM    2  N   UNL     1      41.307 -15.223   3.427  1.00  0.00    -0.173 NA
HETATM    3  N   UNL     1      40.547 -14.291   2.833  1.00  0.00    -0.281 N 
HETATM    4  H   UNL     1      40.407 -14.352   1.830  1.00  0.00     0.189 HD
HETATM    5  C   UNL     1      40.095 -13.354   3.700  1.00  0.00     0.039 A 
HETATM    6  C   UNL     1      40.554 -13.705   4.948  1.00  0.00     0.015 A 
HETATM    7  C   UNL     1      40.280 -12.907   6.174  1.00  0.00     0.169 C 
HETATM    8  N   UNL     1      39.704 -11.587   5.823  1.00  0.00    -0.343 N 
HETATM    9  C   UNL     1      39.560 -10.564   6.767  1.00  0.00     0.254 C 
HETATM   10  O   UNL     1      38.843  -9.581   6.598  1.00  0.00    -0.267 OA
HETATM   11  C   UNL     1      38.757 -11.549   4.684  1.00  0.00     0.132 C 
HETATM   12  C   UNL     1      39.326 -12.136   3.378  1.00  0.00     0.079 C 
ENDROOT
BRANCH   9  13
HETATM   13  C   UNL     1      40.247 -10.667   8.072  1.00  0.00     0.035 A 
HETATM   14  C   UNL     1      41.642 -10.566   8.083  1.00  0.00     0.056 A 
HETATM   15  C   UNL     1      42.329 -10.673   9.289  1.00  0.00     0.103 A 
HETATM   16  C   UNL     1      41.629 -10.917  10.476  1.00  0.00     0.102 A 
HETATM   17  O   UNL     1      43.692 -10.542   9.232  1.00  0.00    -0.346 OA
HETATM   18  O   UNL     1      42.248 -11.060  11.692  1.00  0.00    -0.346 OA
HETATM   19  C   UNL     1      40.238 -11.029  10.462  1.00  0.00     0.040 A 
HETATM   20  C   UNL     1      43.648 -11.316  11.535  1.00  0.00     0.202 C 
HETATM   21  C   UNL     1      44.261 -10.355  10.532  1.00  0.00     0.202 C 
HETATM   22  C   UNL     1      39.543 -10.922   9.255  1.00  0.00     0.020 A 
ENDBRANCH   9  13
BRANCH   1  23
HETATM   23  C   UNL     1      42.137 -15.645   5.686  1.00  0.00    -0.005 A 
HETATM   24  C   UNL     1      43.470 -15.274   5.928  1.00  0.00     0.014 A 
HETATM   25  C   UNL     1      44.247 -15.963   6.861  1.00  0.00     0.001 A 
HETATM   26  C   UNL     1      43.703 -17.035   7.563  1.00  0.00     0.000 A 
HETATM   27  C   UNL     1      42.385 -17.424   7.323  1.00  0.00     0.001 A 
HETATM   28  C   UNL     1      41.607 -16.736   6.386  1.00  0.00     0.014 A 
ENDBRANCH   1  23
TORSDOF 2
ENDMDL
MODEL 4
REMARK VINA RESULT:      -8.3      2.316      3.490
REMARK  2 active torsions:
REMARK  status: ('A' for Active; 'I' for Inactive)
REMARK    1  A    between atoms: C_4  and  C_5 
REMARK       I    between atoms: N_12  and  C_13 
REMARK    2  A    between atoms: C_13  and  C_14 
ROOT
HETATM    1  C   UNL     1      41.479 -16.376   4.813  1.00  0.00     0.097 A 
HETATM    2  N   UNL     1      41.255 -16.716   6.099  1.00  0.00    -0.173 NA
HETATM    3  N   UNL     1      40.553 -15.696   6.614  1.00  0.00    -0.281 N 
HETATM    4  H   UNL     1      40.259 -15.756   7.584  1.00  0.00     0.189 HD
HETATM    5  C   UNL     1      40.307 -14.720   5.709  1.00  0.00     0.039 A 
HETATM    6  C   UNL     1      40.911 -15.099   4.533  1.00  0.00     0.015 A 
HETATM    7  C   UNL     1      40.852 -14.290   3.285  1.00  0.00     0.169 C 
HETATM    8  N   UNL     1      39.853 -13.201   3.413  1.00  0.00    -0.343 N 
HETATM    9  C   UNL     1      39.444 -12.437   2.314  1.00  0.00     0.254 C 
HETATM   10  O   UNL     1      38.852 -11.364   2.418  1.00  0.00    -0.267 OA
HETATM   11  C   UNL     1      39.746 -12.540   4.734  1.00  0.00     0.132 C 
HETATM   12  C   UNL     1      39.481 -13.510   5.900  1.00  0.00     0.079 C 
ENDROOT
BRANCH   9  13
HETATM   13  C   UNL     1      39.774 -12.882   0.944  1.00  0.00     0.035 A 
HETATM   14  C   UNL     1      40.931 -12.363   0.353  1.00  0.00     0.056 A 
HETATM   15  C   UNL     1      41.271 -12.744  -0.942  1.00  0.00     0.103 A 
HETATM   16  C   UNL     1      40.439 -13.613  -1.659  1.00  0.00     0.102 A 
HETATM   17  O   UNL     1      42.428 -12.217  -1.453  1.00  0.00    -0.346 OA
HETATM   18  O   UNL     1      40.702 -14.006  -2.946  1.00  0.00    -0.346 OA
HETATM   19  C   UNL     1      39.280 -14.121  -1.071  1.00  0.00     0.040 A 
HETATM   20  C   UNL     1      41.664 -13.144  -3.566  1.00  0.00     0.202 C 
HETATM   21  C   UNL     1      42.843 -12.901  -2.640  1.00  0.00     0.202 C 
HETATM   22  C   UNL     1      38.934 -13.742   0.229  1.00  0.00     0.020 A 
ENDBRANCH   9  13
BRANCH   1  23
HETATM   23  C   UNL     1      42.172 -17.298   3.909  1.00  0.00    -0.005 A 
HETATM   24  C   UNL     1      41.707 -17.460   2.594  1.00  0.00     0.014 A 
HETATM   25  C   UNL     1      42.369 -18.303   1.700  1.00  0.00     0.001 A 
HETATM   26  C   UNL     1      43.503 -18.999   2.110  1.00  0.00     0.000 A 
HETATM   27  C   UNL     1      43.968 -18.859   3.417  1.00  0.00     0.001 A 
HETATM   28  C   UNL     1      43.304 -18.016   4.314  1.00  0.00     0.014 A 
ENDBRANCH   1  23
TORSDOF 2
ENDMDL
MODEL 5
REMARK VINA RESULT:      -8.2      2.819      5.988
REMARK  2 active torsions:
REMARK  status: ('A' for Active; 'I' for Inactive)
REMARK    1  A    between atoms: C_4  and  C_5 
REMARK       I    between atoms: N_12  and  C_13 
REMARK    2  A    between atoms: C_13  and  C_14 
ROOT
HETATM    1  C   UNL     1      41.895 -17.758   2.687  1.00  0.00     0.097 A 
HETATM    2  N   UNL     1      41.425 -18.213   1.509  1.00  0.00    -0.173 NA
HETATM    3  N   UNL     1      40.631 -17.236   1.046  1.00  0.00    -0.281 N 
HETATM    4  H   UNL     1      40.180 -17.368   0.146  1.00  0.00     0.189 HD
HETATM    5  C   UNL     1      40.581 -16.166   1.874  1.00  0.00     0.039 A 
HETATM    6  C   UNL     1      41.361 -16.465   2.967  1.00  0.00     0.015 A 
HETATM    7  C   UNL     1      41.575 -15.525   4.101  1.00  0.00     0.169 C 
HETATM    8  N   UNL     1      41.074 -14.172   3.762  1.00  0.00    -0.343 N 
HETATM    9  C   UNL     1      41.349 -13.056   4.561  1.00  0.00     0.254 C 
HETATM   10  O   UNL     1      40.732 -11.996   4.481  1.00  0.00    -0.267 OA
HETATM   11  C   UNL     1      39.832 -14.097   2.959  1.00  0.00     0.132 C 
HETATM   12  C   UNL     1      39.895 -14.880   1.634  1.00  0.00     0.079 C 
ENDROOT
BRANCH   9  13
HETATM   13  C   UNL     1      42.390 -13.140   5.607  1.00  0.00     0.035 A 
HETATM   14  C   UNL     1      42.409 -12.144   6.588  1.00  0.00     0.056 A 
HETATM   15  C   UNL     1      43.383 -12.177   7.583  1.00  0.00     0.103 A 
HETATM   16  C   UNL     1      44.358 -13.181   7.577  1.00  0.00     0.102 A 
HETATM   17  O   UNL     1      43.330 -11.183   8.525  1.00  0.00    -0.346 OA
HETATM   18  O   UNL     1      45.359 -13.255   8.511  1.00  0.00    -0.346 OA
HETATM   19  C   UNL     1      44.344 -14.169   6.591  1.00  0.00     0.040 A 
HETATM   20  C   UNL     1      45.509 -12.014   9.210  1.00  0.00     0.202 C 
HETATM   21  C   UNL     1      44.158 -11.481   9.654  1.00  0.00     0.202 C 
HETATM   22  C   UNL     1      43.369 -14.141   5.590  1.00  0.00     0.020 A 
ENDBRANCH   9  13
BRANCH   1  23
HETATM   23  C   UNL     1      42.861 -18.544   3.458  1.00  0.00    -0.005 A 
HETATM   24  C   UNL     1      43.734 -19.418   2.790  1.00  0.00     0.014 A 
HETATM   25  C   UNL     1      44.690 -20.153   3.496  1.00  0.00     0.001 A 
HETATM   26  C   UNL     1      44.782 -20.025   4.879  1.00  0.00     0.000 A 
HETATM   27  C   UNL     1      43.913 -19.172   5.557  1.00  0.00     0.001 A 
HETATM   28  C   UNL     1      42.954 -18.438   4.851  1.00  0.00     0.014 A 
ENDBRANCH   1  23
TORSDOF 2
ENDMDL
MODEL 6
REMARK VINA RESULT:      -8.1      2.780      5.582
REMARK  2 active torsions:
REMARK  status: ('A' for Active; 'I' for Inactive)
REMARK    1  A    between atoms: C_4  and  C_5 
REMARK       I    between atoms: N_12  and  C_13 
REMARK    2  A    between atoms: C_13  and  C_14 
ROOT
HETATM    1  C   UNL     1      42.835 -18.137   3.887  1.00  0.00     0.097 A 
HETATM    2  N   UNL     1      43.216 -19.134   3.065  1.00  0.00    -0.173 NA
HETATM    3  N   UNL     1      42.637 -18.860   1.887  1.00  0.00    -0.281 N 
HETATM    4  H   UNL     1      42.810 -19.487   1.108  1.00  0.00     0.189 HD
HETATM    5  C   UNL     1      41.907 -17.720   1.915  1.00  0.00     0.039 A 
HETATM    6  C   UNL     1      41.980 -17.227   3.198  1.00  0.00     0.015 A 
HETATM    7  C   UNL     1      41.316 -15.966   3.628  1.00  0.00     0.169 C 
HETATM    8  N   UNL     1      40.823 -15.206   2.454  1.00  0.00    -0.343 N 
HETATM    9  C   UNL     1      40.360 -13.890   2.563  1.00  0.00     0.254 C 
HETATM   10  O   UNL     1      39.690 -13.333   1.696  1.00  0.00    -0.267 OA
HETATM   11  C   UNL     1      40.265 -15.994   1.330  1.00  0.00     0.132 C 
HETATM   12  C   UNL     1      41.225 -17.066   0.781  1.00  0.00     0.079 C 
ENDROOT
BRANCH   9  13
HETATM   13  C   UNL     1      40.623 -13.118   3.796  1.00  0.00     0.035 A 
HETATM   14  C   UNL     1      39.632 -13.113   4.784  1.00  0.00     0.056 A 
HETATM   15  C   UNL     1      39.833 -12.386   5.954  1.00  0.00     0.103 A 
HETATM   16  C   UNL     1      41.003 -11.636   6.123  1.00  0.00     0.102 A 
HETATM   17  O   UNL     1      38.833 -12.443   6.889  1.00  0.00    -0.346 OA
HETATM   18  O   UNL     1      41.249 -10.878   7.238  1.00  0.00    -0.346 OA
HETATM   19  C   UNL     1      41.985 -11.634   5.131  1.00  0.00     0.040 A 
HETATM   20  C   UNL     1      40.048 -10.644   7.982  1.00  0.00     0.202 C 
HETATM   21  C   UNL     1      39.263 -11.932   8.156  1.00  0.00     0.202 C 
HETATM   22  C   UNL     1      41.790 -12.362   3.955  1.00  0.00     0.020 A 
ENDBRANCH   9  13
BRANCH   1  23
HETATM   23  C   UNL     1      43.339 -18.069   5.261  1.00  0.00    -0.005 A 
HETATM   24  C   UNL     1      42.461 -17.741   6.307  1.00  0.00     0.014 A 
HETATM   25  C   UNL     1      42.905 -17.706   7.630  1.00  0.00     0.001 A 
HETATM   26  C   UNL     1      44.235 -17.994   7.924  1.00  0.00     0.000 A 
HETATM   27  C   UNL     1      45.122 -18.309   6.895  1.00  0.00     0.001 A 
HETATM   28  C   UNL     1      44.678 -18.342   5.569  1.00  0.00     0.014 A 
ENDBRANCH   1  23
TORSDOF 2
ENDMDL
MODEL 7
REMARK VINA RESULT:      -8.0      2.895      6.671
REMARK  2 active torsions:
REMARK  status: ('A' for Active; 'I' for Inactive)
REMARK    1  A    between atoms: C_4  and  C_5 
REMARK       I    between atoms: N_12  and  C_13 
REMARK    2  A    between atoms: C_13  and  C_14 
ROOT
HETATM    1  C   UNL     1      41.676 -13.466   2.046  1.00  0.00     0.097 A 
HETATM    2  N   UNL     1      41.660 -12.130   2.227  1.00  0.00    -0.173 NA
HETATM    3  N   UNL     1      42.058 -11.942   3.494  1.00  0.00    -0.281 N 
HETATM    4  H   UNL     1      42.135 -10.990   3.837  1.00  0.00     0.189 HD
HETATM    5  C   UNL     1      42.340 -13.103   4.131  1.00  0.00     0.039 A 
HETATM    6  C   UNL     1      42.081 -14.122   3.245  1.00  0.00     0.015 A 
HETATM    7  C   UNL     1      42.286 -15.560   3.571  1.00  0.00     0.169 C 
HETATM    8  N   UNL     1      43.044 -15.709   4.836  1.00  0.00    -0.343 N 
HETATM    9  C   UNL     1      43.559 -16.941   5.253  1.00  0.00     0.254 C 
HETATM   10  O   UNL     1      43.934 -17.166   6.402  1.00  0.00    -0.267 OA
HETATM   11  C   UNL     1      42.747 -14.737   5.914  1.00  0.00     0.132 C 
HETATM   12  C   UNL     1      42.898 -13.264   5.489  1.00  0.00     0.079 C 
ENDROOT
BRANCH   9  13
HETATM   13  C   UNL     1      43.616 -18.073   4.304  1.00  0.00     0.035 A 
HETATM   14  C   UNL     1      44.212 -19.260   4.741  1.00  0.00     0.056 A 
HETATM   15  C   UNL     1      44.300 -20.345   3.874  1.00  0.00     0.103 A 
HETATM   16  C   UNL     1      43.829 -20.234   2.561  1.00  0.00     0.102 A 
HETATM   17  O   UNL     1      44.875 -21.485   4.374  1.00  0.00    -0.346 OA
HETATM   18  O   UNL     1      43.910 -21.255   1.649  1.00  0.00    -0.346 OA
HETATM   19  C   UNL     1      43.244 -19.045   2.122  1.00  0.00     0.040 A 
HETATM   20  C   UNL     1      44.851 -22.251   2.067  1.00  0.00     0.202 C 
HETATM   21  C   UNL     1      44.637 -22.613   3.527  1.00  0.00     0.202 C 
HETATM   22  C   UNL     1      43.152 -17.952   2.988  1.00  0.00     0.020 A 
ENDBRANCH   9  13
BRANCH   1  23
HETATM   23  C   UNL     1      41.358 -14.045   0.738  1.00  0.00    -0.005 A 
HETATM   24  C   UNL     1      40.926 -13.208  -0.304  1.00  0.00     0.014 A 
HETATM   25  C   UNL     1      40.652 -13.727  -1.571  1.00  0.00     0.001 A 
HETATM   26  C   UNL     1      40.801 -15.090  -1.811  1.00  0.00     0.000 A 
HETATM   27  C   UNL     1      41.215 -15.935  -0.782  1.00  0.00     0.001 A 
HETATM   28  C   UNL     1      41.488 -15.416   0.488  1.00  0.00     0.014 A 
ENDBRANCH   1  23
TORSDOF 2
ENDMDL
MODEL 8
REMARK VINA RESULT:      -8.0      3.155      6.016
REMARK  2 active torsions:
REMARK  status: ('A' for Active; 'I' for Inactive)
REMARK    1  A    between atoms: C_4  and  C_5 
REMARK       I    between atoms: N_12  and  C_13 
REMARK    2  A    between atoms: C_13  and  C_14 
ROOT
HETATM    1  C   UNL     1      42.284 -17.613   4.007  1.00  0.00     0.097 A 
HETATM    2  N   UNL     1      42.503 -18.524   3.038  1.00  0.00    -0.173 NA
HETATM    3  N   UNL     1      41.780 -18.103   1.989  1.00  0.00    -0.281 N 
HETATM    4  H   UNL     1      41.816 -18.644   1.132  1.00  0.00     0.189 HD
HETATM    5  C   UNL     1      41.115 -16.950   2.242  1.00  0.00     0.039 A 
HETATM    6  C   UNL     1      41.386 -16.606   3.545  1.00  0.00     0.015 A 
HETATM    7  C   UNL     1      40.846 -15.381   4.197  1.00  0.00     0.169 C 
HETATM    8  N   UNL     1      40.232 -14.481   3.192  1.00  0.00    -0.343 N 
HETATM    9  C   UNL     1      39.850 -13.171   3.504  1.00  0.00     0.254 C 
HETATM   10  O   UNL     1      39.093 -12.500   2.804  1.00  0.00    -0.267 OA
HETATM   11  C   UNL     1      39.489 -15.121   2.081  1.00  0.00     0.132 C 
HETATM   12  C   UNL     1      40.314 -16.154   1.291  1.00  0.00     0.079 C 
ENDROOT
BRANCH   9  13
HETATM   13  C   UNL     1      40.314 -12.550   4.762  1.00  0.00     0.035 A 
HETATM   14  C   UNL     1      39.378 -12.372   5.785  1.00  0.00     0.056 A 
HETATM   15  C   UNL     1      39.770 -11.777   6.981  1.00  0.00     0.103 A 
HETATM   16  C   UNL     1      41.085 -11.326   7.141  1.00  0.00     0.102 A 
HETATM   17  O   UNL     1      38.808 -11.655   7.950  1.00  0.00    -0.346 OA
HETATM   18  O   UNL     1      41.528 -10.708   8.282  1.00  0.00    -0.346 OA
HETATM   19  C   UNL     1      42.016 -11.494   6.115  1.00  0.00     0.040 A 
HETATM   20  C   UNL     1      40.433 -10.246   9.082  1.00  0.00     0.202 C 
HETATM   21  C   UNL     1      39.376 -11.328   9.222  1.00  0.00     0.202 C 
HETATM   22  C   UNL     1      41.628 -12.091   4.913  1.00  0.00     0.020 A 
ENDBRANCH   9  13
BRANCH   1  23
HETATM   23  C   UNL     1      42.975 -17.714   5.295  1.00  0.00    -0.005 A 
HETATM   24  C   UNL     1      44.333 -18.070   5.327  1.00  0.00     0.014 A 
HETATM   25  C   UNL     1      45.027 -18.138   6.537  1.00  0.00     0.001 A 
HETATM   26  C   UNL     1      44.369 -17.856   7.731  1.00  0.00     0.000 A 
HETATM   27  C   UNL     1      43.017 -17.516   7.716  1.00  0.00     0.001 A 
HETATM   28  C   UNL     1      42.321 -17.450   6.504  1.00  0.00     0.014 A 
ENDBRANCH   1  23
TORSDOF 2
ENDMDL
MODEL 9
REMARK VINA RESULT:      -7.8      2.761      5.311
REMARK  2 active torsions:
REMARK  status: ('A' for Active; 'I' for Inactive)
REMARK    1  A    between atoms: C_4  and  C_5 
REMARK       I    between atoms: N_12  and  C_13 
REMARK    2  A    between atoms: C_13  and  C_14 
ROOT
HETATM    1  C   UNL     1      42.880 -17.998   3.843  1.00  0.00     0.097 A 
HETATM    2  N   UNL     1      43.421 -18.897   2.996  1.00  0.00    -0.173 NA
HETATM    3  N   UNL     1      42.911 -18.597   1.792  1.00  0.00    -0.281 N 
HETATM    4  H   UNL     1      43.206 -19.150   0.994  1.00  0.00     0.189 HD
HETATM    5  C   UNL     1      42.073 -17.534   1.829  1.00  0.00     0.039 A 
HETATM    6  C   UNL     1      41.997 -17.126   3.140  1.00  0.00     0.015 A 
HETATM    7  C   UNL     1      41.180 -15.966   3.589  1.00  0.00     0.169 C 
HETATM    8  N   UNL     1      40.707 -15.176   2.427  1.00  0.00    -0.343 N 
HETATM    9  C   UNL     1      40.110 -13.919   2.576  1.00  0.00     0.254 C 
HETATM   10  O   UNL     1      39.458 -13.369   1.691  1.00  0.00    -0.267 OA
HETATM   11  C   UNL     1      40.319 -15.933   1.214  1.00  0.00     0.132 C 
HETATM   12  C   UNL     1      41.420 -16.871   0.683  1.00  0.00     0.079 C 
ENDROOT
BRANCH   9  13
HETATM   13  C   UNL     1      40.199 -13.213   3.872  1.00  0.00     0.035 A 
HETATM   14  C   UNL     1      40.875 -11.989   3.901  1.00  0.00     0.056 A 
HETATM   15  C   UNL     1      40.995 -11.299   5.104  1.00  0.00     0.103 A 
HETATM   16  C   UNL     1      40.472 -11.846   6.282  1.00  0.00     0.102 A 
HETATM   17  O   UNL     1      41.649 -10.095   5.057  1.00  0.00    -0.346 OA
HETATM   18  O   UNL     1      40.579 -11.230   7.502  1.00  0.00    -0.346 OA
HETATM   19  C   UNL     1      39.807 -13.072   6.252  1.00  0.00     0.040 A 
HETATM   20  C   UNL     1      41.589 -10.214   7.484  1.00  0.00     0.202 C 
HETATM   21  C   UNL     1      41.446  -9.336   6.253  1.00  0.00     0.202 C 
HETATM   22  C   UNL     1      39.683 -13.770   5.048  1.00  0.00     0.020 A 
ENDBRANCH   9  13
BRANCH   1  23
HETATM   23  C   UNL     1      43.266 -17.979   5.256  1.00  0.00    -0.005 A 
HETATM   24  C   UNL     1      44.576 -18.329   5.621  1.00  0.00     0.014 A 
HETATM   25  C   UNL     1      44.982 -18.284   6.957  1.00  0.00     0.001 A 
HETATM   26  C   UNL     1      44.083 -17.892   7.944  1.00  0.00     0.000 A 
HETATM   27  C   UNL     1      42.775 -17.554   7.598  1.00  0.00     0.001 A 
HETATM   28  C   UNL     1      42.367 -17.602   6.260  1.00  0.00     0.014 A 
ENDBRANCH   1  23
TORSDOF 2
ENDMDL
MODEL 10
REMARK VINA RESULT:      -7.5      3.171      7.135
REMARK  2 active torsions:
REMARK  status: ('A' for Active; 'I' for Inactive)
REMARK    1  A    between atoms: C_4  and  C_5 
REMARK       I    between atoms: N_12  and  C_13 
REMARK    2  A    between atoms: C_13  and  C_14 
ROOT
HETATM    1  C   UNL     1      39.478 -13.262  -0.015  1.00  0.00     0.097 A 
HETATM    2  N   UNL     1      39.106 -11.975  -0.166  1.00  0.00    -0.173 NA
HETATM    3  N   UNL     1      39.107 -11.462   1.073  1.00  0.00    -0.281 N 
HETATM    4  H   UNL     1      38.868 -10.482   1.187  1.00  0.00     0.189 HD
HETATM    5  C   UNL     1      39.476 -12.364   2.013  1.00  0.00     0.039 A 
HETATM    6  C   UNL     1      39.701 -13.555   1.362  1.00  0.00     0.015 A 
HETATM    7  C   UNL     1      40.143 -14.795   2.057  1.00  0.00     0.169 C 
HETATM    8  N   UNL     1      40.560 -14.497   3.448  1.00  0.00    -0.343 N 
HETATM    9  C   UNL     1      41.222 -15.439   4.242  1.00  0.00     0.254 C 
HETATM   10  O   UNL     1      41.328 -15.342   5.464  1.00  0.00    -0.267 OA
HETATM   11  C   UNL     1      39.777 -13.474   4.179  1.00  0.00     0.132 C 
HETATM   12  C   UNL     1      39.686 -12.118   3.454  1.00  0.00     0.079 C 
ENDROOT
BRANCH   9  13
HETATM   13  C   UNL     1      41.785 -16.657   3.623  1.00  0.00     0.035 A 
HETATM   14  C   UNL     1      42.775 -17.349   4.329  1.00  0.00     0.056 A 
HETATM   15  C   UNL     1      43.343 -18.492   3.775  1.00  0.00     0.103 A 
HETATM   16  C   UNL     1      42.950 -18.925   2.503  1.00  0.00     0.102 A 
HETATM   17  O   UNL     1      44.290 -19.134   4.529  1.00  0.00    -0.346 OA
HETATM   18  O   UNL     1      43.489 -20.026   1.889  1.00  0.00    -0.346 OA
HETATM   19  C   UNL     1      41.970 -18.227   1.795  1.00  0.00     0.040 A 
HETATM   20  C   UNL     1      44.720 -20.416   2.510  1.00  0.00     0.202 C 
HETATM   21  C   UNL     1      44.575 -20.441   4.021  1.00  0.00     0.202 C 
HETATM   22  C   UNL     1      41.396 -17.079   2.346  1.00  0.00     0.020 A 
ENDBRANCH   9  13
BRANCH   1  23
HETATM   23  C   UNL     1      39.654 -14.129  -1.184  1.00  0.00    -0.005 A 
HETATM   24  C   UNL     1      38.660 -14.166  -2.175  1.00  0.00     0.014 A 
HETATM   25  C   UNL     1      38.818 -14.954  -3.317  1.00  0.00     0.001 A 
HETATM   26  C   UNL     1      39.969 -15.720  -3.480  1.00  0.00     0.000 A 
HETATM   27  C   UNL     1      40.958 -15.704  -2.497  1.00  0.00     0.001 A 
HETATM   28  C   UNL     1      40.799 -14.916  -1.351  1.00  0.00     0.014 A 
ENDBRANCH   1  23
TORSDOF 2
ENDMDL
