MODEL 1
REMARK VINA RESULT:      -7.3      0.000      0.000
REMARK  8 active torsions:
REMARK  status: ('A' for Active; 'I' for Inactive)
REMARK    1  A    between atoms: C_2  and  C_3 
REMARK    2  A    between atoms: C_3  and  N_4 
REMARK    3  A    between atoms: C_7  and  C_8 
REMARK       I    between atoms: C_8  and  N_9 
REMARK    4  A    between atoms: N_9  and  C_10 
REMARK    5  A    between atoms: C_13  and  O_14 
REMARK    6  A    between atoms: O_14  and  C_15 
REMARK    7  A    between atoms: C_15  and  C_16 
REMARK       I    between atoms: C_16  and  N_17 
REMARK    8  A    between atoms: C_23  and  C_24 
ROOT
HETATM    1  C   UNL     1      40.546 -16.525   2.937  1.00  0.00     0.259 C 
HETATM    2  N   UNL     1      40.145 -15.230   3.191  1.00  0.00    -0.323 N 
HETATM    3  O   UNL     1      40.015 -17.077   1.972  1.00  0.00    -0.267 OA
HETATM    4  H   UNL     1      39.388 -14.995   2.561  1.00  0.00     0.169 HD
ENDROOT
BRANCH   2   5
HETATM    5  C   UNL     1      40.498 -14.240   4.123  1.00  0.00     0.035 A 
HETATM    6  C   UNL     1      39.819 -13.950   5.302  1.00  0.00     0.032 A 
HETATM    7  C   UNL     1      40.189 -12.840   6.078  1.00  0.00     0.039 A 
HETATM    8  C   UNL     1      41.267 -12.033   5.714  1.00  0.00     0.069 A 
HETATM    9  C   UNL     1      42.029 -12.399   4.608  1.00  0.00     0.039 A 
HETATM   10  C   UNL     1      41.642 -13.488   3.819  1.00  0.00     0.032 A 
BRANCH   8  11
HETATM   11  O   UNL     1      41.458 -10.931   6.498  1.00  0.00    -0.342 OA
BRANCH  11  12
HETATM   12  C   UNL     1      40.857 -10.930   7.791  1.00  0.00     0.278 C 
BRANCH  12  13
HETATM   13  C   UNL     1      41.906 -10.777   8.892  1.00  0.00     0.241 C 
HETATM   14  N   UNL     1      41.519 -11.293  10.111  1.00  0.00    -0.364 N 
HETATM   15  C   UNL     1      42.278 -11.069  11.315  1.00  0.00     0.149 C 
HETATM   16  H   UNL     1      40.613 -11.745  10.166  1.00  0.00     0.161 HD
HETATM   17  O   UNL     1      42.950 -10.153   8.720  1.00  0.00    -0.271 OA
ENDBRANCH  12  13
ENDBRANCH  11  12
ENDBRANCH   8  11
ENDBRANCH   2   5
BRANCH   1  18
HETATM   18  C   UNL     1      41.474 -17.220   3.805  1.00  0.00     0.076 A 
HETATM   19  C   UNL     1      41.161 -17.799   5.058  1.00  0.00     0.158 A 
HETATM   20  N   UNL     1      42.222 -18.304   5.681  1.00  0.00    -0.183 NA
HETATM   21  N   UNL     1      43.223 -18.148   4.791  1.00  0.00    -0.268 N 
HETATM   22  C   UNL     1      42.814 -17.545   3.615  1.00  0.00     0.052 A 
BRANCH  21  23
HETATM   23  C   UNL     1      44.581 -18.542   5.167  1.00  0.00     0.106 C 
HETATM   24  C   UNL     1      44.982 -17.825   6.460  1.00  0.00     0.034 C 
BRANCH  23  25
HETATM   25  C   UNL     1      44.788 -20.064   5.309  1.00  0.00     0.022 C 
HETATM   26  C   UNL     1      44.893 -20.774   3.966  1.00  0.00     0.007 C 
ENDBRANCH  23  25
ENDBRANCH  21  23
BRANCH  22  27
HETATM   27  C   UNL     1      43.740 -17.301   2.418  1.00  0.00     0.038 A 
HETATM   28  C   UNL     1      43.968 -18.422   1.430  1.00  0.00     0.011 A 
HETATM   29  C   UNL     1      43.223 -17.198   1.006  1.00  0.00     0.011 A 
ENDBRANCH  22  27
ENDBRANCH   1  18
TORSDOF 8
ENDMDL
MODEL 2
REMARK VINA RESULT:      -7.1      2.964      5.624
REMARK  8 active torsions:
REMARK  status: ('A' for Active; 'I' for Inactive)
REMARK    1  A    between atoms: C_2  and  C_3 
REMARK    2  A    between atoms: C_3  and  N_4 
REMARK    3  A    between atoms: C_7  and  C_8 
REMARK       I    between atoms: C_8  and  N_9 
REMARK    4  A    between atoms: N_9  and  C_10 
REMARK    5  A    between atoms: C_13  and  O_14 
REMARK    6  A    between atoms: O_14  and  C_15 
REMARK    7  A    between atoms: C_15  and  C_16 
REMARK       I    between atoms: C_16  and  N_17 
REMARK    8  A    between atoms: C_23  and  C_24 
ROOT
HETATM    1  C   UNL     1      43.473 -16.509   7.454  1.00  0.00     0.259 C 
HETATM    2  N   UNL     1      43.164 -15.206   7.127  1.00  0.00    -0.323 N 
HETATM    3  O   UNL     1      43.451 -16.785   8.655  1.00  0.00    -0.267 OA
HETATM    4  H   UNL     1      43.059 -14.672   7.981  1.00  0.00     0.169 HD
ENDROOT
BRANCH   2   5
HETATM    5  C   UNL     1      43.029 -14.481   5.930  1.00  0.00     0.035 A 
HETATM    6  C   UNL     1      41.971 -13.643   5.599  1.00  0.00     0.032 A 
HETATM    7  C   UNL     1      41.882 -13.088   4.313  1.00  0.00     0.039 A 
HETATM    8  C   UNL     1      42.870 -13.324   3.356  1.00  0.00     0.069 A 
HETATM    9  C   UNL     1      43.996 -14.053   3.728  1.00  0.00     0.039 A 
HETATM   10  C   UNL     1      44.068 -14.630   5.001  1.00  0.00     0.032 A 
BRANCH   8  11
HETATM   11  O   UNL     1      42.613 -12.809   2.117  1.00  0.00    -0.342 OA
BRANCH  11  12
HETATM   12  C   UNL     1      41.375 -13.158   1.502  1.00  0.00     0.278 C 
BRANCH  12  13
HETATM   13  C   UNL     1      41.557 -14.278   0.479  1.00  0.00     0.241 C 
HETATM   14  N   UNL     1      41.125 -13.956  -0.790  1.00  0.00    -0.364 N 
HETATM   15  C   UNL     1      41.025 -14.937  -1.839  1.00  0.00     0.149 C 
HETATM   16  H   UNL     1      40.763 -13.020  -0.941  1.00  0.00     0.161 HD
HETATM   17  O   UNL     1      41.955 -15.397   0.797  1.00  0.00    -0.271 OA
ENDBRANCH  12  13
ENDBRANCH  11  12
ENDBRANCH   8  11
ENDBRANCH   2   5
BRANCH   1  18
HETATM   18  C   UNL     1      43.881 -17.471   6.452  1.00  0.00     0.076 A 
HETATM   19  C   UNL     1      45.182 -18.007   6.298  1.00  0.00     0.158 A 
HETATM   20  N   UNL     1      45.297 -18.810   5.243  1.00  0.00    -0.183 NA
HETATM   21  N   UNL     1      44.041 -18.884   4.757  1.00  0.00    -0.268 N 
HETATM   22  C   UNL     1      43.133 -18.135   5.483  1.00  0.00     0.052 A 
BRANCH  21  23
HETATM   23  C   UNL     1      43.793 -19.647   3.534  1.00  0.00     0.106 C 
HETATM   24  C   UNL     1      43.978 -18.736   2.316  1.00  0.00     0.034 C 
BRANCH  23  25
HETATM   25  C   UNL     1      44.655 -20.919   3.389  1.00  0.00     0.022 C 
HETATM   26  C   UNL     1      44.376 -21.678   2.098  1.00  0.00     0.007 C 
ENDBRANCH  23  25
ENDBRANCH  21  23
BRANCH  22  27
HETATM   27  C   UNL     1      41.631 -18.089   5.178  1.00  0.00     0.038 A 
HETATM   28  C   UNL     1      40.782 -17.032   5.846  1.00  0.00     0.011 A 
HETATM   29  C   UNL     1      41.006 -16.981   4.370  1.00  0.00     0.011 A 
ENDBRANCH  22  27
ENDBRANCH   1  18
TORSDOF 8
ENDMDL
MODEL 3
REMARK VINA RESULT:      -6.9      4.298      7.968
REMARK  8 active torsions:
REMARK  status: ('A' for Active; 'I' for Inactive)
REMARK    1  A    between atoms: C_2  and  C_3 
REMARK    2  A    between atoms: C_3  and  N_4 
REMARK    3  A    between atoms: C_7  and  C_8 
REMARK       I    between atoms: C_8  and  N_9 
REMARK    4  A    between atoms: N_9  and  C_10 
REMARK    5  A    between atoms: C_13  and  O_14 
REMARK    6  A    between atoms: O_14  and  C_15 
REMARK    7  A    between atoms: C_15  and  C_16 
REMARK       I    between atoms: C_16  and  N_17 
REMARK    8  A    between atoms: C_23  and  C_24 
ROOT
HETATM    1  C   UNL     1      38.703 -14.648   1.121  1.00  0.00     0.259 C 
HETATM    2  N   UNL     1      39.095 -15.709   1.910  1.00  0.00    -0.323 N 
HETATM    3  O   UNL     1      37.530 -14.290   1.239  1.00  0.00    -0.267 OA
HETATM    4  H   UNL     1      38.283 -16.069   2.398  1.00  0.00     0.169 HD
ENDROOT
BRANCH   2   5
HETATM    5  C   UNL     1      40.298 -16.401   2.129  1.00  0.00     0.035 A 
HETATM    6  C   UNL     1      40.935 -17.237   1.219  1.00  0.00     0.032 A 
HETATM    7  C   UNL     1      42.058 -17.984   1.608  1.00  0.00     0.039 A 
HETATM    8  C   UNL     1      42.587 -17.872   2.894  1.00  0.00     0.069 A 
HETATM    9  C   UNL     1      42.032 -16.938   3.764  1.00  0.00     0.039 A 
HETATM   10  C   UNL     1      40.895 -16.216   3.383  1.00  0.00     0.032 A 
BRANCH   8  11
HETATM   11  O   UNL     1      43.615 -18.726   3.175  1.00  0.00    -0.342 OA
BRANCH  11  12
HETATM   12  C   UNL     1      44.312 -18.538   4.405  1.00  0.00     0.278 C 
BRANCH  12  13
HETATM   13  C   UNL     1      44.335 -19.821   5.234  1.00  0.00     0.241 C 
HETATM   14  N   UNL     1      45.026 -20.859   4.645  1.00  0.00    -0.364 N 
HETATM   15  C   UNL     1      44.992 -22.200   5.169  1.00  0.00     0.149 C 
HETATM   16  H   UNL     1      45.474 -20.680   3.752  1.00  0.00     0.161 HD
HETATM   17  O   UNL     1      43.701 -19.937   6.280  1.00  0.00    -0.271 OA
ENDBRANCH  12  13
ENDBRANCH  11  12
ENDBRANCH   8  11
ENDBRANCH   2   5
BRANCH   1  18
HETATM   18  C   UNL     1      39.595 -14.050   0.151  1.00  0.00     0.076 A 
HETATM   19  C   UNL     1      39.481 -14.153  -1.256  1.00  0.00     0.158 A 
HETATM   20  N   UNL     1      40.484 -13.573  -1.908  1.00  0.00    -0.183 NA
HETATM   21  N   UNL     1      41.212 -12.995  -0.931  1.00  0.00    -0.268 N 
HETATM   22  C   UNL     1      40.689 -13.207   0.332  1.00  0.00     0.052 A 
BRANCH  21  23
HETATM   23  C   UNL     1      42.454 -12.305  -1.279  1.00  0.00     0.106 C 
HETATM   24  C   UNL     1      42.979 -12.839  -2.615  1.00  0.00     0.034 C 
BRANCH  23  25
HETATM   25  C   UNL     1      42.338 -10.767  -1.322  1.00  0.00     0.022 C 
HETATM   26  C   UNL     1      43.684 -10.069  -1.180  1.00  0.00     0.007 C 
ENDBRANCH  23  25
ENDBRANCH  21  23
BRANCH  22  27
HETATM   27  C   UNL     1      41.290 -12.614   1.611  1.00  0.00     0.038 A 
HETATM   28  C   UNL     1      40.806 -11.264   2.088  1.00  0.00     0.011 A 
HETATM   29  C   UNL     1      40.501 -12.487   2.889  1.00  0.00     0.011 A 
ENDBRANCH  22  27
ENDBRANCH   1  18
TORSDOF 8
ENDMDL
MODEL 4
REMARK VINA RESULT:      -6.8      2.282      3.169
REMARK  8 active torsions:
REMARK  status: ('A' for Active; 'I' for Inactive)
REMARK    1  A    between atoms: C_2  and  C_3 
REMARK    2  A    between atoms: C_3  and  N_4 
REMARK    3  A    between atoms: C_7  and  C_8 
REMARK       I    between atoms: C_8  and  N_9 
REMARK    4  A    between atoms: N_9  and  C_10 
REMARK    5  A    between atoms: C_13  and  O_14 
REMARK    6  A    between atoms: O_14  and  C_15 
REMARK    7  A    between atoms: C_15  and  C_16 
REMARK       I    between atoms: C_16  and  N_17 
REMARK    8  A    between atoms: C_23  and  C_24 
ROOT
HETATM    1  C   UNL     1      43.006 -13.518   3.907  1.00  0.00     0.259 C 
HETATM    2  N   UNL     1      41.929 -12.671   4.058  1.00  0.00    -0.323 N 
HETATM    3  O   UNL     1      43.470 -13.605   2.769  1.00  0.00    -0.267 OA
HETATM    4  H   UNL     1      41.651 -12.330   3.145  1.00  0.00     0.169 HD
ENDROOT
BRANCH   2   5
HETATM    5  C   UNL     1      41.135 -12.245   5.138  1.00  0.00     0.035 A 
HETATM    6  C   UNL     1      41.302 -11.068   5.859  1.00  0.00     0.032 A 
HETATM    7  C   UNL     1      40.533 -10.826   7.008  1.00  0.00     0.039 A 
HETATM    8  C   UNL     1      39.558 -11.732   7.426  1.00  0.00     0.069 A 
HETATM    9  C   UNL     1      39.298 -12.845   6.632  1.00  0.00     0.039 A 
HETATM   10  C   UNL     1      40.086 -13.099   5.504  1.00  0.00     0.032 A 
BRANCH   8  11
HETATM   11  O   UNL     1      38.952 -11.426   8.612  1.00  0.00    -0.342 OA
BRANCH  11  12
HETATM   12  C   UNL     1      39.467 -10.318   9.348  1.00  0.00     0.278 C 
BRANCH  12  13
HETATM   13  C   UNL     1      40.367 -10.781  10.493  1.00  0.00     0.241 C 
HETATM   14  N   UNL     1      39.701 -11.451  11.497  1.00  0.00    -0.364 N 
HETATM   15  C   UNL     1      40.332 -11.787  12.747  1.00  0.00     0.149 C 
HETATM   16  H   UNL     1      38.704 -11.605  11.380  1.00  0.00     0.161 HD
HETATM   17  O   UNL     1      41.557 -10.481  10.552  1.00  0.00    -0.271 OA
ENDBRANCH  12  13
ENDBRANCH  11  12
ENDBRANCH   8  11
ENDBRANCH   2   5
BRANCH   1  18
HETATM   18  C   UNL     1      43.504 -14.320   5.004  1.00  0.00     0.076 A 
HETATM   19  C   UNL     1      44.253 -13.844   6.106  1.00  0.00     0.158 A 
HETATM   20  N   UNL     1      44.652 -14.812   6.927  1.00  0.00    -0.183 NA
HETATM   21  N   UNL     1      44.077 -15.921   6.419  1.00  0.00    -0.268 N 
HETATM   22  C   UNL     1      43.326 -15.673   5.285  1.00  0.00     0.052 A 
BRANCH  21  23
HETATM   23  C   UNL     1      44.352 -17.217   7.042  1.00  0.00     0.106 C 
HETATM   24  C   UNL     1      43.159 -17.629   7.910  1.00  0.00     0.034 C 
BRANCH  23  25
HETATM   25  C   UNL     1      44.707 -18.340   6.047  1.00  0.00     0.022 C 
HETATM   26  C   UNL     1      43.990 -19.649   6.352  1.00  0.00     0.007 C 
ENDBRANCH  23  25
ENDBRANCH  21  23
BRANCH  22  27
HETATM   27  C   UNL     1      42.524 -16.748   4.543  1.00  0.00     0.038 A 
HETATM   28  C   UNL     1      41.161 -17.136   5.070  1.00  0.00     0.011 A 
HETATM   29  C   UNL     1      41.276 -16.427   3.760  1.00  0.00     0.011 A 
ENDBRANCH  22  27
ENDBRANCH   1  18
TORSDOF 8
ENDMDL
MODEL 5
REMARK VINA RESULT:      -6.7      3.368      5.399
REMARK  8 active torsions:
REMARK  status: ('A' for Active; 'I' for Inactive)
REMARK    1  A    between atoms: C_2  and  C_3 
REMARK    2  A    between atoms: C_3  and  N_4 
REMARK    3  A    between atoms: C_7  and  C_8 
REMARK       I    between atoms: C_8  and  N_9 
REMARK    4  A    between atoms: N_9  and  C_10 
REMARK    5  A    between atoms: C_13  and  O_14 
REMARK    6  A    between atoms: O_14  and  C_15 
REMARK    7  A    between atoms: C_15  and  C_16 
REMARK       I    between atoms: C_16  and  N_17 
REMARK    8  A    between atoms: C_23  and  C_24 
ROOT
HETATM    1  C   UNL     1      40.887 -16.404   5.827  1.00  0.00     0.259 C 
HETATM    2  N   UNL     1      40.496 -15.102   5.599  1.00  0.00    -0.323 N 
HETATM    3  O   UNL     1      40.412 -16.945   6.826  1.00  0.00    -0.267 OA
HETATM    4  H   UNL     1      39.933 -14.789   6.381  1.00  0.00     0.169 HD
ENDROOT
BRANCH   2   5
HETATM    5  C   UNL     1      40.743 -14.144   4.600  1.00  0.00     0.035 A 
HETATM    6  C   UNL     1      39.783 -13.376   3.951  1.00  0.00     0.032 A 
HETATM    7  C   UNL     1      40.143 -12.557   2.869  1.00  0.00     0.039 A 
HETATM    8  C   UNL     1      41.470 -12.458   2.452  1.00  0.00     0.069 A 
HETATM    9  C   UNL     1      42.451 -13.121   3.184  1.00  0.00     0.039 A 
HETATM   10  C   UNL     1      42.086 -13.961   4.243  1.00  0.00     0.032 A 
BRANCH   8  11
HETATM   11  O   UNL     1      41.670 -11.707   1.328  1.00  0.00    -0.342 OA
BRANCH  11  12
HETATM   12  C   UNL     1      42.263 -12.350   0.202  1.00  0.00     0.278 C 
BRANCH  12  13
HETATM   13  C   UNL     1      41.238 -13.178  -0.571  1.00  0.00     0.241 C 
HETATM   14  N   UNL     1      41.744 -14.345  -1.105  1.00  0.00    -0.364 N 
HETATM   15  C   UNL     1      40.995 -15.155  -2.030  1.00  0.00     0.149 C 
HETATM   16  H   UNL     1      42.717 -14.565  -0.918  1.00  0.00     0.161 HD
HETATM   17  O   UNL     1      40.096 -12.776  -0.781  1.00  0.00    -0.271 OA
ENDBRANCH  12  13
ENDBRANCH  11  12
ENDBRANCH   8  11
ENDBRANCH   2   5
BRANCH   1  18
HETATM   18  C   UNL     1      41.866 -17.063   4.988  1.00  0.00     0.076 A 
HETATM   19  C   UNL     1      43.147 -17.505   5.398  1.00  0.00     0.158 A 
HETATM   20  N   UNL     1      43.873 -18.005   4.402  1.00  0.00    -0.183 NA
HETATM   21  N   UNL     1      43.030 -17.988   3.349  1.00  0.00    -0.268 N 
HETATM   22  C   UNL     1      41.783 -17.477   3.661  1.00  0.00     0.052 A 
BRANCH  21  23
HETATM   23  C   UNL     1      43.516 -18.418   2.038  1.00  0.00     0.106 C 
HETATM   24  C   UNL     1      44.326 -17.287   1.397  1.00  0.00     0.034 C 
BRANCH  23  25
HETATM   25  C   UNL     1      44.337 -19.724   2.059  1.00  0.00     0.022 C 
HETATM   26  C   UNL     1      43.473 -20.968   1.902  1.00  0.00     0.007 C 
ENDBRANCH  23  25
ENDBRANCH  21  23
BRANCH  22  27
HETATM   27  C   UNL     1      40.622 -17.397   2.663  1.00  0.00     0.038 A 
HETATM   28  C   UNL     1      40.548 -16.216   1.722  1.00  0.00     0.011 A 
HETATM   29  C   UNL     1      40.819 -17.582   1.180  1.00  0.00     0.011 A 
ENDBRANCH  22  27
ENDBRANCH   1  18
TORSDOF 8
ENDMDL
MODEL 6
REMARK VINA RESULT:      -6.6      3.529      5.551
REMARK  8 active torsions:
REMARK  status: ('A' for Active; 'I' for Inactive)
REMARK    1  A    between atoms: C_2  and  C_3 
REMARK    2  A    between atoms: C_3  and  N_4 
REMARK    3  A    between atoms: C_7  and  C_8 
REMARK       I    between atoms: C_8  and  N_9 
REMARK    4  A    between atoms: N_9  and  C_10 
REMARK    5  A    between atoms: C_13  and  O_14 
REMARK    6  A    between atoms: O_14  and  C_15 
REMARK    7  A    between atoms: C_15  and  C_16 
REMARK       I    between atoms: C_16  and  N_17 
REMARK    8  A    between atoms: C_23  and  C_24 
ROOT
HETATM    1  C   UNL     1      40.937 -16.842   5.587  1.00  0.00     0.259 C 
HETATM    2  N   UNL     1      40.682 -15.534   5.234  1.00  0.00    -0.323 N 
HETATM    3  O   UNL     1      40.382 -17.246   6.610  1.00  0.00    -0.267 OA
HETATM    4  H   UNL     1      40.130 -15.102   5.965  1.00  0.00     0.169 HD
ENDROOT
BRANCH   2   5
HETATM    5  C   UNL     1      41.051 -14.696   4.168  1.00  0.00     0.035 A 
HETATM    6  C   UNL     1      40.279 -14.417   3.046  1.00  0.00     0.032 A 
HETATM    7  C   UNL     1      40.818 -13.678   1.981  1.00  0.00     0.039 A 
HETATM    8  C   UNL     1      42.116 -13.169   2.041  1.00  0.00     0.069 A 
HETATM    9  C   UNL     1      42.842 -13.334   3.217  1.00  0.00     0.039 A 
HETATM   10  C   UNL     1      42.314 -14.096   4.265  1.00  0.00     0.032 A 
BRANCH   8  11
HETATM   11  O   UNL     1      42.553 -12.557   0.901  1.00  0.00    -0.342 OA
BRANCH  11  12
HETATM   12  C   UNL     1      41.848 -11.396   0.465  1.00  0.00     0.278 C 
BRANCH  12  13
HETATM   13  C   UNL     1      42.587 -10.690  -0.671  1.00  0.00     0.241 C 
HETATM   14  N   UNL     1      41.922 -10.722  -1.879  1.00  0.00    -0.364 N 
HETATM   15  C   UNL     1      42.539 -10.293  -3.107  1.00  0.00     0.149 C 
HETATM   16  H   UNL     1      41.012 -11.171  -1.905  1.00  0.00     0.161 HD
HETATM   17  O   UNL     1      43.718 -10.232  -0.532  1.00  0.00    -0.271 OA
ENDBRANCH  12  13
ENDBRANCH  11  12
ENDBRANCH   8  11
ENDBRANCH   2   5
BRANCH   1  18
HETATM   18  C   UNL     1      41.870 -17.664   4.844  1.00  0.00     0.076 A 
HETATM   19  C   UNL     1      41.802 -17.951   3.460  1.00  0.00     0.158 A 
HETATM   20  N   UNL     1      42.743 -18.799   3.053  1.00  0.00    -0.183 NA
HETATM   21  N   UNL     1      43.498 -18.992   4.153  1.00  0.00    -0.268 N 
HETATM   22  C   UNL     1      43.047 -18.286   5.253  1.00  0.00     0.052 A 
BRANCH  21  23
HETATM   23  C   UNL     1      44.615 -19.936   4.095  1.00  0.00     0.106 C 
HETATM   24  C   UNL     1      44.393 -21.054   5.119  1.00  0.00     0.034 C 
BRANCH  23  25
HETATM   25  C   UNL     1      44.875 -20.532   2.697  1.00  0.00     0.022 C 
HETATM   26  C   UNL     1      44.407 -21.976   2.573  1.00  0.00     0.007 C 
ENDBRANCH  23  25
ENDBRANCH  21  23
BRANCH  22  27
HETATM   27  C   UNL     1      43.754 -18.285   6.613  1.00  0.00     0.038 A 
HETATM   28  C   UNL     1      45.087 -17.584   6.742  1.00  0.00     0.011 A 
HETATM   29  C   UNL     1      43.890 -17.040   7.451  1.00  0.00     0.011 A 
ENDBRANCH  22  27
ENDBRANCH   1  18
TORSDOF 8
ENDMDL
MODEL 7
REMARK VINA RESULT:      -6.5      1.012      2.535
REMARK  8 active torsions:
REMARK  status: ('A' for Active; 'I' for Inactive)
REMARK    1  A    between atoms: C_2  and  C_3 
REMARK    2  A    between atoms: C_3  and  N_4 
REMARK    3  A    between atoms: C_7  and  C_8 
REMARK       I    between atoms: C_8  and  N_9 
REMARK    4  A    between atoms: N_9  and  C_10 
REMARK    5  A    between atoms: C_13  and  O_14 
REMARK    6  A    between atoms: O_14  and  C_15 
REMARK    7  A    between atoms: C_15  and  C_16 
REMARK       I    between atoms: C_16  and  N_17 
REMARK    8  A    between atoms: C_23  and  C_24 
ROOT
HETATM    1  C   UNL     1      40.616 -16.512   2.689  1.00  0.00     0.259 C 
HETATM    2  N   UNL     1      40.218 -15.290   3.189  1.00  0.00    -0.323 N 
HETATM    3  O   UNL     1      39.827 -17.068   1.924  1.00  0.00    -0.267 OA
HETATM    4  H   UNL     1      39.268 -15.110   2.888  1.00  0.00     0.169 HD
ENDROOT
BRANCH   2   5
HETATM    5  C   UNL     1      40.790 -14.319   4.028  1.00  0.00     0.035 A 
HETATM    6  C   UNL     1      42.143 -14.012   4.115  1.00  0.00     0.032 A 
HETATM    7  C   UNL     1      42.606 -13.121   5.097  1.00  0.00     0.039 A 
HETATM    8  C   UNL     1      41.721 -12.492   5.973  1.00  0.00     0.069 A 
HETATM    9  C   UNL     1      40.355 -12.696   5.801  1.00  0.00     0.039 A 
HETATM   10  C   UNL     1      39.898 -13.607   4.841  1.00  0.00     0.032 A 
BRANCH   8  11
HETATM   11  O   UNL     1      42.308 -11.730   6.943  1.00  0.00    -0.342 OA
BRANCH  11  12
HETATM   12  C   UNL     1      41.566 -10.623   7.452  1.00  0.00     0.278 C 
BRANCH  12  13
HETATM   13  C   UNL     1      41.918 -10.341   8.912  1.00  0.00     0.241 C 
HETATM   14  N   UNL     1      42.736 -11.291   9.487  1.00  0.00    -0.364 N 
HETATM   15  C   UNL     1      43.013 -11.312  10.899  1.00  0.00     0.149 C 
HETATM   16  H   UNL     1      43.052 -12.057   8.901  1.00  0.00     0.161 HD
HETATM   17  O   UNL     1      41.422  -9.406   9.536  1.00  0.00    -0.271 OA
ENDBRANCH  12  13
ENDBRANCH  11  12
ENDBRANCH   8  11
ENDBRANCH   2   5
BRANCH   1  18
HETATM   18  C   UNL     1      41.851 -17.142   3.110  1.00  0.00     0.076 A 
HETATM   19  C   UNL     1      43.045 -17.212   2.354  1.00  0.00     0.158 A 
HETATM   20  N   UNL     1      44.001 -17.919   2.949  1.00  0.00    -0.183 NA
HETATM   21  N   UNL     1      43.471 -18.233   4.148  1.00  0.00    -0.268 N 
HETATM   22  C   UNL     1      42.190 -17.741   4.320  1.00  0.00     0.052 A 
BRANCH  21  23
HETATM   23  C   UNL     1      44.233 -19.078   5.067  1.00  0.00     0.106 C 
HETATM   24  C   UNL     1      44.953 -20.174   4.275  1.00  0.00     0.034 C 
BRANCH  23  25
HETATM   25  C   UNL     1      45.234 -18.313   5.957  1.00  0.00     0.022 C 
HETATM   26  C   UNL     1      44.879 -18.382   7.437  1.00  0.00     0.007 C 
ENDBRANCH  23  25
ENDBRANCH  21  23
BRANCH  22  27
HETATM   27  C   UNL     1      41.381 -17.906   5.612  1.00  0.00     0.038 A 
HETATM   28  C   UNL     1      41.725 -17.043   6.805  1.00  0.00     0.011 A 
HETATM   29  C   UNL     1      40.420 -16.854   6.103  1.00  0.00     0.011 A 
ENDBRANCH  22  27
ENDBRANCH   1  18
TORSDOF 8
ENDMDL
MODEL 8
REMARK VINA RESULT:      -6.5      1.713      2.126
REMARK  8 active torsions:
REMARK  status: ('A' for Active; 'I' for Inactive)
REMARK    1  A    between atoms: C_2  and  C_3 
REMARK    2  A    between atoms: C_3  and  N_4 
REMARK    3  A    between atoms: C_7  and  C_8 
REMARK       I    between atoms: C_8  and  N_9 
REMARK    4  A    between atoms: N_9  and  C_10 
REMARK    5  A    between atoms: C_13  and  O_14 
REMARK    6  A    between atoms: O_14  and  C_15 
REMARK    7  A    between atoms: C_15  and  C_16 
REMARK       I    between atoms: C_16  and  N_17 
REMARK    8  A    between atoms: C_23  and  C_24 
ROOT
HETATM    1  C   UNL     1      40.506 -16.575   2.803  1.00  0.00     0.259 C 
HETATM    2  N   UNL     1      40.013 -15.312   3.054  1.00  0.00    -0.323 N 
HETATM    3  O   UNL     1      40.058 -17.142   1.806  1.00  0.00    -0.267 OA
HETATM    4  H   UNL     1      39.275 -15.112   2.390  1.00  0.00     0.169 HD
ENDROOT
BRANCH   2   5
HETATM    5  C   UNL     1      40.257 -14.317   4.016  1.00  0.00     0.035 A 
HETATM    6  C   UNL     1      39.792 -14.317   5.326  1.00  0.00     0.032 A 
HETATM    7  C   UNL     1      39.984 -13.195   6.147  1.00  0.00     0.039 A 
HETATM    8  C   UNL     1      40.682 -12.077   5.687  1.00  0.00     0.069 A 
HETATM    9  C   UNL     1      41.263 -12.128   4.424  1.00  0.00     0.039 A 
HETATM   10  C   UNL     1      41.045 -13.236   3.597  1.00  0.00     0.032 A 
BRANCH   8  11
HETATM   11  O   UNL     1      40.711 -11.017   6.548  1.00  0.00    -0.342 OA
BRANCH  11  12
HETATM   12  C   UNL     1      41.302  -9.806   6.083  1.00  0.00     0.278 C 
BRANCH  12  13
HETATM   13  C   UNL     1      40.246  -8.726   5.845  1.00  0.00     0.241 C 
HETATM   14  N   UNL     1      39.318  -8.615   6.860  1.00  0.00    -0.364 N 
HETATM   15  C   UNL     1      38.136  -7.803   6.734  1.00  0.00     0.149 C 
HETATM   16  H   UNL     1      39.430  -9.218   7.669  1.00  0.00     0.161 HD
HETATM   17  O   UNL     1      40.178  -8.096   4.793  1.00  0.00    -0.271 OA
ENDBRANCH  12  13
ENDBRANCH  11  12
ENDBRANCH   8  11
ENDBRANCH   2   5
BRANCH   1  18
HETATM   18  C   UNL     1      41.430 -17.226   3.708  1.00  0.00     0.076 A 
HETATM   19  C   UNL     1      41.107 -17.769   4.974  1.00  0.00     0.158 A 
HETATM   20  N   UNL     1      42.166 -18.236   5.630  1.00  0.00    -0.183 NA
HETATM   21  N   UNL     1      43.178 -18.093   4.750  1.00  0.00    -0.268 N 
HETATM   22  C   UNL     1      42.778 -17.536   3.549  1.00  0.00     0.052 A 
BRANCH  21  23
HETATM   23  C   UNL     1      44.536 -18.453   5.159  1.00  0.00     0.106 C 
HETATM   24  C   UNL     1      44.889 -17.722   6.458  1.00  0.00     0.034 C 
BRANCH  23  25
HETATM   25  C   UNL     1      44.775 -19.969   5.313  1.00  0.00     0.022 C 
HETATM   26  C   UNL     1      44.954 -20.678   3.977  1.00  0.00     0.007 C 
ENDBRANCH  23  25
ENDBRANCH  21  23
BRANCH  22  27
HETATM   27  C   UNL     1      43.718 -17.317   2.358  1.00  0.00     0.038 A 
HETATM   28  C   UNL     1      43.916 -18.441   1.367  1.00  0.00     0.011 A 
HETATM   29  C   UNL     1      43.213 -17.193   0.944  1.00  0.00     0.011 A 
ENDBRANCH  22  27
ENDBRANCH   1  18
TORSDOF 8
ENDMDL
MODEL 9
REMARK VINA RESULT:      -6.5      1.209      1.876
REMARK  8 active torsions:
REMARK  status: ('A' for Active; 'I' for Inactive)
REMARK    1  A    between atoms: C_2  and  C_3 
REMARK    2  A    between atoms: C_3  and  N_4 
REMARK    3  A    between atoms: C_7  and  C_8 
REMARK       I    between atoms: C_8  and  N_9 
REMARK    4  A    between atoms: N_9  and  C_10 
REMARK    5  A    between atoms: C_13  and  O_14 
REMARK    6  A    between atoms: O_14  and  C_15 
REMARK    7  A    between atoms: C_15  and  C_16 
REMARK       I    between atoms: C_16  and  N_17 
REMARK    8  A    between atoms: C_23  and  C_24 
ROOT
HETATM    1  C   UNL     1      41.080 -16.948   2.379  1.00  0.00     0.259 C 
HETATM    2  N   UNL     1      40.877 -15.603   2.156  1.00  0.00    -0.323 N 
HETATM    3  O   UNL     1      40.770 -17.703   1.457  1.00  0.00    -0.267 OA
HETATM    4  H   UNL     1      40.406 -15.488   1.266  1.00  0.00     0.169 HD
ENDROOT
BRANCH   2   5
HETATM    5  C   UNL     1      41.114 -14.422   2.880  1.00  0.00     0.035 A 
HETATM    6  C   UNL     1      42.352 -13.977   3.331  1.00  0.00     0.032 A 
HETATM    7  C   UNL     1      42.438 -12.854   4.169  1.00  0.00     0.039 A 
HETATM    8  C   UNL     1      41.299 -12.135   4.530  1.00  0.00     0.069 A 
HETATM    9  C   UNL     1      40.076 -12.499   3.973  1.00  0.00     0.039 A 
HETATM   10  C   UNL     1      39.988 -13.637   3.162  1.00  0.00     0.032 A 
BRANCH   8  11
HETATM   11  O   UNL     1      41.509 -11.127   5.429  1.00  0.00    -0.342 OA
BRANCH  11  12
HETATM   12  C   UNL     1      41.141 -11.366   6.785  1.00  0.00     0.278 C 
BRANCH  12  13
HETATM   13  C   UNL     1      41.961 -10.504   7.745  1.00  0.00     0.241 C 
HETATM   14  N   UNL     1      42.471 -11.195   8.824  1.00  0.00    -0.364 N 
HETATM   15  C   UNL     1      43.095 -10.528   9.937  1.00  0.00     0.149 C 
HETATM   16  H   UNL     1      42.291 -12.192   8.873  1.00  0.00     0.161 HD
HETATM   17  O   UNL     1      42.059  -9.287   7.611  1.00  0.00    -0.271 OA
ENDBRANCH  12  13
ENDBRANCH  11  12
ENDBRANCH   8  11
ENDBRANCH   2   5
BRANCH   1  18
HETATM   18  C   UNL     1      41.549 -17.446   3.655  1.00  0.00     0.076 A 
HETATM   19  C   UNL     1      40.806 -17.471   4.860  1.00  0.00     0.158 A 
HETATM   20  N   UNL     1      41.510 -17.908   5.901  1.00  0.00    -0.183 NA
HETATM   21  N   UNL     1      42.692 -18.268   5.362  1.00  0.00    -0.268 N 
HETATM   22  C   UNL     1      42.752 -18.061   3.996  1.00  0.00     0.052 A 
BRANCH  21  23
HETATM   23  C   UNL     1      43.760 -18.746   6.240  1.00  0.00     0.106 C 
HETATM   24  C   UNL     1      44.227 -20.128   5.771  1.00  0.00     0.034 C 
BRANCH  23  25
HETATM   25  C   UNL     1      44.962 -17.787   6.364  1.00  0.00     0.022 C 
HETATM   26  C   UNL     1      44.550 -16.371   6.747  1.00  0.00     0.007 C 
ENDBRANCH  23  25
ENDBRANCH  21  23
BRANCH  22  27
HETATM   27  C   UNL     1      43.959 -18.436   3.130  1.00  0.00     0.038 A 
HETATM   28  C   UNL     1      43.811 -19.541   2.109  1.00  0.00     0.011 A 
HETATM   29  C   UNL     1      44.020 -18.133   1.655  1.00  0.00     0.011 A 
ENDBRANCH  22  27
ENDBRANCH   1  18
TORSDOF 8
ENDMDL
MODEL 10
REMARK VINA RESULT:      -6.4      3.115      7.920
REMARK  8 active torsions:
REMARK  status: ('A' for Active; 'I' for Inactive)
REMARK    1  A    between atoms: C_2  and  C_3 
REMARK    2  A    between atoms: C_3  and  N_4 
REMARK    3  A    between atoms: C_7  and  C_8 
REMARK       I    between atoms: C_8  and  N_9 
REMARK    4  A    between atoms: N_9  and  C_10 
REMARK    5  A    between atoms: C_13  and  O_14 
REMARK    6  A    between atoms: O_14  and  C_15 
REMARK    7  A    between atoms: C_15  and  C_16 
REMARK       I    between atoms: C_16  and  N_17 
REMARK    8  A    between atoms: C_23  and  C_24 
ROOT
HETATM    1  C   UNL     1      41.959 -16.655   6.034  1.00  0.00     0.259 C 
HETATM    2  N   UNL     1      42.112 -17.469   4.932  1.00  0.00    -0.323 N 
HETATM    3  O   UNL     1      42.103 -17.196   7.131  1.00  0.00    -0.267 OA
HETATM    4  H   UNL     1      42.234 -18.424   5.247  1.00  0.00     0.169 HD
ENDROOT
BRANCH   2   5
HETATM    5  C   UNL     1      42.080 -17.283   3.539  1.00  0.00     0.035 A 
HETATM    6  C   UNL     1      43.177 -17.026   2.725  1.00  0.00     0.032 A 
HETATM    7  C   UNL     1      42.995 -16.716   1.368  1.00  0.00     0.039 A 
HETATM    8  C   UNL     1      41.723 -16.703   0.796  1.00  0.00     0.069 A 
HETATM    9  C   UNL     1      40.637 -17.089   1.577  1.00  0.00     0.039 A 
HETATM   10  C   UNL     1      40.817 -17.369   2.936  1.00  0.00     0.032 A 
BRANCH   8  11
HETATM   11  O   UNL     1      41.675 -16.288  -0.505  1.00  0.00    -0.342 OA
BRANCH  11  12
HETATM   12  C   UNL     1      41.323 -14.929  -0.751  1.00  0.00     0.278 C 
BRANCH  12  13
HETATM   13  C   UNL     1      40.629 -14.769  -2.103  1.00  0.00     0.241 C 
HETATM   14  N   UNL     1      39.947 -15.893  -2.521  1.00  0.00    -0.364 N 
HETATM   15  C   UNL     1      39.401 -16.011  -3.848  1.00  0.00     0.149 C 
HETATM   16  H   UNL     1      39.937 -16.696  -1.900  1.00  0.00     0.161 HD
HETATM   17  O   UNL     1      40.764 -13.762  -2.794  1.00  0.00    -0.271 OA
ENDBRANCH  12  13
ENDBRANCH  11  12
ENDBRANCH   8  11
ENDBRANCH   2   5
BRANCH   1  18
HETATM   18  C   UNL     1      41.566 -15.267   5.907  1.00  0.00     0.076 A 
HETATM   19  C   UNL     1      40.238 -14.782   5.856  1.00  0.00     0.158 A 
HETATM   20  N   UNL     1      40.166 -13.469   5.655  1.00  0.00    -0.183 NA
HETATM   21  N   UNL     1      41.454 -13.070   5.675  1.00  0.00    -0.268 N 
HETATM   22  C   UNL     1      42.341 -14.110   5.878  1.00  0.00     0.052 A 
BRANCH  21  23
HETATM   23  C   UNL     1      41.769 -11.664   5.419  1.00  0.00     0.106 C 
HETATM   24  C   UNL     1      41.209 -11.255   4.053  1.00  0.00     0.034 C 
BRANCH  23  25
HETATM   25  C   UNL     1      41.284 -10.691   6.513  1.00  0.00     0.022 C 
HETATM   26  C   UNL     1      41.983 -10.908   7.849  1.00  0.00     0.007 C 
ENDBRANCH  23  25
ENDBRANCH  21  23
BRANCH  22  27
HETATM   27  C   UNL     1      43.858 -13.924   5.999  1.00  0.00     0.038 A 
HETATM   28  C   UNL     1      44.447 -13.585   7.350  1.00  0.00     0.011 A 
HETATM   29  C   UNL     1      44.737 -14.910   6.724  1.00  0.00     0.011 A 
ENDBRANCH  22  27
ENDBRANCH   1  18
TORSDOF 8
ENDMDL
