MODEL 1
REMARK VINA RESULT:      -8.2      0.000      0.000
REMARK  4 active torsions:
REMARK  status: ('A' for Active; 'I' for Inactive)
REMARK    1  A    between atoms: C_4  and  N_5 
REMARK    2  A    between atoms: N_5  and  N_6 
REMARK       I    between atoms: N_6  and  C_7 
REMARK    3  A    between atoms: C_7  and  C_8 
REMARK    4  A    between atoms: C_9  and  C_10 
ROOT
HETATM    1  C   UNL     1      40.827 -14.834   3.696  1.00  0.00     0.081 A 
HETATM    2  C   UNL     1      41.103 -14.733   5.094  1.00  0.00     0.106 A 
HETATM    3  N   UNL     1      40.289 -13.845   5.687  1.00  0.00    -0.173 NA
HETATM    4  N   UNL     1      39.513 -13.385   4.699  1.00  0.00    -0.288 N 
HETATM    5  H   UNL     1      38.811 -12.686   4.923  1.00  0.00     0.188 HD
HETATM    6  C   UNL     1      39.775 -13.959   3.496  1.00  0.00     0.128 A 
ENDROOT
BRANCH   1   7
HETATM    7  C   UNL     1      41.411 -15.661   2.652  1.00  0.00     0.270 C 
HETATM    8  N   UNL     1      41.293 -17.026   2.848  1.00  0.00    -0.283 N 
HETATM    9  H   UNL     1      40.887 -17.438   3.681  1.00  0.00     0.184 HD
HETATM   10  O   UNL     1      41.977 -15.164   1.681  1.00  0.00    -0.266 OA
BRANCH   8  11
HETATM   11  N   UNL     1      41.917 -17.880   1.924  1.00  0.00    -0.203 NA
HETATM   12  H   UNL     1      41.242 -18.347   1.318  1.00  0.00     0.153 HD
BRANCH  11  13
HETATM   13  C   UNL     1      42.900 -18.740   2.460  1.00  0.00     0.028 A 
HETATM   14  C   UNL     1      43.248 -19.952   1.846  1.00  0.00     0.032 A 
HETATM   15  C   UNL     1      44.174 -20.829   2.433  1.00  0.00    -0.060 A 
HETATM   16  C   UNL     1      44.499 -22.143   1.786  1.00  0.00     0.048 C 
HETATM   17  C   UNL     1      44.732 -20.500   3.672  1.00  0.00     0.007 A 
HETATM   18  C   UNL     1      44.374 -19.313   4.309  1.00  0.00     0.002 A 
HETATM   19  C   UNL     1      43.457 -18.447   3.711  1.00  0.00     0.025 A 
ENDBRANCH  11  13
ENDBRANCH   8  11
ENDBRANCH   1   7
BRANCH   2  20
HETATM   20  C   UNL     1      42.041 -15.511   5.899  1.00  0.00     0.017 A 
HETATM   21  C   UNL     1      43.392 -15.160   6.036  1.00  0.00     0.046 A 
HETATM   22 CL   UNL     1      44.100 -13.828   5.190  1.00  0.00    -0.083 Cl
HETATM   23  C   UNL     1      44.238 -15.928   6.843  1.00  0.00     0.025 A 
HETATM   24  C   UNL     1      43.748 -17.054   7.509  1.00  0.00     0.002 A 
HETATM   25  C   UNL     1      42.410 -17.415   7.370  1.00  0.00     0.001 A 
HETATM   26  C   UNL     1      41.559 -16.647   6.573  1.00  0.00     0.016 A 
ENDBRANCH   2  20
TORSDOF 4
ENDMDL
MODEL 2
REMARK VINA RESULT:      -8.1      1.145      1.522
REMARK  4 active torsions:
REMARK  status: ('A' for Active; 'I' for Inactive)
REMARK    1  A    between atoms: C_4  and  N_5 
REMARK    2  A    between atoms: N_5  and  N_6 
REMARK       I    between atoms: N_6  and  C_7 
REMARK    3  A    between atoms: C_7  and  C_8 
REMARK    4  A    between atoms: C_9  and  C_10 
ROOT
HETATM    1  C   UNL     1      40.902 -14.481   3.662  1.00  0.00     0.081 A 
HETATM    2  C   UNL     1      41.189 -14.358   5.056  1.00  0.00     0.106 A 
HETATM    3  N   UNL     1      40.376 -13.464   5.643  1.00  0.00    -0.173 NA
HETATM    4  N   UNL     1      39.590 -13.022   4.654  1.00  0.00    -0.288 N 
HETATM    5  H   UNL     1      38.887 -12.323   4.874  1.00  0.00     0.188 HD
HETATM    6  C   UNL     1      39.844 -13.613   3.458  1.00  0.00     0.128 A 
ENDROOT
BRANCH   1   7
HETATM    7  C   UNL     1      41.481 -15.321   2.626  1.00  0.00     0.270 C 
HETATM    8  N   UNL     1      41.300 -16.682   2.802  1.00  0.00    -0.283 N 
HETATM    9  H   UNL     1      40.853 -17.085   3.618  1.00  0.00     0.184 HD
HETATM   10  O   UNL     1      42.095 -14.838   1.677  1.00  0.00    -0.266 OA
BRANCH   8  11
HETATM   11  N   UNL     1      41.914 -17.551   1.886  1.00  0.00    -0.203 NA
HETATM   12  H   UNL     1      41.236 -17.994   1.265  1.00  0.00     0.153 HD
BRANCH  11  13
HETATM   13  C   UNL     1      42.858 -18.445   2.437  1.00  0.00     0.028 A 
HETATM   14  C   UNL     1      43.173 -19.668   1.828  1.00  0.00     0.032 A 
HETATM   15  C   UNL     1      44.059 -20.577   2.429  1.00  0.00    -0.060 A 
HETATM   16  C   UNL     1      44.347 -21.902   1.788  1.00  0.00     0.048 C 
HETATM   17  C   UNL     1      44.608 -20.267   3.677  1.00  0.00     0.007 A 
HETATM   18  C   UNL     1      44.283 -19.068   4.309  1.00  0.00     0.002 A 
HETATM   19  C   UNL     1      43.406 -18.171   3.697  1.00  0.00     0.025 A 
ENDBRANCH  11  13
ENDBRANCH   8  11
ENDBRANCH   1   7
BRANCH   2  20
HETATM   20  C   UNL     1      42.137 -15.119   5.865  1.00  0.00     0.017 A 
HETATM   21  C   UNL     1      41.808 -16.345   6.462  1.00  0.00     0.046 A 
HETATM   22 CL   UNL     1      40.221 -17.028   6.379  1.00  0.00    -0.083 Cl
HETATM   23  C   UNL     1      42.767 -17.043   7.204  1.00  0.00     0.025 A 
HETATM   24  C   UNL     1      44.053 -16.522   7.363  1.00  0.00     0.002 A 
HETATM   25  C   UNL     1      44.384 -15.301   6.783  1.00  0.00     0.001 A 
HETATM   26  C   UNL     1      43.434 -14.603   6.034  1.00  0.00     0.016 A 
ENDBRANCH   2  20
TORSDOF 4
ENDMDL
MODEL 3
REMARK VINA RESULT:      -8.0      2.830      4.252
REMARK  4 active torsions:
REMARK  status: ('A' for Active; 'I' for Inactive)
REMARK    1  A    between atoms: C_4  and  N_5 
REMARK    2  A    between atoms: N_5  and  N_6 
REMARK       I    between atoms: N_6  and  C_7 
REMARK    3  A    between atoms: C_7  and  C_8 
REMARK    4  A    between atoms: C_9  and  C_10 
ROOT
HETATM    1  C   UNL     1      43.791 -15.830   6.709  1.00  0.00     0.081 A 
HETATM    2  C   UNL     1      43.224 -15.213   5.551  1.00  0.00     0.106 A 
HETATM    3  N   UNL     1      43.297 -13.875   5.629  1.00  0.00    -0.173 NA
HETATM    4  N   UNL     1      43.890 -13.636   6.804  1.00  0.00    -0.288 N 
HETATM    5  H   UNL     1      44.048 -12.671   7.077  1.00  0.00     0.188 HD
HETATM    6  C   UNL     1      44.228 -14.767   7.477  1.00  0.00     0.128 A 
ENDROOT
BRANCH   1   7
HETATM    7  C   UNL     1      43.965 -17.227   7.072  1.00  0.00     0.270 C 
HETATM    8  N   UNL     1      44.555 -18.018   6.101  1.00  0.00    -0.283 N 
HETATM    9  H   UNL     1      44.797 -17.680   5.176  1.00  0.00     0.184 HD
HETATM   10  O   UNL     1      43.598 -17.657   8.163  1.00  0.00    -0.266 OA
BRANCH   8  11
HETATM   11  N   UNL     1      44.668 -19.395   6.354  1.00  0.00    -0.203 NA
HETATM   12  H   UNL     1      45.439 -19.606   6.988  1.00  0.00     0.153 HD
BRANCH  11  13
HETATM   13  C   UNL     1      44.618 -20.227   5.214  1.00  0.00     0.028 A 
HETATM   14  C   UNL     1      44.253 -19.741   3.950  1.00  0.00     0.032 A 
HETATM   15  C   UNL     1      44.137 -20.598   2.844  1.00  0.00    -0.060 A 
HETATM   16  C   UNL     1      43.700 -20.069   1.510  1.00  0.00     0.048 C 
HETATM   17  C   UNL     1      44.355 -21.968   3.019  1.00  0.00     0.007 A 
HETATM   18  C   UNL     1      44.689 -22.471   4.274  1.00  0.00     0.002 A 
HETATM   19  C   UNL     1      44.808 -21.607   5.365  1.00  0.00     0.025 A 
ENDBRANCH  11  13
ENDBRANCH   8  11
ENDBRANCH   1   7
BRANCH   2  20
HETATM   20  C   UNL     1      42.705 -15.844   4.341  1.00  0.00     0.017 A 
HETATM   21  C   UNL     1      41.534 -16.617   4.333  1.00  0.00     0.046 A 
HETATM   22 CL   UNL     1      40.644 -16.976   5.773  1.00  0.00    -0.083 Cl
HETATM   23  C   UNL     1      41.069 -17.176   3.138  1.00  0.00     0.025 A 
HETATM   24  C   UNL     1      41.771 -16.977   1.947  1.00  0.00     0.002 A 
HETATM   25  C   UNL     1      42.940 -16.220   1.947  1.00  0.00     0.001 A 
HETATM   26  C   UNL     1      43.404 -15.653   3.136  1.00  0.00     0.016 A 
ENDBRANCH   2  20
TORSDOF 4
ENDMDL
MODEL 4
REMARK VINA RESULT:      -7.8      3.863      7.592
REMARK  4 active torsions:
REMARK  status: ('A' for Active; 'I' for Inactive)
REMARK    1  A    between atoms: C_4  and  N_5 
REMARK    2  A    between atoms: N_5  and  N_6 
REMARK       I    between atoms: N_6  and  C_7 
REMARK    3  A    between atoms: C_7  and  C_8 
REMARK    4  A    between atoms: C_9  and  C_10 
ROOT
HETATM    1  C   UNL     1      43.819 -17.421   7.030  1.00  0.00     0.081 A 
HETATM    2  C   UNL     1      43.720 -18.633   6.278  1.00  0.00     0.106 A 
HETATM    3  N   UNL     1      43.696 -19.705   7.085  1.00  0.00    -0.173 NA
HETATM    4  N   UNL     1      43.780 -19.200   8.322  1.00  0.00    -0.288 N 
HETATM    5  H   UNL     1      43.781 -19.845   9.106  1.00  0.00     0.188 HD
HETATM    6  C   UNL     1      43.831 -17.843   8.347  1.00  0.00     0.128 A 
ENDROOT
BRANCH   1   7
HETATM    7  C   UNL     1      43.853 -16.028   6.618  1.00  0.00     0.270 C 
HETATM    8  N   UNL     1      43.875 -15.108   7.653  1.00  0.00    -0.283 N 
HETATM    9  H   UNL     1      43.810 -15.367   8.631  1.00  0.00     0.184 HD
HETATM   10  O   UNL     1      43.850 -15.709   5.432  1.00  0.00    -0.266 OA
BRANCH   8  11
HETATM   11  N   UNL     1      43.816 -13.744   7.323  1.00  0.00    -0.203 NA
HETATM   12  H   UNL     1      43.921 -13.589   6.320  1.00  0.00     0.153 HD
BRANCH  11  13
HETATM   13  C   UNL     1      44.606 -12.892   8.124  1.00  0.00     0.028 A 
HETATM   14  C   UNL     1      44.071 -12.173   9.203  1.00  0.00     0.032 A 
HETATM   15  C   UNL     1      44.855 -11.273   9.942  1.00  0.00    -0.060 A 
HETATM   16  C   UNL     1      44.255 -10.477  11.062  1.00  0.00     0.048 C 
HETATM   17  C   UNL     1      46.187 -11.066   9.569  1.00  0.00     0.007 A 
HETATM   18  C   UNL     1      46.725 -11.751   8.481  1.00  0.00     0.002 A 
HETATM   19  C   UNL     1      45.936 -12.648   7.759  1.00  0.00     0.025 A 
ENDBRANCH  11  13
ENDBRANCH   8  11
ENDBRANCH   1   7
BRANCH   2  20
HETATM   20  C   UNL     1      43.555 -18.802   4.838  1.00  0.00     0.017 A 
HETATM   21  C   UNL     1      42.422 -18.348   4.146  1.00  0.00     0.046 A 
HETATM   22 CL   UNL     1      41.068 -17.627   4.947  1.00  0.00    -0.083 Cl
HETATM   23  C   UNL     1      42.332 -18.515   2.760  1.00  0.00     0.025 A 
HETATM   24  C   UNL     1      43.362 -19.143   2.057  1.00  0.00     0.002 A 
HETATM   25  C   UNL     1      44.485 -19.606   2.736  1.00  0.00     0.001 A 
HETATM   26  C   UNL     1      44.585 -19.435   4.119  1.00  0.00     0.016 A 
ENDBRANCH   2  20
TORSDOF 4
ENDMDL
MODEL 5
REMARK VINA RESULT:      -7.8      2.834      6.068
REMARK  4 active torsions:
REMARK  status: ('A' for Active; 'I' for Inactive)
REMARK    1  A    between atoms: C_4  and  N_5 
REMARK    2  A    between atoms: N_5  and  N_6 
REMARK       I    between atoms: N_6  and  C_7 
REMARK    3  A    between atoms: C_7  and  C_8 
REMARK    4  A    between atoms: C_9  and  C_10 
ROOT
HETATM    1  C   UNL     1      43.286 -17.702   5.380  1.00  0.00     0.081 A 
HETATM    2  C   UNL     1      44.381 -18.611   5.238  1.00  0.00     0.106 A 
HETATM    3  N   UNL     1      45.439 -18.215   5.964  1.00  0.00    -0.173 NA
HETATM    4  N   UNL     1      45.039 -17.082   6.555  1.00  0.00    -0.288 N 
HETATM    5  H   UNL     1      45.693 -16.599   7.162  1.00  0.00     0.188 HD
HETATM    6  C   UNL     1      43.756 -16.745   6.260  1.00  0.00     0.128 A 
ENDROOT
BRANCH   1   7
HETATM    7  C   UNL     1      41.943 -17.712   4.824  1.00  0.00     0.270 C 
HETATM    8  N   UNL     1      41.716 -16.789   3.818  1.00  0.00    -0.283 N 
HETATM    9  H   UNL     1      42.405 -16.107   3.520  1.00  0.00     0.184 HD
HETATM   10  O   UNL     1      41.082 -18.484   5.240  1.00  0.00    -0.266 OA
BRANCH   8  11
HETATM   11  N   UNL     1      40.414 -16.684   3.302  1.00  0.00    -0.203 NA
HETATM   12  H   UNL     1      39.966 -17.596   3.209  1.00  0.00     0.153 HD
BRANCH  11  13
HETATM   13  C   UNL     1      40.276 -15.857   2.167  1.00  0.00     0.028 A 
HETATM   14  C   UNL     1      39.103 -15.134   1.907  1.00  0.00     0.032 A 
HETATM   15  C   UNL     1      38.957 -14.375   0.735  1.00  0.00    -0.060 A 
HETATM   16  C   UNL     1      37.676 -13.647   0.450  1.00  0.00     0.048 C 
HETATM   17  C   UNL     1      39.991 -14.371  -0.206  1.00  0.00     0.007 A 
HETATM   18  C   UNL     1      41.152 -15.107   0.023  1.00  0.00     0.002 A 
HETATM   19  C   UNL     1      41.286 -15.852   1.196  1.00  0.00     0.025 A 
ENDBRANCH  11  13
ENDBRANCH   8  11
ENDBRANCH   1   7
BRANCH   2  20
HETATM   20  C   UNL     1      44.427 -19.880   4.518  1.00  0.00     0.017 A 
HETATM   21  C   UNL     1      44.372 -19.958   3.118  1.00  0.00     0.046 A 
HETATM   22 CL   UNL     1      44.150 -18.567   2.114  1.00  0.00    -0.083 Cl
HETATM   23  C   UNL     1      44.448 -21.201   2.481  1.00  0.00     0.025 A 
HETATM   24  C   UNL     1      44.568 -22.372   3.232  1.00  0.00     0.002 A 
HETATM   25  C   UNL     1      44.613 -22.305   4.622  1.00  0.00     0.001 A 
HETATM   26  C   UNL     1      44.546 -21.066   5.263  1.00  0.00     0.016 A 
ENDBRANCH   2  20
TORSDOF 4
ENDMDL
MODEL 6
REMARK VINA RESULT:      -7.5      2.696      4.131
REMARK  4 active torsions:
REMARK  status: ('A' for Active; 'I' for Inactive)
REMARK    1  A    between atoms: C_4  and  N_5 
REMARK    2  A    between atoms: N_5  and  N_6 
REMARK       I    between atoms: N_6  and  C_7 
REMARK    3  A    between atoms: C_7  and  C_8 
REMARK    4  A    between atoms: C_9  and  C_10 
ROOT
HETATM    1  C   UNL     1      42.903 -14.444   4.810  1.00  0.00     0.081 A 
HETATM    2  C   UNL     1      42.619 -14.604   3.419  1.00  0.00     0.106 A 
HETATM    3  N   UNL     1      42.288 -13.432   2.853  1.00  0.00    -0.173 NA
HETATM    4  N   UNL     1      42.355 -12.543   3.851  1.00  0.00    -0.288 N 
HETATM    5  H   UNL     1      42.137 -11.573   3.648  1.00  0.00     0.188 HD
HETATM    6  C   UNL     1      42.740 -13.089   5.034  1.00  0.00     0.128 A 
ENDROOT
BRANCH   1   7
HETATM    7  C   UNL     1      43.322 -15.396   5.827  1.00  0.00     0.270 C 
HETATM    8  N   UNL     1      42.775 -16.662   5.708  1.00  0.00    -0.283 N 
HETATM    9  H   UNL     1      42.085 -16.909   5.008  1.00  0.00     0.184 HD
HETATM   10  O   UNL     1      44.095 -15.075   6.726  1.00  0.00    -0.266 OA
BRANCH   8  11
HETATM   11  N   UNL     1      43.067 -17.602   6.711  1.00  0.00    -0.203 NA
HETATM   12  H   UNL     1      43.577 -17.184   7.489  1.00  0.00     0.153 HD
BRANCH  11  13
HETATM   13  C   UNL     1      43.608 -18.824   6.258  1.00  0.00     0.028 A 
HETATM   14  C   UNL     1      44.057 -18.999   4.940  1.00  0.00     0.032 A 
HETATM   15  C   UNL     1      44.524 -20.244   4.488  1.00  0.00    -0.060 A 
HETATM   16  C   UNL     1      44.954 -20.426   3.062  1.00  0.00     0.048 C 
HETATM   17  C   UNL     1      44.505 -21.336   5.360  1.00  0.00     0.007 A 
HETATM   18  C   UNL     1      44.035 -21.185   6.663  1.00  0.00     0.002 A 
HETATM   19  C   UNL     1      43.580 -19.940   7.103  1.00  0.00     0.025 A 
ENDBRANCH  11  13
ENDBRANCH   8  11
ENDBRANCH   1   7
BRANCH   2  20
HETATM   20  C   UNL     1      42.739 -15.802   2.593  1.00  0.00     0.017 A 
HETATM   21  C   UNL     1      41.624 -16.497   2.101  1.00  0.00     0.046 A 
HETATM   22 CL   UNL     1      40.000 -16.057   2.502  1.00  0.00    -0.083 Cl
HETATM   23  C   UNL     1      41.800 -17.625   1.292  1.00  0.00     0.025 A 
HETATM   24  C   UNL     1      43.085 -18.072   0.977  1.00  0.00     0.002 A 
HETATM   25  C   UNL     1      44.197 -17.395   1.469  1.00  0.00     0.001 A 
HETATM   26  C   UNL     1      44.027 -16.264   2.271  1.00  0.00     0.016 A 
ENDBRANCH   2  20
TORSDOF 4
ENDMDL
MODEL 7
REMARK VINA RESULT:      -7.5      2.364      3.533
REMARK  4 active torsions:
REMARK  status: ('A' for Active; 'I' for Inactive)
REMARK    1  A    between atoms: C_4  and  N_5 
REMARK    2  A    between atoms: N_5  and  N_6 
REMARK       I    between atoms: N_6  and  C_7 
REMARK    3  A    between atoms: C_7  and  C_8 
REMARK    4  A    between atoms: C_9  and  C_10 
ROOT
HETATM    1  C   UNL     1      42.004 -14.878   0.697  1.00  0.00     0.081 A 
HETATM    2  C   UNL     1      42.118 -13.864   1.698  1.00  0.00     0.106 A 
HETATM    3  N   UNL     1      41.913 -12.643   1.179  1.00  0.00    -0.173 NA
HETATM    4  N   UNL     1      41.676 -12.864  -0.120  1.00  0.00    -0.288 N 
HETATM    5  H   UNL     1      41.493 -12.064  -0.718  1.00  0.00     0.188 HD
HETATM    6  C   UNL     1      41.694 -14.180  -0.455  1.00  0.00     0.128 A 
ENDROOT
BRANCH   1   7
HETATM    7  C   UNL     1      42.115 -16.326   0.771  1.00  0.00     0.270 C 
HETATM    8  N   UNL     1      43.353 -16.802   1.170  1.00  0.00    -0.283 N 
HETATM    9  H   UNL     1      44.152 -16.203   1.342  1.00  0.00     0.184 HD
HETATM   10  O   UNL     1      41.171 -17.057   0.483  1.00  0.00    -0.266 OA
BRANCH   8  11
HETATM   11  N   UNL     1      43.554 -18.192   1.172  1.00  0.00    -0.203 NA
HETATM   12  H   UNL     1      42.814 -18.686   0.674  1.00  0.00     0.153 HD
BRANCH  11  13
HETATM   13  C   UNL     1      43.879 -18.755   2.425  1.00  0.00     0.028 A 
HETATM   14  C   UNL     1      43.916 -17.991   3.601  1.00  0.00     0.032 A 
HETATM   15  C   UNL     1      44.314 -18.553   4.825  1.00  0.00    -0.060 A 
HETATM   16  C   UNL     1      44.393 -17.709   6.062  1.00  0.00     0.048 C 
HETATM   17  C   UNL     1      44.714 -19.892   4.860  1.00  0.00     0.007 A 
HETATM   18  C   UNL     1      44.712 -20.656   3.696  1.00  0.00     0.002 A 
HETATM   19  C   UNL     1      44.308 -20.087   2.487  1.00  0.00     0.025 A 
ENDBRANCH  11  13
ENDBRANCH   8  11
ENDBRANCH   1   7
BRANCH   2  20
HETATM   20  C   UNL     1      42.322 -14.018   3.136  1.00  0.00     0.017 A 
HETATM   21  C   UNL     1      41.280 -14.344   4.017  1.00  0.00     0.046 A 
HETATM   22 CL   UNL     1      39.637 -14.502   3.501  1.00  0.00    -0.083 Cl
HETATM   23  C   UNL     1      41.540 -14.505   5.383  1.00  0.00     0.025 A 
HETATM   24  C   UNL     1      42.834 -14.334   5.879  1.00  0.00     0.002 A 
HETATM   25  C   UNL     1      43.872 -14.000   5.013  1.00  0.00     0.001 A 
HETATM   26  C   UNL     1      43.620 -13.846   3.648  1.00  0.00     0.016 A 
ENDBRANCH   2  20
TORSDOF 4
ENDMDL
MODEL 8
REMARK VINA RESULT:      -7.4      3.811      7.229
REMARK  4 active torsions:
REMARK  status: ('A' for Active; 'I' for Inactive)
REMARK    1  A    between atoms: C_4  and  N_5 
REMARK    2  A    between atoms: N_5  and  N_6 
REMARK       I    between atoms: N_6  and  C_7 
REMARK    3  A    between atoms: C_7  and  C_8 
REMARK    4  A    between atoms: C_9  and  C_10 
ROOT
HETATM    1  C   UNL     1      42.558 -15.761   5.929  1.00  0.00     0.081 A 
HETATM    2  C   UNL     1      42.234 -17.031   5.359  1.00  0.00     0.106 A 
HETATM    3  N   UNL     1      41.000 -17.026   4.829  1.00  0.00    -0.173 NA
HETATM    4  N   UNL     1      40.541 -15.789   5.053  1.00  0.00    -0.288 N 
HETATM    5  H   UNL     1      39.606 -15.557   4.732  1.00  0.00     0.188 HD
HETATM    6  C   UNL     1      41.438 -14.987   5.683  1.00  0.00     0.128 A 
ENDROOT
BRANCH   1   7
HETATM    7  C   UNL     1      43.760 -15.274   6.584  1.00  0.00     0.270 C 
HETATM    8  N   UNL     1      43.681 -13.981   7.075  1.00  0.00    -0.283 N 
HETATM    9  H   UNL     1      42.874 -13.382   6.941  1.00  0.00     0.184 HD
HETATM   10  O   UNL     1      44.769 -15.970   6.675  1.00  0.00    -0.266 OA
BRANCH   8  11
HETATM   11  N   UNL     1      44.838 -13.419   7.637  1.00  0.00    -0.203 NA
HETATM   12  H   UNL     1      45.527 -14.129   7.885  1.00  0.00     0.153 HD
BRANCH  11  13
HETATM   13  C   UNL     1      44.616 -12.456   8.645  1.00  0.00     0.028 A 
HETATM   14  C   UNL     1      43.447 -11.683   8.696  1.00  0.00     0.032 A 
HETATM   15  C   UNL     1      43.276 -10.680   9.663  1.00  0.00    -0.060 A 
HETATM   16  C   UNL     1      42.039  -9.830   9.672  1.00  0.00     0.048 C 
HETATM   17  C   UNL     1      44.309 -10.425  10.569  1.00  0.00     0.007 A 
HETATM   18  C   UNL     1      45.489 -11.164  10.514  1.00  0.00     0.002 A 
HETATM   19  C   UNL     1      45.643 -12.164   9.551  1.00  0.00     0.025 A 
ENDBRANCH  11  13
ENDBRANCH   8  11
ENDBRANCH   1   7
BRANCH   2  20
HETATM   20  C   UNL     1      43.081 -18.212   5.219  1.00  0.00     0.017 A 
HETATM   21  C   UNL     1      43.801 -18.493   4.048  1.00  0.00     0.046 A 
HETATM   22 CL   UNL     1      43.681 -17.518   2.624  1.00  0.00    -0.083 Cl
HETATM   23  C   UNL     1      44.618 -19.626   3.981  1.00  0.00     0.025 A 
HETATM   24  C   UNL     1      44.716 -20.490   5.074  1.00  0.00     0.002 A 
HETATM   25  C   UNL     1      43.997 -20.225   6.236  1.00  0.00     0.001 A 
HETATM   26  C   UNL     1      43.186 -19.091   6.312  1.00  0.00     0.016 A 
ENDBRANCH   2  20
TORSDOF 4
ENDMDL
MODEL 9
REMARK VINA RESULT:      -7.3      4.667      5.979
REMARK  4 active torsions:
REMARK  status: ('A' for Active; 'I' for Inactive)
REMARK    1  A    between atoms: C_4  and  N_5 
REMARK    2  A    between atoms: N_5  and  N_6 
REMARK       I    between atoms: N_6  and  C_7 
REMARK    3  A    between atoms: C_7  and  C_8 
REMARK    4  A    between atoms: C_9  and  C_10 
ROOT
HETATM    1  C   UNL     1      45.250 -12.893   8.012  1.00  0.00     0.081 A 
HETATM    2  C   UNL     1      45.168 -11.878   9.016  1.00  0.00     0.106 A 
HETATM    3  N   UNL     1      46.236 -11.065   8.973  1.00  0.00    -0.173 NA
HETATM    4  N   UNL     1      46.986 -11.543   7.973  1.00  0.00    -0.288 N 
HETATM    5  H   UNL     1      47.860 -11.074   7.759  1.00  0.00     0.188 HD
HETATM    6  C   UNL     1      46.433 -12.617   7.351  1.00  0.00     0.128 A 
ENDROOT
BRANCH   1   7
HETATM    7  C   UNL     1      44.344 -13.970   7.651  1.00  0.00     0.270 C 
HETATM    8  N   UNL     1      43.497 -13.697   6.591  1.00  0.00    -0.283 N 
HETATM    9  H   UNL     1      43.455 -12.796   6.128  1.00  0.00     0.184 HD
HETATM   10  O   UNL     1      44.336 -15.035   8.265  1.00  0.00    -0.266 OA
BRANCH   8  11
HETATM   11  N   UNL     1      42.534 -14.661   6.252  1.00  0.00    -0.203 NA
HETATM   12  H   UNL     1      42.219 -15.190   7.066  1.00  0.00     0.153 HD
BRANCH  11  13
HETATM   13  C   UNL     1      42.845 -15.461   5.132  1.00  0.00     0.028 A 
HETATM   14  C   UNL     1      43.169 -16.821   5.251  1.00  0.00     0.032 A 
HETATM   15  C   UNL     1      43.548 -17.582   4.134  1.00  0.00    -0.060 A 
HETATM   16  C   UNL     1      43.938 -19.023   4.288  1.00  0.00     0.048 C 
HETATM   17  C   UNL     1      43.638 -16.960   2.885  1.00  0.00     0.007 A 
HETATM   18  C   UNL     1      43.348 -15.603   2.755  1.00  0.00     0.002 A 
HETATM   19  C   UNL     1      42.966 -14.860   3.873  1.00  0.00     0.025 A 
ENDBRANCH  11  13
ENDBRANCH   8  11
ENDBRANCH   1   7
BRANCH   2  20
HETATM   20  C   UNL     1      44.078 -11.598   9.946  1.00  0.00     0.017 A 
HETATM   21  C   UNL     1      42.846 -11.072   9.531  1.00  0.00     0.046 A 
HETATM   22 CL   UNL     1      42.531 -10.615   7.893  1.00  0.00    -0.083 Cl
HETATM   23  C   UNL     1      41.827 -10.850  10.465  1.00  0.00     0.025 A 
HETATM   24  C   UNL     1      42.033 -11.140  11.815  1.00  0.00     0.002 A 
HETATM   25  C   UNL     1      43.257 -11.653  12.237  1.00  0.00     0.001 A 
HETATM   26  C   UNL     1      44.274 -11.885  11.308  1.00  0.00     0.016 A 
ENDBRANCH   2  20
TORSDOF 4
ENDMDL
MODEL 10
REMARK VINA RESULT:      -7.3      3.181      5.543
REMARK  4 active torsions:
REMARK  status: ('A' for Active; 'I' for Inactive)
REMARK    1  A    between atoms: C_4  and  N_5 
REMARK    2  A    between atoms: N_5  and  N_6 
REMARK       I    between atoms: N_6  and  C_7 
REMARK    3  A    between atoms: C_7  and  C_8 
REMARK    4  A    between atoms: C_9  and  C_10 
ROOT
HETATM    1  C   UNL     1      41.724 -15.329   4.597  1.00  0.00     0.081 A 
HETATM    2  C   UNL     1      41.724 -16.752   4.729  1.00  0.00     0.106 A 
HETATM    3  N   UNL     1      40.799 -17.158   5.614  1.00  0.00    -0.173 NA
HETATM    4  N   UNL     1      40.221 -16.029   6.041  1.00  0.00    -0.288 N 
HETATM    5  H   UNL     1      39.479 -16.099   6.731  1.00  0.00     0.188 HD
HETATM    6  C   UNL     1      40.718 -14.912   5.449  1.00  0.00     0.128 A 
ENDROOT
BRANCH   1   7
HETATM    7  C   UNL     1      42.510 -14.436   3.762  1.00  0.00     0.270 C 
HETATM    8  N   UNL     1      41.774 -13.566   2.975  1.00  0.00    -0.283 N 
HETATM    9  H   UNL     1      40.761 -13.578   2.926  1.00  0.00     0.184 HD
HETATM   10  O   UNL     1      43.738 -14.475   3.759  1.00  0.00    -0.266 OA
BRANCH   8  11
HETATM   11  N   UNL     1      42.471 -12.740   2.078  1.00  0.00    -0.203 NA
HETATM   12  H   UNL     1      42.525 -11.777   2.408  1.00  0.00     0.153 HD
BRANCH  11  13
HETATM   13  C   UNL     1      42.094 -12.864   0.723  1.00  0.00     0.028 A 
HETATM   14  C   UNL     1      41.673 -14.083   0.172  1.00  0.00     0.032 A 
HETATM   15  C   UNL     1      41.373 -14.203  -1.194  1.00  0.00    -0.060 A 
HETATM   16  C   UNL     1      40.971 -15.526  -1.775  1.00  0.00     0.048 C 
HETATM   17  C   UNL     1      41.534 -13.090  -2.026  1.00  0.00     0.007 A 
HETATM   18  C   UNL     1      41.979 -11.880  -1.500  1.00  0.00     0.002 A 
HETATM   19  C   UNL     1      42.267 -11.772  -0.138  1.00  0.00     0.025 A 
ENDBRANCH  11  13
ENDBRANCH   8  11
ENDBRANCH   1   7
BRANCH   2  20
HETATM   20  C   UNL     1      42.501 -17.739   3.984  1.00  0.00     0.017 A 
HETATM   21  C   UNL     1      42.260 -18.028   2.633  1.00  0.00     0.046 A 
HETATM   22 CL   UNL     1      40.959 -17.313   1.743  1.00  0.00    -0.083 Cl
HETATM   23  C   UNL     1      43.055 -18.965   1.963  1.00  0.00     0.025 A 
HETATM   24  C   UNL     1      44.085 -19.624   2.635  1.00  0.00     0.002 A 
HETATM   25  C   UNL     1      44.324 -19.351   3.979  1.00  0.00     0.001 A 
HETATM   26  C   UNL     1      43.540 -18.411   4.651  1.00  0.00     0.016 A 
ENDBRANCH   2  20
TORSDOF 4
ENDMDL
