MODEL 1
REMARK VINA RESULT:      -8.7      0.000      0.000
REMARK  8 active torsions:
REMARK  status: ('A' for Active; 'I' for Inactive)
REMARK    1  A    between atoms: C_7  and  C_8 
REMARK       I    between atoms: C_8  and  N_9 
REMARK    2  A    between atoms: N_9  and  S_10 
REMARK    3  A    between atoms: S_10  and  N_11 
REMARK    4  A    between atoms: N_11  and  C_12 
REMARK    5  A    between atoms: C_12  and  C_13 
REMARK    6  A    between atoms: C_13  and  C_14 
REMARK    7  A    between atoms: C_16  and  O_17 
REMARK    8  A    between atoms: C_19  and  O_20 
ROOT
HETATM    1  S   UNL     1      41.180 -15.449   4.445  1.00  0.00     0.303 S 
HETATM    2  O   UNL     1      40.240 -15.362   5.534  1.00  0.00    -0.188 OA
HETATM    3  O   UNL     1      41.807 -14.268   3.901  1.00  0.00    -0.188 OA
ENDROOT
BRANCH   1   4
HETATM    4  N   UNL     1      42.400 -16.454   4.915  1.00  0.00    -0.237 N 
HETATM    5  C   UNL     1      43.338 -16.939   3.995  1.00  0.00     0.268 C 
HETATM    6  O   UNL     1      43.595 -16.319   2.969  1.00  0.00    -0.267 OA
HETATM    7  H   UNL     1      42.058 -17.101   5.611  1.00  0.00     0.183 HD
BRANCH   5   8
HETATM    8  C   UNL     1      43.963 -18.226   4.321  1.00  0.00     0.067 A 
HETATM    9  C   UNL     1      44.713 -18.598   5.440  1.00  0.00     0.022 A 
HETATM   10  C   UNL     1      45.179 -17.868   6.651  1.00  0.00     0.069 C 
HETATM   11  N   UNL     1      45.060 -19.922   5.287  1.00  0.00    -0.358 N 
HETATM   12  H   UNL     1      45.603 -20.461   5.949  1.00  0.00     0.166 HD
HETATM   13  C   UNL     1      44.595 -20.422   4.100  1.00  0.00     0.043 A 
HETATM   14  C   UNL     1      43.906 -19.392   3.466  1.00  0.00     0.008 A 
HETATM   15  C   UNL     1      44.735 -21.702   3.547  1.00  0.00     0.030 A 
HETATM   16  C   UNL     1      43.322 -19.664   2.208  1.00  0.00     0.015 A 
HETATM   17  C   UNL     1      43.453 -20.935   1.637  1.00  0.00     0.001 A 
HETATM   18  C   UNL     1      44.150 -21.938   2.300  1.00  0.00     0.002 A 
ENDBRANCH   5   8
ENDBRANCH   1   4
BRANCH   1  19
HETATM   19  N   UNL     1      40.473 -16.315   3.194  1.00  0.00    -0.202 NA
HETATM   20  H   UNL     1      39.526 -16.571   3.509  1.00  0.00     0.141 HD
BRANCH  19  21
HETATM   21  C   UNL     1      40.363 -15.589   1.902  1.00  0.00     0.110 C 
BRANCH  21  22
HETATM   22  C   UNL     1      41.149 -16.251   0.773  1.00  0.00     0.054 C 
BRANCH  22  23
HETATM   23  C   UNL     1      41.220 -15.331  -0.423  1.00  0.00    -0.054 A 
HETATM   24  C   UNL     1      40.721 -15.757  -1.665  1.00  0.00     0.046 A 
HETATM   25  C   UNL     1      40.840 -14.952  -2.804  1.00  0.00     0.102 A 
HETATM   26  C   UNL     1      41.478 -13.701  -2.701  1.00  0.00     0.101 A 
HETATM   27  C   UNL     1      41.959 -13.268  -1.461  1.00  0.00     0.040 A 
HETATM   28  C   UNL     1      41.835 -14.080  -0.330  1.00  0.00     0.010 A 
BRANCH  25  29
HETATM   29  O   UNL     1      40.391 -15.302  -4.053  1.00  0.00    -0.353 OA
HETATM   30  C   UNL     1      39.195 -16.065  -4.133  1.00  0.00     0.210 C 
ENDBRANCH  25  29
BRANCH  26  31
HETATM   31  O   UNL     1      41.566 -12.967  -3.859  1.00  0.00    -0.353 OA
HETATM   32  C   UNL     1      41.966 -11.610  -3.734  1.00  0.00     0.210 C 
ENDBRANCH  26  31
ENDBRANCH  22  23
ENDBRANCH  21  22
ENDBRANCH  19  21
ENDBRANCH   1  19
TORSDOF 8
ENDMDL
MODEL 2
REMARK VINA RESULT:      -8.3      1.779      2.340
REMARK  8 active torsions:
REMARK  status: ('A' for Active; 'I' for Inactive)
REMARK    1  A    between atoms: C_7  and  C_8 
REMARK       I    between atoms: C_8  and  N_9 
REMARK    2  A    between atoms: N_9  and  S_10 
REMARK    3  A    between atoms: S_10  and  N_11 
REMARK    4  A    between atoms: N_11  and  C_12 
REMARK    5  A    between atoms: C_12  and  C_13 
REMARK    6  A    between atoms: C_13  and  C_14 
REMARK    7  A    between atoms: C_16  and  O_17 
REMARK    8  A    between atoms: C_19  and  O_20 
ROOT
HETATM    1  S   UNL     1      43.182 -13.995   4.039  1.00  0.00     0.303 S 
HETATM    2  O   UNL     1      44.082 -13.630   5.103  1.00  0.00    -0.188 OA
HETATM    3  O   UNL     1      43.262 -13.365   2.742  1.00  0.00    -0.188 OA
ENDROOT
BRANCH   1   4
HETATM    4  N   UNL     1      43.338 -15.617   3.783  1.00  0.00    -0.237 N 
HETATM    5  C   UNL     1      43.051 -16.543   4.793  1.00  0.00     0.268 C 
HETATM    6  O   UNL     1      42.263 -16.272   5.693  1.00  0.00    -0.267 OA
HETATM    7  H   UNL     1      44.151 -15.793   3.212  1.00  0.00     0.183 HD
BRANCH   5   8
HETATM    8  C   UNL     1      43.761 -17.825   4.721  1.00  0.00     0.067 A 
HETATM    9  C   UNL     1      44.687 -18.385   5.607  1.00  0.00     0.022 A 
HETATM   10  C   UNL     1      45.309 -17.911   6.873  1.00  0.00     0.069 C 
HETATM   11  N   UNL     1      45.050 -19.614   5.105  1.00  0.00    -0.358 N 
HETATM   12  H   UNL     1      45.707 -20.249   5.540  1.00  0.00     0.166 HD
HETATM   13  C   UNL     1      44.424 -19.869   3.914  1.00  0.00     0.043 A 
HETATM   14  C   UNL     1      43.611 -18.772   3.639  1.00  0.00     0.008 A 
HETATM   15  C   UNL     1      44.520 -20.981   3.067  1.00  0.00     0.030 A 
HETATM   16  C   UNL     1      42.850 -18.797   2.449  1.00  0.00     0.015 A 
HETATM   17  C   UNL     1      42.933 -19.898   1.588  1.00  0.00     0.001 A 
HETATM   18  C   UNL     1      43.758 -20.974   1.896  1.00  0.00     0.002 A 
ENDBRANCH   5   8
ENDBRANCH   1   4
BRANCH   1  19
HETATM   19  N   UNL     1      41.607 -13.878   4.603  1.00  0.00    -0.202 NA
HETATM   20  H   UNL     1      41.602 -13.134   5.316  1.00  0.00     0.141 HD
BRANCH  19  21
HETATM   21  C   UNL     1      40.585 -13.553   3.573  1.00  0.00     0.110 C 
BRANCH  21  22
HETATM   22  C   UNL     1      39.945 -14.792   2.952  1.00  0.00     0.054 C 
BRANCH  22  23
HETATM   23  C   UNL     1      40.162 -14.798   1.456  1.00  0.00    -0.054 A 
HETATM   24  C   UNL     1      39.307 -14.057   0.623  1.00  0.00     0.046 A 
HETATM   25  C   UNL     1      39.443 -14.103  -0.770  1.00  0.00     0.102 A 
HETATM   26  C   UNL     1      40.444 -14.911  -1.340  1.00  0.00     0.101 A 
HETATM   27  C   UNL     1      41.307 -15.634  -0.510  1.00  0.00     0.040 A 
HETATM   28  C   UNL     1      41.164 -15.582   0.880  1.00  0.00     0.010 A 
BRANCH  25  29
HETATM   29  O   UNL     1      38.640 -13.421  -1.650  1.00  0.00    -0.353 OA
HETATM   30  C   UNL     1      37.738 -12.462  -1.113  1.00  0.00     0.210 C 
ENDBRANCH  25  29
BRANCH  26  31
HETATM   31  O   UNL     1      40.515 -14.913  -2.712  1.00  0.00    -0.353 OA
HETATM   32  C   UNL     1      41.552 -14.144  -3.306  1.00  0.00     0.210 C 
ENDBRANCH  26  31
ENDBRANCH  22  23
ENDBRANCH  21  22
ENDBRANCH  19  21
ENDBRANCH   1  19
TORSDOF 8
ENDMDL
MODEL 3
REMARK VINA RESULT:      -8.2      4.926      8.380
REMARK  8 active torsions:
REMARK  status: ('A' for Active; 'I' for Inactive)
REMARK    1  A    between atoms: C_7  and  C_8 
REMARK       I    between atoms: C_8  and  N_9 
REMARK    2  A    between atoms: N_9  and  S_10 
REMARK    3  A    between atoms: S_10  and  N_11 
REMARK    4  A    between atoms: N_11  and  C_12 
REMARK    5  A    between atoms: C_12  and  C_13 
REMARK    6  A    between atoms: C_13  and  C_14 
REMARK    7  A    between atoms: C_16  and  O_17 
REMARK    8  A    between atoms: C_19  and  O_20 
ROOT
HETATM    1  S   UNL     1      42.816 -14.561   4.877  1.00  0.00     0.303 S 
HETATM    2  O   UNL     1      42.470 -13.910   3.639  1.00  0.00    -0.188 OA
HETATM    3  O   UNL     1      41.806 -14.903   5.850  1.00  0.00    -0.188 OA
ENDROOT
BRANCH   1   4
HETATM    4  N   UNL     1      43.601 -15.963   4.505  1.00  0.00    -0.237 N 
HETATM    5  C   UNL     1      42.900 -17.154   4.285  1.00  0.00     0.268 C 
HETATM    6  O   UNL     1      41.735 -17.139   3.900  1.00  0.00    -0.267 OA
HETATM    7  H   UNL     1      44.458 -16.022   5.035  1.00  0.00     0.183 HD
BRANCH   5   8
HETATM    8  C   UNL     1      43.625 -18.398   4.567  1.00  0.00     0.067 A 
HETATM    9  C   UNL     1      44.322 -18.786   5.715  1.00  0.00     0.022 A 
HETATM   10  C   UNL     1      44.617 -18.115   7.010  1.00  0.00     0.069 C 
HETATM   11  N   UNL     1      44.812 -20.054   5.495  1.00  0.00    -0.358 N 
HETATM   12  H   UNL     1      45.356 -20.590   6.158  1.00  0.00     0.166 HD
HETATM   13  C   UNL     1      44.492 -20.498   4.240  1.00  0.00     0.043 A 
HETATM   14  C   UNL     1      43.752 -19.490   3.628  1.00  0.00     0.008 A 
HETATM   15  C   UNL     1      44.803 -21.709   3.608  1.00  0.00     0.030 A 
HETATM   16  C   UNL     1      43.297 -19.714   2.308  1.00  0.00     0.015 A 
HETATM   17  C   UNL     1      43.599 -20.916   1.659  1.00  0.00     0.001 A 
HETATM   18  C   UNL     1      44.342 -21.899   2.303  1.00  0.00     0.002 A 
ENDBRANCH   5   8
ENDBRANCH   1   4
BRANCH   1  19
HETATM   19  N   UNL     1      44.021 -13.672   5.633  1.00  0.00    -0.202 NA
HETATM   20  H   UNL     1      43.752 -12.681   5.553  1.00  0.00     0.141 HD
BRANCH  19  21
HETATM   21  C   UNL     1      44.238 -13.990   7.069  1.00  0.00     0.110 C 
BRANCH  21  22
HETATM   22  C   UNL     1      45.374 -13.184   7.696  1.00  0.00     0.054 C 
BRANCH  22  23
HETATM   23  C   UNL     1      44.832 -12.267   8.768  1.00  0.00    -0.054 A 
HETATM   24  C   UNL     1      43.620 -11.588   8.561  1.00  0.00     0.046 A 
HETATM   25  C   UNL     1      43.135 -10.679   9.508  1.00  0.00     0.102 A 
HETATM   26  C   UNL     1      43.877 -10.438  10.680  1.00  0.00     0.101 A 
HETATM   27  C   UNL     1      45.074 -11.129  10.895  1.00  0.00     0.040 A 
HETATM   28  C   UNL     1      45.552 -12.034   9.943  1.00  0.00     0.010 A 
BRANCH  25  29
HETATM   29  O   UNL     1      41.969  -9.966   9.373  1.00  0.00    -0.353 OA
HETATM   30  C   UNL     1      40.745 -10.665   9.553  1.00  0.00     0.210 C 
ENDBRANCH  25  29
BRANCH  26  31
HETATM   31  O   UNL     1      43.345  -9.529  11.561  1.00  0.00    -0.353 OA
HETATM   32  C   UNL     1      43.452  -9.833  12.944  1.00  0.00     0.210 C 
ENDBRANCH  26  31
ENDBRANCH  22  23
ENDBRANCH  21  22
ENDBRANCH  19  21
ENDBRANCH   1  19
TORSDOF 8
ENDMDL
MODEL 4
REMARK VINA RESULT:      -8.2      2.260      3.642
REMARK  8 active torsions:
REMARK  status: ('A' for Active; 'I' for Inactive)
REMARK    1  A    between atoms: C_7  and  C_8 
REMARK       I    between atoms: C_8  and  N_9 
REMARK    2  A    between atoms: N_9  and  S_10 
REMARK    3  A    between atoms: S_10  and  N_11 
REMARK    4  A    between atoms: N_11  and  C_12 
REMARK    5  A    between atoms: C_12  and  C_13 
REMARK    6  A    between atoms: C_13  and  C_14 
REMARK    7  A    between atoms: C_16  and  O_17 
REMARK    8  A    between atoms: C_19  and  O_20 
ROOT
HETATM    1  S   UNL     1      43.620 -14.702   5.777  1.00  0.00     0.303 S 
HETATM    2  O   UNL     1      44.390 -15.205   6.886  1.00  0.00    -0.188 OA
HETATM    3  O   UNL     1      43.998 -13.489   5.092  1.00  0.00    -0.188 OA
ENDROOT
BRANCH   1   4
HETATM    4  N   UNL     1      43.559 -15.888   4.631  1.00  0.00    -0.237 N 
HETATM    5  C   UNL     1      43.074 -17.166   4.932  1.00  0.00     0.268 C 
HETATM    6  O   UNL     1      42.274 -17.339   5.845  1.00  0.00    -0.267 OA
HETATM    7  H   UNL     1      44.375 -15.830   4.040  1.00  0.00     0.183 HD
BRANCH   5   8
HETATM    8  C   UNL     1      43.596 -18.268   4.116  1.00  0.00     0.067 A 
HETATM    9  C   UNL     1      43.836 -18.326   2.740  1.00  0.00     0.022 A 
HETATM   10  C   UNL     1      43.632 -17.364   1.623  1.00  0.00     0.069 C 
HETATM   11  N   UNL     1      44.346 -19.574   2.459  1.00  0.00    -0.358 N 
HETATM   12  H   UNL     1      44.616 -19.898   1.540  1.00  0.00     0.166 HD
HETATM   13  C   UNL     1      44.420 -20.345   3.589  1.00  0.00     0.043 A 
HETATM   14  C   UNL     1      43.957 -19.565   4.645  1.00  0.00     0.008 A 
HETATM   15  C   UNL     1      44.858 -21.666   3.748  1.00  0.00     0.030 A 
HETATM   16  C   UNL     1      43.938 -20.144   5.934  1.00  0.00     0.015 A 
HETATM   17  C   UNL     1      44.369 -21.463   6.114  1.00  0.00     0.001 A 
HETATM   18  C   UNL     1      44.822 -22.212   5.034  1.00  0.00     0.002 A 
ENDBRANCH   5   8
ENDBRANCH   1   4
BRANCH   1  19
HETATM   19  N   UNL     1      42.015 -14.585   6.247  1.00  0.00    -0.202 NA
HETATM   20  H   UNL     1      42.011 -14.155   7.184  1.00  0.00     0.141 HD
BRANCH  19  21
HETATM   21  C   UNL     1      41.148 -13.775   5.350  1.00  0.00     0.110 C 
BRANCH  21  22
HETATM   22  C   UNL     1      40.230 -14.627   4.476  1.00  0.00     0.054 C 
BRANCH  22  23
HETATM   23  C   UNL     1      40.681 -14.567   3.034  1.00  0.00    -0.054 A 
HETATM   24  C   UNL     1      41.410 -13.458   2.575  1.00  0.00     0.046 A 
HETATM   25  C   UNL     1      41.776 -13.346   1.229  1.00  0.00     0.102 A 
HETATM   26  C   UNL     1      41.400 -14.356   0.323  1.00  0.00     0.101 A 
HETATM   27  C   UNL     1      40.690 -15.469   0.784  1.00  0.00     0.040 A 
HETATM   28  C   UNL     1      40.328 -15.572   2.131  1.00  0.00     0.010 A 
BRANCH  25  29
HETATM   29  O   UNL     1      42.475 -12.289   0.700  1.00  0.00    -0.353 OA
HETATM   30  C   UNL     1      41.816 -11.031   0.631  1.00  0.00     0.210 C 
ENDBRANCH  25  29
BRANCH  26  31
HETATM   31  O   UNL     1      41.787 -14.177  -0.982  1.00  0.00    -0.353 OA
HETATM   32  C   UNL     1      40.761 -13.912  -1.929  1.00  0.00     0.210 C 
ENDBRANCH  26  31
ENDBRANCH  22  23
ENDBRANCH  21  22
ENDBRANCH  19  21
ENDBRANCH   1  19
TORSDOF 8
ENDMDL
MODEL 5
REMARK VINA RESULT:      -8.1      2.617      3.874
REMARK  8 active torsions:
REMARK  status: ('A' for Active; 'I' for Inactive)
REMARK    1  A    between atoms: C_7  and  C_8 
REMARK       I    between atoms: C_8  and  N_9 
REMARK    2  A    between atoms: N_9  and  S_10 
REMARK    3  A    between atoms: S_10  and  N_11 
REMARK    4  A    between atoms: N_11  and  C_12 
REMARK    5  A    between atoms: C_12  and  C_13 
REMARK    6  A    between atoms: C_13  and  C_14 
REMARK    7  A    between atoms: C_16  and  O_17 
REMARK    8  A    between atoms: C_19  and  O_20 
ROOT
HETATM    1  S   UNL     1      43.629 -15.619   6.958  1.00  0.00     0.303 S 
HETATM    2  O   UNL     1      43.240 -16.610   7.929  1.00  0.00    -0.188 OA
HETATM    3  O   UNL     1      44.700 -14.689   7.226  1.00  0.00    -0.188 OA
ENDROOT
BRANCH   1   4
HETATM    4  N   UNL     1      44.032 -16.411   5.568  1.00  0.00    -0.237 N 
HETATM    5  C   UNL     1      43.087 -17.164   4.860  1.00  0.00     0.268 C 
HETATM    6  O   UNL     1      41.890 -16.910   4.938  1.00  0.00    -0.267 OA
HETATM    7  H   UNL     1      44.960 -16.798   5.656  1.00  0.00     0.183 HD
BRANCH   5   8
HETATM    8  C   UNL     1      43.611 -18.273   4.054  1.00  0.00     0.067 A 
HETATM    9  C   UNL     1      43.864 -18.338   2.680  1.00  0.00     0.022 A 
HETATM   10  C   UNL     1      43.676 -17.379   1.557  1.00  0.00     0.069 C 
HETATM   11  N   UNL     1      44.370 -19.589   2.410  1.00  0.00    -0.358 N 
HETATM   12  H   UNL     1      44.648 -19.919   1.495  1.00  0.00     0.166 HD
HETATM   13  C   UNL     1      44.429 -20.356   3.543  1.00  0.00     0.043 A 
HETATM   14  C   UNL     1      43.961 -19.569   4.592  1.00  0.00     0.008 A 
HETATM   15  C   UNL     1      44.859 -21.678   3.713  1.00  0.00     0.030 A 
HETATM   16  C   UNL     1      43.926 -20.142   5.883  1.00  0.00     0.015 A 
HETATM   17  C   UNL     1      44.348 -21.463   6.074  1.00  0.00     0.001 A 
HETATM   18  C   UNL     1      44.808 -22.218   5.001  1.00  0.00     0.002 A 
ENDBRANCH   5   8
ENDBRANCH   1   4
BRANCH   1  19
HETATM   19  N   UNL     1      42.266 -14.761   6.491  1.00  0.00    -0.202 NA
HETATM   20  H   UNL     1      41.734 -14.559   7.350  1.00  0.00     0.141 HD
BRANCH  19  21
HETATM   21  C   UNL     1      42.534 -13.478   5.787  1.00  0.00     0.110 C 
BRANCH  21  22
HETATM   22  C   UNL     1      41.301 -12.908   5.092  1.00  0.00     0.054 C 
BRANCH  22  23
HETATM   23  C   UNL     1      41.164 -13.497   3.706  1.00  0.00    -0.054 A 
HETATM   24  C   UNL     1      39.916 -13.969   3.267  1.00  0.00     0.046 A 
HETATM   25  C   UNL     1      39.779 -14.583   2.017  1.00  0.00     0.102 A 
HETATM   26  C   UNL     1      40.911 -14.737   1.195  1.00  0.00     0.101 A 
HETATM   27  C   UNL     1      42.150 -14.251   1.624  1.00  0.00     0.040 A 
HETATM   28  C   UNL     1      42.277 -13.639   2.874  1.00  0.00     0.010 A 
BRANCH  25  29
HETATM   29  O   UNL     1      38.599 -15.082   1.523  1.00  0.00    -0.353 OA
HETATM   30  C   UNL     1      37.666 -14.155   0.984  1.00  0.00     0.210 C 
ENDBRANCH  25  29
BRANCH  26  31
HETATM   31  O   UNL     1      40.705 -15.355  -0.014  1.00  0.00    -0.353 OA
HETATM   32  C   UNL     1      40.876 -14.563  -1.181  1.00  0.00     0.210 C 
ENDBRANCH  26  31
ENDBRANCH  22  23
ENDBRANCH  21  22
ENDBRANCH  19  21
ENDBRANCH   1  19
TORSDOF 8
ENDMDL
MODEL 6
REMARK VINA RESULT:      -8.1      1.437      2.802
REMARK  8 active torsions:
REMARK  status: ('A' for Active; 'I' for Inactive)
REMARK    1  A    between atoms: C_7  and  C_8 
REMARK       I    between atoms: C_8  and  N_9 
REMARK    2  A    between atoms: N_9  and  S_10 
REMARK    3  A    between atoms: S_10  and  N_11 
REMARK    4  A    between atoms: N_11  and  C_12 
REMARK    5  A    between atoms: C_12  and  C_13 
REMARK    6  A    between atoms: C_13  and  C_14 
REMARK    7  A    between atoms: C_16  and  O_17 
REMARK    8  A    between atoms: C_19  and  O_20 
ROOT
HETATM    1  S   UNL     1      40.961 -15.002   4.215  1.00  0.00     0.303 S 
HETATM    2  O   UNL     1      39.837 -14.999   3.313  1.00  0.00    -0.188 OA
HETATM    3  O   UNL     1      40.812 -14.614   5.598  1.00  0.00    -0.188 OA
ENDROOT
BRANCH   1   4
HETATM    4  N   UNL     1      41.594 -16.525   4.221  1.00  0.00    -0.237 N 
HETATM    5  C   UNL     1      42.944 -16.751   4.518  1.00  0.00     0.268 C 
HETATM    6  O   UNL     1      43.577 -15.965   5.215  1.00  0.00    -0.267 OA
HETATM    7  H   UNL     1      41.190 -17.063   3.467  1.00  0.00     0.183 HD
BRANCH   5   8
HETATM    8  C   UNL     1      43.547 -17.952   3.930  1.00  0.00     0.067 A 
HETATM    9  C   UNL     1      43.944 -18.200   2.613  1.00  0.00     0.022 A 
HETATM   10  C   UNL     1      43.877 -17.406   1.356  1.00  0.00     0.069 C 
HETATM   11  N   UNL     1      44.473 -19.471   2.571  1.00  0.00    -0.358 N 
HETATM   12  H   UNL     1      44.845 -19.918   1.743  1.00  0.00     0.166 HD
HETATM   13  C   UNL     1      44.411 -20.075   3.798  1.00  0.00     0.043 A 
HETATM   14  C   UNL     1      43.836 -19.158   4.674  1.00  0.00     0.008 A 
HETATM   15  C   UNL     1      44.817 -21.357   4.190  1.00  0.00     0.030 A 
HETATM   16  C   UNL     1      43.664 -19.551   6.021  1.00  0.00     0.015 A 
HETATM   17  C   UNL     1      44.061 -20.828   6.433  1.00  0.00     0.001 A 
HETATM   18  C   UNL     1      44.630 -21.717   5.528  1.00  0.00     0.002 A 
ENDBRANCH   5   8
ENDBRANCH   1   4
BRANCH   1  19
HETATM   19  N   UNL     1      42.202 -14.108   3.529  1.00  0.00    -0.202 NA
HETATM   20  H   UNL     1      43.050 -14.305   4.081  1.00  0.00     0.141 HD
BRANCH  19  21
HETATM   21  C   UNL     1      42.487 -14.408   2.101  1.00  0.00     0.110 C 
BRANCH  21  22
HETATM   22  C   UNL     1      41.992 -13.320   1.150  1.00  0.00     0.054 C 
BRANCH  22  23
HETATM   23  C   UNL     1      41.656 -13.918  -0.197  1.00  0.00    -0.054 A 
HETATM   24  C   UNL     1      41.673 -13.109  -1.345  1.00  0.00     0.046 A 
HETATM   25  C   UNL     1      41.296 -13.622  -2.592  1.00  0.00     0.102 A 
HETATM   26  C   UNL     1      40.887 -14.966  -2.692  1.00  0.00     0.101 A 
HETATM   27  C   UNL     1      40.888 -15.776  -1.552  1.00  0.00     0.040 A 
HETATM   28  C   UNL     1      41.266 -15.255  -0.311  1.00  0.00     0.010 A 
BRANCH  25  29
HETATM   29  O   UNL     1      41.272 -12.894  -3.756  1.00  0.00    -0.353 OA
HETATM   30  C   UNL     1      42.178 -11.805  -3.870  1.00  0.00     0.210 C 
ENDBRANCH  25  29
BRANCH  26  31
HETATM   31  O   UNL     1      40.525 -15.399  -3.943  1.00  0.00    -0.353 OA
HETATM   32  C   UNL     1      39.189 -15.854  -4.107  1.00  0.00     0.210 C 
ENDBRANCH  26  31
ENDBRANCH  22  23
ENDBRANCH  21  22
ENDBRANCH  19  21
ENDBRANCH   1  19
TORSDOF 8
ENDMDL
MODEL 7
REMARK VINA RESULT:      -8.1      1.197      2.157
REMARK  8 active torsions:
REMARK  status: ('A' for Active; 'I' for Inactive)
REMARK    1  A    between atoms: C_7  and  C_8 
REMARK       I    between atoms: C_8  and  N_9 
REMARK    2  A    between atoms: N_9  and  S_10 
REMARK    3  A    between atoms: S_10  and  N_11 
REMARK    4  A    between atoms: N_11  and  C_12 
REMARK    5  A    between atoms: C_12  and  C_13 
REMARK    6  A    between atoms: C_13  and  C_14 
REMARK    7  A    between atoms: C_16  and  O_17 
REMARK    8  A    between atoms: C_19  and  O_20 
ROOT
HETATM    1  S   UNL     1      42.411 -14.214   4.526  1.00  0.00     0.303 S 
HETATM    2  O   UNL     1      41.552 -14.486   5.650  1.00  0.00    -0.188 OA
HETATM    3  O   UNL     1      43.383 -13.147   4.568  1.00  0.00    -0.188 OA
ENDROOT
BRANCH   1   4
HETATM    4  N   UNL     1      43.246 -15.596   4.186  1.00  0.00    -0.237 N 
HETATM    5  C   UNL     1      42.614 -16.845   4.186  1.00  0.00     0.268 C 
HETATM    6  O   UNL     1      41.412 -16.945   3.969  1.00  0.00    -0.267 OA
HETATM    7  H   UNL     1      44.168 -15.543   4.594  1.00  0.00     0.183 HD
BRANCH   5   8
HETATM    8  C   UNL     1      43.465 -18.004   4.483  1.00  0.00     0.067 A 
HETATM    9  C   UNL     1      44.264 -18.262   5.601  1.00  0.00     0.022 A 
HETATM   10  C   UNL     1      44.578 -17.493   6.836  1.00  0.00     0.069 C 
HETATM   11  N   UNL     1      44.851 -19.494   5.416  1.00  0.00    -0.358 N 
HETATM   12  H   UNL     1      45.481 -19.942   6.069  1.00  0.00     0.166 HD
HETATM   13  C   UNL     1      44.493 -20.037   4.211  1.00  0.00     0.043 A 
HETATM   14  C   UNL     1      43.629 -19.134   3.597  1.00  0.00     0.008 A 
HETATM   15  C   UNL     1      44.872 -21.252   3.625  1.00  0.00     0.030 A 
HETATM   16  C   UNL     1      43.114 -19.474   2.326  1.00  0.00     0.015 A 
HETATM   17  C   UNL     1      43.482 -20.682   1.722  1.00  0.00     0.001 A 
HETATM   18  C   UNL     1      44.349 -21.557   2.365  1.00  0.00     0.002 A 
ENDBRANCH   5   8
ENDBRANCH   1   4
BRANCH   1  19
HETATM   19  N   UNL     1      41.462 -14.031   3.156  1.00  0.00    -0.202 NA
HETATM   20  H   UNL     1      40.924 -13.161   3.282  1.00  0.00     0.141 HD
BRANCH  19  21
HETATM   21  C   UNL     1      42.208 -13.945   1.873  1.00  0.00     0.110 C 
BRANCH  21  22
HETATM   22  C   UNL     1      41.598 -12.949   0.889  1.00  0.00     0.054 C 
BRANCH  22  23
HETATM   23  C   UNL     1      41.301 -13.631  -0.427  1.00  0.00    -0.054 A 
HETATM   24  C   UNL     1      40.948 -12.863  -1.549  1.00  0.00     0.046 A 
HETATM   25  C   UNL     1      40.599 -13.474  -2.758  1.00  0.00     0.102 A 
HETATM   26  C   UNL     1      40.595 -14.879  -2.847  1.00  0.00     0.101 A 
HETATM   27  C   UNL     1      40.964 -15.644  -1.735  1.00  0.00     0.040 A 
HETATM   28  C   UNL     1      41.311 -15.024  -0.531  1.00  0.00     0.010 A 
BRANCH  25  29
HETATM   29  O   UNL     1      40.229 -12.795  -3.893  1.00  0.00    -0.353 OA
HETATM   30  C   UNL     1      40.767 -11.493  -4.086  1.00  0.00     0.210 C 
ENDBRANCH  25  29
BRANCH  26  31
HETATM   31  O   UNL     1      40.236 -15.411  -4.061  1.00  0.00    -0.353 OA
HETATM   32  C   UNL     1      39.042 -16.179  -4.101  1.00  0.00     0.210 C 
ENDBRANCH  26  31
ENDBRANCH  22  23
ENDBRANCH  21  22
ENDBRANCH  19  21
ENDBRANCH   1  19
TORSDOF 8
ENDMDL
MODEL 8
REMARK VINA RESULT:      -8.0      2.623      8.584
REMARK  8 active torsions:
REMARK  status: ('A' for Active; 'I' for Inactive)
REMARK    1  A    between atoms: C_7  and  C_8 
REMARK       I    between atoms: C_8  and  N_9 
REMARK    2  A    between atoms: N_9  and  S_10 
REMARK    3  A    between atoms: S_10  and  N_11 
REMARK    4  A    between atoms: N_11  and  C_12 
REMARK    5  A    between atoms: C_12  and  C_13 
REMARK    6  A    between atoms: C_13  and  C_14 
REMARK    7  A    between atoms: C_16  and  O_17 
REMARK    8  A    between atoms: C_19  and  O_20 
ROOT
HETATM    1  S   UNL     1      39.794 -15.026   1.898  1.00  0.00     0.303 S 
HETATM    2  O   UNL     1      38.967 -14.033   2.536  1.00  0.00    -0.188 OA
HETATM    3  O   UNL     1      39.541 -16.436   2.075  1.00  0.00    -0.188 OA
ENDROOT
BRANCH   1   4
HETATM    4  N   UNL     1      39.754 -14.743   0.273  1.00  0.00    -0.237 N 
HETATM    5  C   UNL     1      40.839 -15.072  -0.549  1.00  0.00     0.268 C 
HETATM    6  O   UNL     1      41.622 -15.962  -0.235  1.00  0.00    -0.267 OA
HETATM    7  H   UNL     1      39.287 -13.866   0.094  1.00  0.00     0.183 HD
BRANCH   5   8
HETATM    8  C   UNL     1      40.991 -14.278  -1.774  1.00  0.00     0.067 A 
HETATM    9  C   UNL     1      40.532 -14.538  -3.069  1.00  0.00     0.022 A 
HETATM   10  C   UNL     1      39.789 -15.671  -3.685  1.00  0.00     0.069 C 
HETATM   11  N   UNL     1      40.913 -13.480  -3.864  1.00  0.00    -0.358 N 
HETATM   12  H   UNL     1      40.713 -13.394  -4.852  1.00  0.00     0.166 HD
HETATM   13  C   UNL     1      41.628 -12.555  -3.150  1.00  0.00     0.043 A 
HETATM   14  C   UNL     1      41.700 -13.020  -1.840  1.00  0.00     0.008 A 
HETATM   15  C   UNL     1      42.211 -11.352  -3.568  1.00  0.00     0.030 A 
HETATM   16  C   UNL     1      42.394 -12.229  -0.896  1.00  0.00     0.015 A 
HETATM   17  C   UNL     1      42.987 -11.025  -1.294  1.00  0.00     0.001 A 
HETATM   18  C   UNL     1      42.894 -10.595  -2.613  1.00  0.00     0.002 A 
ENDBRANCH   5   8
ENDBRANCH   1   4
BRANCH   1  19
HETATM   19  N   UNL     1      41.398 -14.710   2.271  1.00  0.00    -0.202 NA
HETATM   20  H   UNL     1      41.468 -13.695   2.440  1.00  0.00     0.141 HD
BRANCH  19  21
HETATM   21  C   UNL     1      41.925 -15.426   3.463  1.00  0.00     0.110 C 
BRANCH  21  22
HETATM   22  C   UNL     1      43.404 -15.787   3.339  1.00  0.00     0.054 C 
BRANCH  22  23
HETATM   23  C   UNL     1      43.569 -17.286   3.251  1.00  0.00    -0.054 A 
HETATM   24  C   UNL     1      43.941 -18.017   4.392  1.00  0.00     0.046 A 
HETATM   25  C   UNL     1      44.170 -19.396   4.320  1.00  0.00     0.102 A 
HETATM   26  C   UNL     1      44.034 -20.056   3.084  1.00  0.00     0.101 A 
HETATM   27  C   UNL     1      43.645 -19.331   1.952  1.00  0.00     0.040 A 
HETATM   28  C   UNL     1      43.419 -17.954   2.034  1.00  0.00     0.010 A 
BRANCH  25  29
HETATM   29  O   UNL     1      44.549 -20.176   5.384  1.00  0.00    -0.353 OA
HETATM   30  C   UNL     1      43.832 -20.023   6.602  1.00  0.00     0.210 C 
ENDBRANCH  25  29
BRANCH  26  31
HETATM   31  O   UNL     1      44.281 -21.406   3.085  1.00  0.00    -0.353 OA
HETATM   32  C   UNL     1      44.532 -22.018   1.828  1.00  0.00     0.210 C 
ENDBRANCH  26  31
ENDBRANCH  22  23
ENDBRANCH  21  22
ENDBRANCH  19  21
ENDBRANCH   1  19
TORSDOF 8
ENDMDL
MODEL 9
REMARK VINA RESULT:      -8.0      1.406      2.028
REMARK  8 active torsions:
REMARK  status: ('A' for Active; 'I' for Inactive)
REMARK    1  A    between atoms: C_7  and  C_8 
REMARK       I    between atoms: C_8  and  N_9 
REMARK    2  A    between atoms: N_9  and  S_10 
REMARK    3  A    between atoms: S_10  and  N_11 
REMARK    4  A    between atoms: N_11  and  C_12 
REMARK    5  A    between atoms: C_12  and  C_13 
REMARK    6  A    between atoms: C_13  and  C_14 
REMARK    7  A    between atoms: C_16  and  O_17 
REMARK    8  A    between atoms: C_19  and  O_20 
ROOT
HETATM    1  S   UNL     1      41.089 -15.694   2.981  1.00  0.00     0.303 S 
HETATM    2  O   UNL     1      40.564 -16.589   1.981  1.00  0.00    -0.188 OA
HETATM    3  O   UNL     1      40.219 -15.026   3.920  1.00  0.00    -0.188 OA
ENDROOT
BRANCH   1   4
HETATM    4  N   UNL     1      42.189 -16.535   3.878  1.00  0.00    -0.237 N 
HETATM    5  C   UNL     1      43.324 -17.105   3.289  1.00  0.00     0.268 C 
HETATM    6  O   UNL     1      43.798 -16.645   2.256  1.00  0.00    -0.267 OA
HETATM    7  H   UNL     1      41.709 -17.079   4.579  1.00  0.00     0.183 HD
BRANCH   5   8
HETATM    8  C   UNL     1      43.884 -18.283   3.962  1.00  0.00     0.067 A 
HETATM    9  C   UNL     1      44.422 -18.407   5.246  1.00  0.00     0.022 A 
HETATM   10  C   UNL     1      44.661 -17.444   6.355  1.00  0.00     0.069 C 
HETATM   11  N   UNL     1      44.794 -19.722   5.415  1.00  0.00    -0.358 N 
HETATM   12  H   UNL     1      45.212 -20.105   6.253  1.00  0.00     0.166 HD
HETATM   13  C   UNL     1      44.551 -20.456   4.284  1.00  0.00     0.043 A 
HETATM   14  C   UNL     1      43.985 -19.590   3.352  1.00  0.00     0.008 A 
HETATM   15  C   UNL     1      44.792 -21.810   4.022  1.00  0.00     0.030 A 
HETATM   16  C   UNL     1      43.637 -20.118   2.088  1.00  0.00     0.015 A 
HETATM   17  C   UNL     1      43.872 -21.469   1.805  1.00  0.00     0.001 A 
HETATM   18  C   UNL     1      44.442 -22.301   2.762  1.00  0.00     0.002 A 
ENDBRANCH   5   8
ENDBRANCH   1   4
BRANCH   1  19
HETATM   19  N   UNL     1      42.054 -14.550   2.224  1.00  0.00    -0.202 NA
HETATM   20  H   UNL     1      42.739 -15.069   1.656  1.00  0.00     0.141 HD
BRANCH  19  21
HETATM   21  C   UNL     1      41.332 -13.596   1.341  1.00  0.00     0.110 C 
BRANCH  21  22
HETATM   22  C   UNL     1      42.120 -12.316   1.071  1.00  0.00     0.054 C 
BRANCH  22  23
HETATM   23  C   UNL     1      42.192 -12.051  -0.415  1.00  0.00    -0.054 A 
HETATM   24  C   UNL     1      41.776 -13.040  -1.323  1.00  0.00     0.046 A 
HETATM   25  C   UNL     1      41.900 -12.846  -2.704  1.00  0.00     0.102 A 
HETATM   26  C   UNL     1      42.458 -11.647  -3.186  1.00  0.00     0.101 A 
HETATM   27  C   UNL     1      42.854 -10.655  -2.283  1.00  0.00     0.040 A 
HETATM   28  C   UNL     1      42.727 -10.858  -0.906  1.00  0.00     0.010 A 
BRANCH  25  29
HETATM   29  O   UNL     1      41.531 -13.767  -3.653  1.00  0.00    -0.353 OA
HETATM   30  C   UNL     1      40.859 -14.938  -3.208  1.00  0.00     0.210 C 
ENDBRANCH  25  29
BRANCH  26  31
HETATM   31  O   UNL     1      42.555 -11.528  -4.551  1.00  0.00    -0.353 OA
HETATM   32  C   UNL     1      41.725 -10.559  -5.175  1.00  0.00     0.210 C 
ENDBRANCH  26  31
ENDBRANCH  22  23
ENDBRANCH  21  22
ENDBRANCH  19  21
ENDBRANCH   1  19
TORSDOF 8
ENDMDL
MODEL 10
REMARK VINA RESULT:      -8.0      7.463     10.736
REMARK  8 active torsions:
REMARK  status: ('A' for Active; 'I' for Inactive)
REMARK    1  A    between atoms: C_7  and  C_8 
REMARK       I    between atoms: C_8  and  N_9 
REMARK    2  A    between atoms: N_9  and  S_10 
REMARK    3  A    between atoms: S_10  and  N_11 
REMARK    4  A    between atoms: N_11  and  C_12 
REMARK    5  A    between atoms: C_12  and  C_13 
REMARK    6  A    between atoms: C_13  and  C_14 
REMARK    7  A    between atoms: C_16  and  O_17 
REMARK    8  A    between atoms: C_19  and  O_20 
ROOT
HETATM    1  S   UNL     1      44.712 -12.302   9.759  1.00  0.00     0.303 S 
HETATM    2  O   UNL     1      45.120 -11.249   8.864  1.00  0.00    -0.188 OA
HETATM    3  O   UNL     1      45.531 -12.685  10.885  1.00  0.00    -0.188 OA
ENDROOT
BRANCH   1   4
HETATM    4  N   UNL     1      43.235 -11.896  10.370  1.00  0.00    -0.237 N 
HETATM    5  C   UNL     1      42.563 -10.743   9.945  1.00  0.00     0.268 C 
HETATM    6  O   UNL     1      42.773 -10.263   8.837  1.00  0.00    -0.267 OA
HETATM    7  H   UNL     1      43.205 -12.112  11.356  1.00  0.00     0.183 HD
BRANCH   5   8
HETATM    8  C   UNL     1      41.630 -10.143  10.905  1.00  0.00     0.067 A 
HETATM    9  C   UNL     1      40.265  -9.870  10.773  1.00  0.00     0.022 A 
HETATM   10  C   UNL     1      39.290 -10.034   9.660  1.00  0.00     0.069 C 
HETATM   11  N   UNL     1      39.834  -9.323  11.961  1.00  0.00    -0.358 N 
HETATM   12  H   UNL     1      38.886  -9.029  12.156  1.00  0.00     0.166 HD
HETATM   13  C   UNL     1      40.866  -9.198  12.853  1.00  0.00     0.043 A 
HETATM   14  C   UNL     1      42.006  -9.698  12.228  1.00  0.00     0.008 A 
HETATM   15  C   UNL     1      40.872  -8.681  14.154  1.00  0.00     0.030 A 
HETATM   16  C   UNL     1      43.218  -9.681  12.956  1.00  0.00     0.015 A 
HETATM   17  C   UNL     1      43.245  -9.166  14.257  1.00  0.00     0.001 A 
HETATM   18  C   UNL     1      42.086  -8.674  14.846  1.00  0.00     0.002 A 
ENDBRANCH   5   8
ENDBRANCH   1   4
BRANCH   1  19
HETATM   19  N   UNL     1      44.356 -13.668   8.855  1.00  0.00    -0.202 NA
HETATM   20  H   UNL     1      43.329 -13.743   8.823  1.00  0.00     0.141 HD
BRANCH  19  21
HETATM   21  C   UNL     1      44.874 -13.660   7.461  1.00  0.00     0.110 C 
BRANCH  21  22
HETATM   22  C   UNL     1      43.786 -13.896   6.416  1.00  0.00     0.054 C 
BRANCH  22  23
HETATM   23  C   UNL     1      43.868 -15.310   5.888  1.00  0.00    -0.054 A 
HETATM   24  C   UNL     1      43.384 -15.606   4.603  1.00  0.00     0.046 A 
HETATM   25  C   UNL     1      43.383 -16.919   4.120  1.00  0.00     0.102 A 
HETATM   26  C   UNL     1      43.865 -17.958   4.939  1.00  0.00     0.101 A 
HETATM   27  C   UNL     1      44.364 -17.661   6.212  1.00  0.00     0.040 A 
HETATM   28  C   UNL     1      44.361 -16.346   6.686  1.00  0.00     0.010 A 
BRANCH  25  29
HETATM   29  O   UNL     1      42.915 -17.291   2.884  1.00  0.00    -0.353 OA
HETATM   30  C   UNL     1      43.726 -16.993   1.756  1.00  0.00     0.210 C 
ENDBRANCH  25  29
BRANCH  26  31
HETATM   31  O   UNL     1      43.827 -19.222   4.404  1.00  0.00    -0.353 OA
HETATM   32  C   UNL     1      44.902 -20.092   4.729  1.00  0.00     0.210 C 
ENDBRANCH  26  31
ENDBRANCH  22  23
ENDBRANCH  21  22
ENDBRANCH  19  21
ENDBRANCH   1  19
TORSDOF 8
ENDMDL
