MODEL 1
REMARK VINA RESULT:      -8.8      0.000      0.000
REMARK  12 active torsions:
REMARK  status: ('A' for Active; 'I' for Inactive)
REMARK    1  A    between atoms: C_2  and  N_3 
REMARK    2  A    between atoms: N_3  and  C_5 
REMARK    3  A    between atoms: N_3  and  C_37 
REMARK    4  A    between atoms: C_5  and  C_6 
REMARK    5  A    between atoms: C_6  and  C_7 
REMARK    6  A    between atoms: C_7  and  N_8 
REMARK    7  A    between atoms: N_8  and  C_9 
REMARK    8  A    between atoms: C_9  and  N_10 
REMARK    9  A    between atoms: N_10  and  C_11 
REMARK   10  A    between atoms: N_10  and  C_26 
REMARK   11  A    between atoms: C_11  and  C_12 
REMARK   12  A    between atoms: C_26  and  C_27 
ROOT
HETATM    1  N   UNL     1      42.644 -16.802   5.024  1.00  0.00    -0.350 N 
ENDROOT
BRANCH   1   2
HETATM    2  C   UNL     1      42.720 -16.372   6.362  1.00  0.00     0.170 C 
HETATM    3  S   UNL     1      42.993 -17.382   7.680  1.00  0.00    -0.041 SA
BRANCH   2   4
HETATM    4  N   UNL     1      42.591 -15.001   6.521  1.00  0.00    -0.367 N 
HETATM    5  H   UNL     1      41.812 -14.699   7.096  1.00  0.00     0.161 HD
BRANCH   4   6
HETATM    6  C   UNL     1      43.653 -14.027   6.325  1.00  0.00     0.123 C 
BRANCH   6   7
HETATM    7  C   UNL     1      44.600 -13.985   7.520  1.00  0.00     0.047 C 
BRANCH   7   8
HETATM    8  C   UNL     1      44.742 -12.555   8.021  1.00  0.00     0.236 C 
BRANCH   8   9
HETATM    9  N   UNL     1      43.756 -12.210   9.127  1.00  0.00    -0.072 N 
HETATM   10  H   UNL     1      43.008 -12.913   9.052  1.00  0.00     0.279 HD
BRANCH   9  11
HETATM   11  C   UNL     1      43.062 -10.866   8.960  1.00  0.00     0.230 C 
HETATM   12  C   UNL     1      42.069 -10.888   7.812  1.00  0.00     0.034 C 
ENDBRANCH   9  11
BRANCH   9  13
HETATM   13  C   UNL     1      44.301 -12.350  10.540  1.00  0.00     0.230 C 
HETATM   14  C   UNL     1      44.537 -10.997  11.186  1.00  0.00     0.034 C 
ENDBRANCH   9  13
ENDBRANCH   8   9
ENDBRANCH   7   8
ENDBRANCH   6   7
ENDBRANCH   4   6
ENDBRANCH   2   4
ENDBRANCH   1   2
BRANCH   1  15
HETATM   15  C   UNL     1      41.379 -17.205   4.381  1.00  0.00     0.169 C 
BRANCH  15  16
HETATM   16  C   UNL     1      41.041 -16.367   3.175  1.00  0.00     0.029 A 
HETATM   17  C   UNL     1      40.285 -15.105   3.440  1.00  0.00     0.253 A 
HETATM   18  O   UNL     1      40.092 -14.692   4.583  1.00  0.00    -0.268 OA
HETATM   19  N   UNL     1      39.852 -14.384   2.360  1.00  0.00    -0.322 N 
HETATM   20  C   UNL     1      40.182 -14.700   1.037  1.00  0.00     0.048 A 
HETATM   21  H   UNL     1      39.288 -13.571   2.559  1.00  0.00     0.169 HD
HETATM   22  C   UNL     1      40.971 -15.843   0.784  1.00  0.00    -0.006 A 
HETATM   23  C   UNL     1      39.749 -13.868   0.003  1.00  0.00     0.070 A 
HETATM   24  C   UNL     1      41.337 -16.160  -0.529  1.00  0.00     0.053 A 
HETATM   25  C   UNL     1      41.372 -16.686   1.910  1.00  0.00     0.028 A 
HETATM   26  C   UNL     1      40.904 -15.320  -1.534  1.00  0.00     0.106 A 
HETATM   27  C   UNL     1      40.133 -14.209  -1.276  1.00  0.00     0.107 A 
HETATM   28  O   UNL     1      41.169 -15.466  -2.860  1.00  0.00    -0.323 OA
HETATM   29  O   UNL     1      39.824 -13.517  -2.404  1.00  0.00    -0.323 OA
HETATM   30  C   UNL     1      40.463 -14.333  -3.410  1.00  0.00     0.352 A 
ENDBRANCH  15  16
ENDBRANCH   1  15
BRANCH   1  31
HETATM   31  C   UNL     1      43.866 -17.118   4.252  1.00  0.00     0.164 C 
BRANCH  31  32
HETATM   32  C   UNL     1      44.031 -18.581   3.900  1.00  0.00    -0.037 A 
HETATM   33  C   UNL     1      44.373 -19.529   4.879  1.00  0.00     0.048 A 
HETATM   34  C   UNL     1      44.522 -20.847   4.492  1.00  0.00     0.105 A 
HETATM   35  C   UNL     1      44.358 -21.245   3.188  1.00  0.00     0.105 A 
HETATM   36  O   UNL     1      44.840 -21.882   5.314  1.00  0.00    -0.323 OA
HETATM   37  O   UNL     1      44.555 -22.580   3.023  1.00  0.00    -0.323 OA
HETATM   38  C   UNL     1      44.039 -20.350   2.195  1.00  0.00     0.040 A 
HETATM   39  C   UNL     1      44.882 -22.975   4.370  1.00  0.00     0.352 A 
HETATM   40  C   UNL     1      43.878 -19.009   2.558  1.00  0.00     0.012 A 
ENDBRANCH  31  32
ENDBRANCH   1  31
TORSDOF 12
ENDMDL
MODEL 2
REMARK VINA RESULT:      -8.4      1.813      2.604
REMARK  12 active torsions:
REMARK  status: ('A' for Active; 'I' for Inactive)
REMARK    1  A    between atoms: C_2  and  N_3 
REMARK    2  A    between atoms: N_3  and  C_5 
REMARK    3  A    between atoms: N_3  and  C_37 
REMARK    4  A    between atoms: C_5  and  C_6 
REMARK    5  A    between atoms: C_6  and  C_7 
REMARK    6  A    between atoms: C_7  and  N_8 
REMARK    7  A    between atoms: N_8  and  C_9 
REMARK    8  A    between atoms: C_9  and  N_10 
REMARK    9  A    between atoms: N_10  and  C_11 
REMARK   10  A    between atoms: N_10  and  C_26 
REMARK   11  A    between atoms: C_11  and  C_12 
REMARK   12  A    between atoms: C_26  and  C_27 
ROOT
HETATM    1  N   UNL     1      42.459 -16.838   4.813  1.00  0.00    -0.350 N 
ENDROOT
BRANCH   1   2
HETATM    2  C   UNL     1      42.476 -16.409   6.154  1.00  0.00     0.170 C 
HETATM    3  S   UNL     1      42.910 -17.372   7.464  1.00  0.00    -0.041 SA
BRANCH   2   4
HETATM    4  N   UNL     1      42.139 -15.074   6.322  1.00  0.00    -0.367 N 
HETATM    5  H   UNL     1      41.432 -14.887   7.024  1.00  0.00     0.161 HD
BRANCH   4   6
HETATM    6  C   UNL     1      42.962 -13.942   5.929  1.00  0.00     0.123 C 
BRANCH   6   7
HETATM    7  C   UNL     1      42.127 -12.678   5.754  1.00  0.00     0.047 C 
BRANCH   7   8
HETATM    8  C   UNL     1      42.088 -12.280   4.285  1.00  0.00     0.236 C 
BRANCH   8   9
HETATM    9  N   UNL     1      41.405 -10.941   4.048  1.00  0.00    -0.072 N 
HETATM   10  H   UNL     1      42.055 -10.407   3.456  1.00  0.00     0.279 HD
BRANCH   9  11
HETATM   11  C   UNL     1      41.216 -10.096   5.300  1.00  0.00     0.230 C 
HETATM   12  C   UNL     1      41.709  -8.676   5.095  1.00  0.00     0.034 C 
ENDBRANCH   9  11
BRANCH   9  13
HETATM   13  C   UNL     1      40.107 -11.012   3.259  1.00  0.00     0.230 C 
HETATM   14  C   UNL     1      38.927 -11.352   4.150  1.00  0.00     0.034 C 
ENDBRANCH   9  13
ENDBRANCH   8   9
ENDBRANCH   7   8
ENDBRANCH   6   7
ENDBRANCH   4   6
ENDBRANCH   2   4
ENDBRANCH   1   2
BRANCH   1  15
HETATM   15  C   UNL     1      41.226 -17.258   4.120  1.00  0.00     0.169 C 
BRANCH  15  16
HETATM   16  C   UNL     1      40.890 -16.381   2.941  1.00  0.00     0.029 A 
HETATM   17  C   UNL     1      40.068 -15.167   3.235  1.00  0.00     0.253 A 
HETATM   18  O   UNL     1      39.819 -14.815   4.387  1.00  0.00    -0.268 OA
HETATM   19  N   UNL     1      39.638 -14.418   2.173  1.00  0.00    -0.322 N 
HETATM   20  C   UNL     1      40.025 -14.659   0.850  1.00  0.00     0.048 A 
HETATM   21  H   UNL     1      39.031 -13.641   2.388  1.00  0.00     0.169 HD
HETATM   22  C   UNL     1      40.874 -15.754   0.574  1.00  0.00    -0.006 A 
HETATM   23  C   UNL     1      39.588 -13.802  -0.161  1.00  0.00     0.070 A 
HETATM   24  C   UNL     1      41.297 -15.994  -0.737  1.00  0.00     0.053 A 
HETATM   25  C   UNL     1      41.276 -16.628   1.676  1.00  0.00     0.028 A 
HETATM   26  C   UNL     1      40.859 -15.129  -1.719  1.00  0.00     0.106 A 
HETATM   27  C   UNL     1      40.030 -14.067  -1.440  1.00  0.00     0.107 A 
HETATM   28  O   UNL     1      41.173 -15.203  -3.040  1.00  0.00    -0.323 OA
HETATM   29  O   UNL     1      39.726 -13.340  -2.547  1.00  0.00    -0.323 OA
HETATM   30  C   UNL     1      40.435 -14.080  -3.565  1.00  0.00     0.352 A 
ENDBRANCH  15  16
ENDBRANCH   1  15
BRANCH   1  31
HETATM   31  C   UNL     1      43.715 -17.138   4.090  1.00  0.00     0.164 C 
BRANCH  31  32
HETATM   32  C   UNL     1      43.913 -18.598   3.746  1.00  0.00    -0.037 A 
HETATM   33  C   UNL     1      44.321 -19.525   4.721  1.00  0.00     0.048 A 
HETATM   34  C   UNL     1      44.497 -20.841   4.342  1.00  0.00     0.105 A 
HETATM   35  C   UNL     1      44.300 -21.258   3.048  1.00  0.00     0.105 A 
HETATM   36  O   UNL     1      44.877 -21.857   5.161  1.00  0.00    -0.323 OA
HETATM   37  O   UNL     1      44.533 -22.588   2.888  1.00  0.00    -0.323 OA
HETATM   38  C   UNL     1      43.917 -20.383   2.059  1.00  0.00     0.040 A 
HETATM   39  C   UNL     1      44.920 -22.958   4.226  1.00  0.00     0.352 A 
HETATM   40  C   UNL     1      43.727 -19.045   2.415  1.00  0.00     0.012 A 
ENDBRANCH  31  32
ENDBRANCH   1  31
TORSDOF 12
ENDMDL
MODEL 3
REMARK VINA RESULT:      -8.3      2.943      8.324
REMARK  12 active torsions:
REMARK  status: ('A' for Active; 'I' for Inactive)
REMARK    1  A    between atoms: C_2  and  N_3 
REMARK    2  A    between atoms: N_3  and  C_5 
REMARK    3  A    between atoms: N_3  and  C_37 
REMARK    4  A    between atoms: C_5  and  C_6 
REMARK    5  A    between atoms: C_6  and  C_7 
REMARK    6  A    between atoms: C_7  and  N_8 
REMARK    7  A    between atoms: N_8  and  C_9 
REMARK    8  A    between atoms: C_9  and  N_10 
REMARK    9  A    between atoms: N_10  and  C_11 
REMARK   10  A    between atoms: N_10  and  C_26 
REMARK   11  A    between atoms: C_11  and  C_12 
REMARK   12  A    between atoms: C_26  and  C_27 
ROOT
HETATM    1  N   UNL     1      43.818 -14.761   6.224  1.00  0.00    -0.350 N 
ENDROOT
BRANCH   1   2
HETATM    2  C   UNL     1      43.041 -13.941   5.384  1.00  0.00     0.170 C 
HETATM    3  S   UNL     1      43.361 -13.658   3.756  1.00  0.00    -0.041 SA
BRANCH   2   4
HETATM    4  N   UNL     1      41.927 -13.395   6.004  1.00  0.00    -0.367 N 
HETATM    5  H   UNL     1      42.008 -12.420   6.268  1.00  0.00     0.161 HD
BRANCH   4   6
HETATM    6  C   UNL     1      40.574 -13.923   5.921  1.00  0.00     0.123 C 
BRANCH   6   7
HETATM    7  C   UNL     1      40.462 -15.004   4.851  1.00  0.00     0.047 C 
BRANCH   7   8
HETATM    8  C   UNL     1      39.765 -14.446   3.618  1.00  0.00     0.236 C 
BRANCH   8   9
HETATM    9  N   UNL     1      39.560 -15.485   2.526  1.00  0.00    -0.072 N 
HETATM   10  H   UNL     1      38.685 -15.968   2.772  1.00  0.00     0.279 HD
BRANCH   9  11
HETATM   11  C   UNL     1      40.622 -16.575   2.483  1.00  0.00     0.230 C 
HETATM   12  C   UNL     1      41.586 -16.370   1.328  1.00  0.00     0.034 C 
ENDBRANCH   9  11
BRANCH   9  13
HETATM   13  C   UNL     1      39.331 -14.918   1.134  1.00  0.00     0.230 C 
HETATM   14  C   UNL     1      38.042 -14.120   1.060  1.00  0.00     0.034 C 
ENDBRANCH   9  13
ENDBRANCH   8   9
ENDBRANCH   7   8
ENDBRANCH   6   7
ENDBRANCH   4   6
ENDBRANCH   2   4
ENDBRANCH   1   2
BRANCH   1  15
HETATM   15  C   UNL     1      43.253 -15.886   6.993  1.00  0.00     0.169 C 
BRANCH  15  16
HETATM   16  C   UNL     1      43.540 -17.227   6.367  1.00  0.00     0.029 A 
HETATM   17  C   UNL     1      44.004 -18.303   7.296  1.00  0.00     0.253 A 
HETATM   18  O   UNL     1      43.996 -18.154   8.517  1.00  0.00    -0.268 OA
HETATM   19  N   UNL     1      44.394 -19.493   6.745  1.00  0.00    -0.322 N 
HETATM   20  C   UNL     1      44.266 -19.794   5.385  1.00  0.00     0.048 A 
HETATM   21  H   UNL     1      44.765 -20.183   7.382  1.00  0.00     0.169 HD
HETATM   22  C   UNL     1      43.746 -18.813   4.513  1.00  0.00    -0.006 A 
HETATM   23  C   UNL     1      44.630 -21.060   4.923  1.00  0.00     0.070 A 
HETATM   24  C   UNL     1      43.583 -19.104   3.155  1.00  0.00     0.053 A 
HETATM   25  C   UNL     1      43.406 -17.497   5.056  1.00  0.00     0.028 A 
HETATM   26  C   UNL     1      43.941 -20.364   2.723  1.00  0.00     0.106 A 
HETATM   27  C   UNL     1      44.450 -21.313   3.580  1.00  0.00     0.107 A 
HETATM   28  O   UNL     1      43.845 -20.823   1.446  1.00  0.00    -0.323 OA
HETATM   29  O   UNL     1      44.730 -22.484   2.952  1.00  0.00    -0.323 OA
HETATM   30  C   UNL     1      44.367 -22.161   1.592  1.00  0.00     0.352 A 
ENDBRANCH  15  16
ENDBRANCH   1  15
BRANCH   1  31
HETATM   31  C   UNL     1      45.204 -14.390   6.585  1.00  0.00     0.164 C 
BRANCH  31  32
HETATM   32  C   UNL     1      45.315 -13.324   7.653  1.00  0.00    -0.037 A 
HETATM   33  C   UNL     1      44.286 -13.123   8.589  1.00  0.00     0.048 A 
HETATM   34  C   UNL     1      44.440 -12.125   9.531  1.00  0.00     0.105 A 
HETATM   35  C   UNL     1      45.556 -11.325   9.567  1.00  0.00     0.105 A 
HETATM   36  O   UNL     1      43.546 -11.811  10.506  1.00  0.00    -0.323 OA
HETATM   37  O   UNL     1      45.505 -10.405  10.565  1.00  0.00    -0.323 OA
HETATM   38  C   UNL     1      46.580 -11.476   8.662  1.00  0.00     0.040 A 
HETATM   39  C   UNL     1      44.219 -10.703  11.143  1.00  0.00     0.352 A 
HETATM   40  C   UNL     1      46.453 -12.481   7.699  1.00  0.00     0.012 A 
ENDBRANCH  31  32
ENDBRANCH   1  31
TORSDOF 12
ENDMDL
MODEL 4
REMARK VINA RESULT:      -8.2      1.835      2.772
REMARK  12 active torsions:
REMARK  status: ('A' for Active; 'I' for Inactive)
REMARK    1  A    between atoms: C_2  and  N_3 
REMARK    2  A    between atoms: N_3  and  C_5 
REMARK    3  A    between atoms: N_3  and  C_37 
REMARK    4  A    between atoms: C_5  and  C_6 
REMARK    5  A    between atoms: C_6  and  C_7 
REMARK    6  A    between atoms: C_7  and  N_8 
REMARK    7  A    between atoms: N_8  and  C_9 
REMARK    8  A    between atoms: C_9  and  N_10 
REMARK    9  A    between atoms: N_10  and  C_11 
REMARK   10  A    between atoms: N_10  and  C_26 
REMARK   11  A    between atoms: C_11  and  C_12 
REMARK   12  A    between atoms: C_26  and  C_27 
ROOT
HETATM    1  N   UNL     1      42.098 -17.062   2.607  1.00  0.00    -0.350 N 
ENDROOT
BRANCH   1   2
HETATM    2  C   UNL     1      41.683 -16.648   3.887  1.00  0.00     0.170 C 
HETATM    3  S   UNL     1      41.202 -17.685   5.121  1.00  0.00    -0.041 SA
BRANCH   2   4
HETATM    4  N   UNL     1      41.742 -15.276   4.081  1.00  0.00    -0.367 N 
HETATM    5  H   UNL     1      41.534 -14.958   5.021  1.00  0.00     0.161 HD
BRANCH   4   6
HETATM    6  C   UNL     1      42.461 -14.336   3.235  1.00  0.00     0.123 C 
BRANCH   6   7
HETATM    7  C   UNL     1      43.738 -13.844   3.908  1.00  0.00     0.047 C 
BRANCH   7   8
HETATM    8  C   UNL     1      43.510 -13.688   5.405  1.00  0.00     0.236 C 
BRANCH   8   9
HETATM    9  N   UNL     1      44.540 -14.430   6.245  1.00  0.00    -0.072 N 
HETATM   10  H   UNL     1      45.159 -14.894   5.567  1.00  0.00     0.279 HD
BRANCH   9  11
HETATM   11  C   UNL     1      43.970 -15.550   7.103  1.00  0.00     0.230 C 
HETATM   12  C   UNL     1      44.530 -16.902   6.699  1.00  0.00     0.034 C 
ENDBRANCH   9  11
BRANCH   9  13
HETATM   13  C   UNL     1      45.450 -13.541   7.078  1.00  0.00     0.230 C 
HETATM   14  C   UNL     1      44.753 -13.038   8.329  1.00  0.00     0.034 C 
ENDBRANCH   9  13
ENDBRANCH   8   9
ENDBRANCH   7   8
ENDBRANCH   6   7
ENDBRANCH   4   6
ENDBRANCH   2   4
ENDBRANCH   1   2
BRANCH   1  15
HETATM   15  C   UNL     1      41.152 -17.355   1.513  1.00  0.00     0.169 C 
BRANCH  15  16
HETATM   16  C   UNL     1      40.789 -16.133   0.709  1.00  0.00     0.029 A 
HETATM   17  C   UNL     1      39.587 -15.373   1.170  1.00  0.00     0.253 A 
HETATM   18  O   UNL     1      39.024 -15.632   2.233  1.00  0.00    -0.268 OA
HETATM   19  N   UNL     1      39.155 -14.334   0.391  1.00  0.00    -0.322 N 
HETATM   20  C   UNL     1      39.844 -13.874  -0.736  1.00  0.00     0.048 A 
HETATM   21  H   UNL     1      38.305 -13.876   0.685  1.00  0.00     0.169 HD
HETATM   22  C   UNL     1      41.031 -14.532  -1.128  1.00  0.00    -0.006 A 
HETATM   23  C   UNL     1      39.362 -12.764  -1.432  1.00  0.00     0.070 A 
HETATM   24  C   UNL     1      41.751 -14.070  -2.235  1.00  0.00     0.053 A 
HETATM   25  C   UNL     1      41.469 -15.705  -0.371  1.00  0.00     0.028 A 
HETATM   26  C   UNL     1      41.259 -12.967  -2.902  1.00  0.00     0.106 A 
HETATM   27  C   UNL     1      40.101 -12.334  -2.513  1.00  0.00     0.107 A 
HETATM   28  O   UNL     1      41.828 -12.377  -3.988  1.00  0.00    -0.323 OA
HETATM   29  O   UNL     1      39.801 -11.267  -3.300  1.00  0.00    -0.323 OA
HETATM   30  C   UNL     1      40.888 -11.314  -4.251  1.00  0.00     0.352 A 
ENDBRANCH  15  16
ENDBRANCH   1  15
BRANCH   1  31
HETATM   31  C   UNL     1      43.496 -17.474   2.352  1.00  0.00     0.164 C 
BRANCH  31  32
HETATM   32  C   UNL     1      43.784 -18.934   2.627  1.00  0.00    -0.037 A 
HETATM   33  C   UNL     1      44.274 -19.356   3.874  1.00  0.00     0.048 A 
HETATM   34  C   UNL     1      44.529 -20.700   4.059  1.00  0.00     0.105 A 
HETATM   35  C   UNL     1      44.332 -21.623   3.060  1.00  0.00     0.105 A 
HETATM   36  O   UNL     1      44.994 -21.268   5.203  1.00  0.00    -0.323 OA
HETATM   37  O   UNL     1      44.651 -22.886   3.447  1.00  0.00    -0.323 OA
HETATM   38  C   UNL     1      43.870 -21.253   1.819  1.00  0.00     0.040 A 
HETATM   39  C   UNL     1      45.091 -22.652   4.800  1.00  0.00     0.352 A 
HETATM   40  C   UNL     1      43.599 -19.898   1.605  1.00  0.00     0.012 A 
ENDBRANCH  31  32
ENDBRANCH   1  31
TORSDOF 12
ENDMDL
MODEL 5
REMARK VINA RESULT:      -8.1      2.177      3.325
REMARK  12 active torsions:
REMARK  status: ('A' for Active; 'I' for Inactive)
REMARK    1  A    between atoms: C_2  and  N_3 
REMARK    2  A    between atoms: N_3  and  C_5 
REMARK    3  A    between atoms: N_3  and  C_37 
REMARK    4  A    between atoms: C_5  and  C_6 
REMARK    5  A    between atoms: C_6  and  C_7 
REMARK    6  A    between atoms: C_7  and  N_8 
REMARK    7  A    between atoms: N_8  and  C_9 
REMARK    8  A    between atoms: C_9  and  N_10 
REMARK    9  A    between atoms: N_10  and  C_11 
REMARK   10  A    between atoms: N_10  and  C_26 
REMARK   11  A    between atoms: C_11  and  C_12 
REMARK   12  A    between atoms: C_26  and  C_27 
ROOT
HETATM    1  N   UNL     1      42.735 -16.625   5.240  1.00  0.00    -0.350 N 
ENDROOT
BRANCH   1   2
HETATM    2  C   UNL     1      43.039 -16.347   6.587  1.00  0.00     0.170 C 
HETATM    3  S   UNL     1      43.487 -17.500   7.726  1.00  0.00    -0.041 SA
BRANCH   2   4
HETATM    4  N   UNL     1      42.984 -14.999   6.909  1.00  0.00    -0.367 N 
HETATM    5  H   UNL     1      42.401 -14.764   7.705  1.00  0.00     0.161 HD
BRANCH   4   6
HETATM    6  C   UNL     1      43.966 -13.999   6.521  1.00  0.00     0.123 C 
BRANCH   6   7
HETATM    7  C   UNL     1      45.019 -13.801   7.606  1.00  0.00     0.047 C 
BRANCH   7   8
HETATM    8  C   UNL     1      44.954 -12.377   8.140  1.00  0.00     0.236 C 
BRANCH   8   9
HETATM    9  N   UNL     1      43.830 -12.167   9.144  1.00  0.00    -0.072 N 
HETATM   10  H   UNL     1      43.159 -12.925   8.961  1.00  0.00     0.279 HD
BRANCH   9  11
HETATM   11  C   UNL     1      43.043 -10.879   8.952  1.00  0.00     0.230 C 
HETATM   12  C   UNL     1      42.069 -10.987   7.793  1.00  0.00     0.034 C 
ENDBRANCH   9  11
BRANCH   9  13
HETATM   13  C   UNL     1      44.232 -12.327  10.601  1.00  0.00     0.230 C 
HETATM   14  C   UNL     1      44.239 -10.996  11.331  1.00  0.00     0.034 C 
ENDBRANCH   9  13
ENDBRANCH   8   9
ENDBRANCH   7   8
ENDBRANCH   6   7
ENDBRANCH   4   6
ENDBRANCH   2   4
ENDBRANCH   1   2
BRANCH   1  15
HETATM   15  C   UNL     1      41.369 -16.931   4.773  1.00  0.00     0.169 C 
BRANCH  15  16
HETATM   16  C   UNL     1      40.670 -15.734   4.181  1.00  0.00     0.029 A 
HETATM   17  C   UNL     1      40.416 -15.780   2.709  1.00  0.00     0.253 A 
HETATM   18  O   UNL     1      40.615 -16.798   2.047  1.00  0.00    -0.268 OA
HETATM   19  N   UNL     1      39.898 -14.659   2.118  1.00  0.00    -0.322 N 
HETATM   20  C   UNL     1      39.486 -13.529   2.832  1.00  0.00     0.048 A 
HETATM   21  H   UNL     1      39.795 -14.688   1.114  1.00  0.00     0.169 HD
HETATM   22  C   UNL     1      39.642 -13.512   4.235  1.00  0.00    -0.006 A 
HETATM   23  C   UNL     1      38.909 -12.457   2.149  1.00  0.00     0.070 A 
HETATM   24  C   UNL     1      39.209 -12.404   4.971  1.00  0.00     0.053 A 
HETATM   25  C   UNL     1      40.277 -14.658   4.887  1.00  0.00     0.028 A 
HETATM   26  C   UNL     1      38.634 -11.360   4.276  1.00  0.00     0.106 A 
HETATM   27  C   UNL     1      38.489 -11.385   2.908  1.00  0.00     0.107 A 
HETATM   28  O   UNL     1      38.152 -10.212   4.824  1.00  0.00    -0.323 OA
HETATM   29  O   UNL     1      37.893 -10.262   2.428  1.00  0.00    -0.323 OA
HETATM   30  C   UNL     1      37.703  -9.510   3.646  1.00  0.00     0.352 A 
ENDBRANCH  15  16
ENDBRANCH   1  15
BRANCH   1  31
HETATM   31  C   UNL     1      43.806 -16.877   4.250  1.00  0.00     0.164 C 
BRANCH  31  32
HETATM   32  C   UNL     1      43.908 -18.312   3.782  1.00  0.00    -0.037 A 
HETATM   33  C   UNL     1      44.373 -19.324   4.638  1.00  0.00     0.048 A 
HETATM   34  C   UNL     1      44.455 -20.613   4.148  1.00  0.00     0.105 A 
HETATM   35  C   UNL     1      44.111 -20.922   2.854  1.00  0.00     0.105 A 
HETATM   36  O   UNL     1      44.874 -21.701   4.847  1.00  0.00    -0.323 OA
HETATM   37  O   UNL     1      44.272 -22.242   2.574  1.00  0.00    -0.323 OA
HETATM   38  C   UNL     1      43.667 -19.961   1.977  1.00  0.00     0.040 A 
HETATM   39  C   UNL     1      44.777 -22.727   3.835  1.00  0.00     0.352 A 
HETATM   40  C   UNL     1      43.569 -18.649   2.448  1.00  0.00     0.012 A 
ENDBRANCH  31  32
ENDBRANCH   1  31
TORSDOF 12
ENDMDL
MODEL 6
REMARK VINA RESULT:      -8.1      2.502      7.615
REMARK  12 active torsions:
REMARK  status: ('A' for Active; 'I' for Inactive)
REMARK    1  A    between atoms: C_2  and  N_3 
REMARK    2  A    between atoms: N_3  and  C_5 
REMARK    3  A    between atoms: N_3  and  C_37 
REMARK    4  A    between atoms: C_5  and  C_6 
REMARK    5  A    between atoms: C_6  and  C_7 
REMARK    6  A    between atoms: C_7  and  N_8 
REMARK    7  A    between atoms: N_8  and  C_9 
REMARK    8  A    between atoms: C_9  and  N_10 
REMARK    9  A    between atoms: N_10  and  C_11 
REMARK   10  A    between atoms: N_10  and  C_26 
REMARK   11  A    between atoms: C_11  and  C_12 
REMARK   12  A    between atoms: C_26  and  C_27 
ROOT
HETATM    1  N   UNL     1      41.544 -14.935   3.104  1.00  0.00    -0.350 N 
ENDROOT
BRANCH   1   2
HETATM    2  C   UNL     1      41.415 -13.910   4.061  1.00  0.00     0.170 C 
HETATM    3  S   UNL     1      39.957 -13.388   4.717  1.00  0.00    -0.041 SA
BRANCH   2   4
HETATM    4  N   UNL     1      42.624 -13.369   4.472  1.00  0.00    -0.367 N 
HETATM    5  H   UNL     1      42.963 -12.587   3.922  1.00  0.00     0.161 HD
BRANCH   4   6
HETATM    6  C   UNL     1      43.204 -13.513   5.798  1.00  0.00     0.123 C 
BRANCH   6   7
HETATM    7  C   UNL     1      43.978 -14.821   5.930  1.00  0.00     0.047 C 
BRANCH   7   8
HETATM    8  C   UNL     1      43.993 -15.271   7.384  1.00  0.00     0.236 C 
BRANCH   8   9
HETATM    9  N   UNL     1      43.016 -16.403   7.669  1.00  0.00    -0.072 N 
HETATM   10  H   UNL     1      42.251 -15.972   8.205  1.00  0.00     0.279 HD
BRANCH   9  11
HETATM   11  C   UNL     1      43.565 -17.503   8.565  1.00  0.00     0.230 C 
HETATM   12  C   UNL     1      43.847 -18.773   7.782  1.00  0.00     0.034 C 
ENDBRANCH   9  11
BRANCH   9  13
HETATM   13  C   UNL     1      42.356 -17.006   6.439  1.00  0.00     0.230 C 
HETATM   14  C   UNL     1      40.860 -16.751   6.424  1.00  0.00     0.034 C 
ENDBRANCH   9  13
ENDBRANCH   8   9
ENDBRANCH   7   8
ENDBRANCH   6   7
ENDBRANCH   4   6
ENDBRANCH   2   4
ENDBRANCH   1   2
BRANCH   1  15
HETATM   15  C   UNL     1      42.806 -15.216   2.395  1.00  0.00     0.169 C 
BRANCH  15  16
HETATM   16  C   UNL     1      43.152 -16.683   2.373  1.00  0.00     0.029 A 
HETATM   17  C   UNL     1      42.934 -17.392   1.074  1.00  0.00     0.253 A 
HETATM   18  O   UNL     1      42.647 -16.786   0.044  1.00  0.00    -0.268 OA
HETATM   19  N   UNL     1      43.117 -18.749   1.053  1.00  0.00    -0.322 N 
HETATM   20  C   UNL     1      43.609 -19.480   2.139  1.00  0.00     0.048 A 
HETATM   21  H   UNL     1      42.902 -19.217   0.185  1.00  0.00     0.169 HD
HETATM   22  C   UNL     1      43.900 -18.803   3.344  1.00  0.00    -0.006 A 
HETATM   23  C   UNL     1      43.824 -20.852   2.004  1.00  0.00     0.070 A 
HETATM   24  C   UNL     1      44.421 -19.510   4.432  1.00  0.00     0.053 A 
HETATM   25  C   UNL     1      43.629 -17.368   3.428  1.00  0.00     0.028 A 
HETATM   26  C   UNL     1      44.633 -20.864   4.273  1.00  0.00     0.106 A 
HETATM   27  C   UNL     1      44.343 -21.515   3.095  1.00  0.00     0.107 A 
HETATM   28  O   UNL     1      45.137 -21.705   5.215  1.00  0.00    -0.323 OA
HETATM   29  O   UNL     1      44.634 -22.842   3.149  1.00  0.00    -0.323 OA
HETATM   30  C   UNL     1      45.116 -22.962   4.506  1.00  0.00     0.352 A 
ENDBRANCH  15  16
ENDBRANCH   1  15
BRANCH   1  31
HETATM   31  C   UNL     1      40.355 -15.631   2.565  1.00  0.00     0.164 C 
BRANCH  31  32
HETATM   32  C   UNL     1      39.647 -14.897   1.447  1.00  0.00    -0.037 A 
HETATM   33  C   UNL     1      40.348 -14.444   0.316  1.00  0.00     0.048 A 
HETATM   34  C   UNL     1      39.648 -13.769  -0.664  1.00  0.00     0.105 A 
HETATM   35  C   UNL     1      38.301 -13.521  -0.556  1.00  0.00     0.105 A 
HETATM   36  O   UNL     1      40.174 -13.278  -1.817  1.00  0.00    -0.323 OA
HETATM   37  O   UNL     1      37.810 -12.839  -1.624  1.00  0.00    -0.323 OA
HETATM   38  C   UNL     1      37.578 -13.931   0.540  1.00  0.00     0.040 A 
HETATM   39  C   UNL     1      39.006 -12.669  -2.410  1.00  0.00     0.352 A 
HETATM   40  C   UNL     1      38.261 -14.620   1.546  1.00  0.00     0.012 A 
ENDBRANCH  31  32
ENDBRANCH   1  31
TORSDOF 12
ENDMDL
MODEL 7
REMARK VINA RESULT:      -8.0      1.906      2.584
REMARK  12 active torsions:
REMARK  status: ('A' for Active; 'I' for Inactive)
REMARK    1  A    between atoms: C_2  and  N_3 
REMARK    2  A    between atoms: N_3  and  C_5 
REMARK    3  A    between atoms: N_3  and  C_37 
REMARK    4  A    between atoms: C_5  and  C_6 
REMARK    5  A    between atoms: C_6  and  C_7 
REMARK    6  A    between atoms: C_7  and  N_8 
REMARK    7  A    between atoms: N_8  and  C_9 
REMARK    8  A    between atoms: C_9  and  N_10 
REMARK    9  A    between atoms: N_10  and  C_11 
REMARK   10  A    between atoms: N_10  and  C_26 
REMARK   11  A    between atoms: C_11  and  C_12 
REMARK   12  A    between atoms: C_26  and  C_27 
ROOT
HETATM    1  N   UNL     1      42.177 -16.279   3.598  1.00  0.00    -0.350 N 
ENDROOT
BRANCH   1   2
HETATM    2  C   UNL     1      42.114 -15.566   4.810  1.00  0.00     0.170 C 
HETATM    3  S   UNL     1      40.700 -15.249   5.665  1.00  0.00    -0.041 SA
BRANCH   2   4
HETATM    4  N   UNL     1      43.351 -15.164   5.291  1.00  0.00    -0.367 N 
HETATM    5  H   UNL     1      43.815 -14.441   4.753  1.00  0.00     0.161 HD
BRANCH   4   6
HETATM    6  C   UNL     1      43.824 -15.345   6.654  1.00  0.00     0.123 C 
BRANCH   6   7
HETATM    7  C   UNL     1      44.659 -14.156   7.118  1.00  0.00     0.047 C 
BRANCH   7   8
HETATM    8  C   UNL     1      43.776 -12.924   7.262  1.00  0.00     0.236 C 
BRANCH   8   9
HETATM    9  N   UNL     1      43.913 -12.248   8.618  1.00  0.00    -0.072 N 
HETATM   10  H   UNL     1      43.568 -12.937   9.301  1.00  0.00     0.279 HD
BRANCH   9  11
HETATM   11  C   UNL     1      43.032 -11.021   8.806  1.00  0.00     0.230 C 
HETATM   12  C   UNL     1      42.023 -10.881   7.681  1.00  0.00     0.034 C 
ENDBRANCH   9  11
BRANCH   9  13
HETATM   13  C   UNL     1      45.341 -11.941   9.042  1.00  0.00     0.230 C 
HETATM   14  C   UNL     1      45.428 -11.610  10.521  1.00  0.00     0.034 C 
ENDBRANCH   9  13
ENDBRANCH   8   9
ENDBRANCH   7   8
ENDBRANCH   6   7
ENDBRANCH   4   6
ENDBRANCH   2   4
ENDBRANCH   1   2
BRANCH   1  15
HETATM   15  C   UNL     1      40.989 -16.869   2.951  1.00  0.00     0.169 C 
BRANCH  15  16
HETATM   16  C   UNL     1      40.393 -15.975   1.895  1.00  0.00     0.029 A 
HETATM   17  C   UNL     1      41.022 -16.044   0.540  1.00  0.00     0.253 A 
HETATM   18  O   UNL     1      41.865 -16.895   0.260  1.00  0.00    -0.268 OA
HETATM   19  N   UNL     1      40.590 -15.157  -0.408  1.00  0.00    -0.322 N 
HETATM   20  C   UNL     1      39.517 -14.279  -0.214  1.00  0.00     0.048 A 
HETATM   21  H   UNL     1      41.072 -15.176  -1.294  1.00  0.00     0.169 HD
HETATM   22  C   UNL     1      38.859 -14.269   1.036  1.00  0.00    -0.006 A 
HETATM   23  C   UNL     1      39.105 -13.455  -1.262  1.00  0.00     0.070 A 
HETATM   24  C   UNL     1      37.766 -13.421   1.240  1.00  0.00     0.053 A 
HETATM   25  C   UNL     1      39.357 -15.141   2.101  1.00  0.00     0.028 A 
HETATM   26  C   UNL     1      37.371 -12.621   0.188  1.00  0.00     0.106 A 
HETATM   27  C   UNL     1      38.021 -12.637  -1.025  1.00  0.00     0.107 A 
HETATM   28  O   UNL     1      36.331 -11.746   0.203  1.00  0.00    -0.323 OA
HETATM   29  O   UNL     1      37.467 -11.780  -1.923  1.00  0.00    -0.323 OA
HETATM   30  C   UNL     1      36.408 -11.198  -1.130  1.00  0.00     0.352 A 
ENDBRANCH  15  16
ENDBRANCH   1  15
BRANCH   1  31
HETATM   31  C   UNL     1      43.474 -16.701   3.025  1.00  0.00     0.164 C 
BRANCH  31  32
HETATM   32  C   UNL     1      43.789 -18.172   3.188  1.00  0.00    -0.037 A 
HETATM   33  C   UNL     1      44.097 -18.713   4.448  1.00  0.00     0.048 A 
HETATM   34  C   UNL     1      44.388 -20.061   4.530  1.00  0.00     0.105 A 
HETATM   35  C   UNL     1      44.397 -20.872   3.421  1.00  0.00     0.105 A 
HETATM   36  O   UNL     1      44.696 -20.737   5.668  1.00  0.00    -0.323 OA
HETATM   37  O   UNL     1      44.714 -22.159   3.720  1.00  0.00    -0.323 OA
HETATM   38  C   UNL     1      44.118 -20.382   2.167  1.00  0.00     0.040 A 
HETATM   39  C   UNL     1      44.924 -22.063   5.143  1.00  0.00     0.352 A 
HETATM   40  C   UNL     1      43.815 -19.022   2.055  1.00  0.00     0.012 A 
ENDBRANCH  31  32
ENDBRANCH   1  31
TORSDOF 12
ENDMDL
MODEL 8
REMARK VINA RESULT:      -8.0      2.372      3.185
REMARK  12 active torsions:
REMARK  status: ('A' for Active; 'I' for Inactive)
REMARK    1  A    between atoms: C_2  and  N_3 
REMARK    2  A    between atoms: N_3  and  C_5 
REMARK    3  A    between atoms: N_3  and  C_37 
REMARK    4  A    between atoms: C_5  and  C_6 
REMARK    5  A    between atoms: C_6  and  C_7 
REMARK    6  A    between atoms: C_7  and  N_8 
REMARK    7  A    between atoms: N_8  and  C_9 
REMARK    8  A    between atoms: C_9  and  N_10 
REMARK    9  A    between atoms: N_10  and  C_11 
REMARK   10  A    between atoms: N_10  and  C_26 
REMARK   11  A    between atoms: C_11  and  C_12 
REMARK   12  A    between atoms: C_26  and  C_27 
ROOT
HETATM    1  N   UNL     1      42.581 -16.594   3.919  1.00  0.00    -0.350 N 
ENDROOT
BRANCH   1   2
HETATM    2  C   UNL     1      42.702 -16.256   5.281  1.00  0.00     0.170 C 
HETATM    3  S   UNL     1      41.776 -16.920   6.519  1.00  0.00    -0.041 SA
BRANCH   2   4
HETATM    4  N   UNL     1      43.703 -15.335   5.546  1.00  0.00    -0.367 N 
HETATM    5  H   UNL     1      44.642 -15.626   5.296  1.00  0.00     0.161 HD
BRANCH   4   6
HETATM    6  C   UNL     1      43.506 -13.905   5.724  1.00  0.00     0.123 C 
BRANCH   6   7
HETATM    7  C   UNL     1      42.984 -13.250   4.450  1.00  0.00     0.047 C 
BRANCH   7   8
HETATM    8  C   UNL     1      41.740 -12.429   4.759  1.00  0.00     0.236 C 
BRANCH   8   9
HETATM    9  N   UNL     1      40.446 -13.193   4.516  1.00  0.00    -0.072 N 
HETATM   10  H   UNL     1      40.728 -14.057   4.032  1.00  0.00     0.279 HD
BRANCH   9  11
HETATM   11  C   UNL     1      39.472 -12.505   3.571  1.00  0.00     0.230 C 
HETATM   12  C   UNL     1      39.987 -11.147   3.130  1.00  0.00     0.034 C 
ENDBRANCH   9  11
BRANCH   9  13
HETATM   13  C   UNL     1      39.725 -13.653   5.773  1.00  0.00     0.230 C 
HETATM   14  C   UNL     1      39.428 -12.493   6.705  1.00  0.00     0.034 C 
ENDBRANCH   9  13
ENDBRANCH   8   9
ENDBRANCH   7   8
ENDBRANCH   6   7
ENDBRANCH   4   6
ENDBRANCH   2   4
ENDBRANCH   1   2
BRANCH   1  15
HETATM   15  C   UNL     1      41.279 -16.736   3.240  1.00  0.00     0.169 C 
BRANCH  15  16
HETATM   16  C   UNL     1      41.259 -16.101   1.874  1.00  0.00     0.029 A 
HETATM   17  C   UNL     1      40.925 -17.005   0.731  1.00  0.00     0.253 A 
HETATM   18  O   UNL     1      40.531 -18.157   0.908  1.00  0.00    -0.268 OA
HETATM   19  N   UNL     1      41.021 -16.492  -0.535  1.00  0.00    -0.322 N 
HETATM   20  C   UNL     1      41.295 -15.147  -0.805  1.00  0.00     0.048 A 
HETATM   21  H   UNL     1      40.855 -17.136  -1.294  1.00  0.00     0.169 HD
HETATM   22  C   UNL     1      41.525 -14.266   0.274  1.00  0.00    -0.006 A 
HETATM   23  C   UNL     1      41.308 -14.700  -2.127  1.00  0.00     0.070 A 
HETATM   24  C   UNL     1      41.770 -12.911   0.027  1.00  0.00     0.053 A 
HETATM   25  C   UNL     1      41.521 -14.802   1.635  1.00  0.00     0.028 A 
HETATM   26  C   UNL     1      41.772 -12.490  -1.287  1.00  0.00     0.106 A 
HETATM   27  C   UNL     1      41.548 -13.358  -2.332  1.00  0.00     0.107 A 
HETATM   28  O   UNL     1      41.983 -11.216  -1.713  1.00  0.00    -0.323 OA
HETATM   29  O   UNL     1      41.585 -12.737  -3.540  1.00  0.00    -0.323 OA
HETATM   30  C   UNL     1      41.886 -11.381  -3.143  1.00  0.00     0.352 A 
ENDBRANCH  15  16
ENDBRANCH   1  15
BRANCH   1  31
HETATM   31  C   UNL     1      43.746 -17.078   3.146  1.00  0.00     0.164 C 
BRANCH  31  32
HETATM   32  C   UNL     1      43.912 -18.581   3.127  1.00  0.00    -0.037 A 
HETATM   33  C   UNL     1      44.380 -19.275   4.256  1.00  0.00     0.048 A 
HETATM   34  C   UNL     1      44.523 -20.646   4.172  1.00  0.00     0.105 A 
HETATM   35  C   UNL     1      44.235 -21.338   3.021  1.00  0.00     0.105 A 
HETATM   36  O   UNL     1      44.953 -21.460   5.173  1.00  0.00    -0.323 OA
HETATM   37  O   UNL     1      44.450 -22.674   3.149  1.00  0.00    -0.323 OA
HETATM   38  C   UNL     1      43.791 -20.699   1.888  1.00  0.00     0.040 A 
HETATM   39  C   UNL     1      44.926 -22.743   4.509  1.00  0.00     0.352 A 
HETATM   40  C   UNL     1      43.633 -19.311   1.946  1.00  0.00     0.012 A 
ENDBRANCH  31  32
ENDBRANCH   1  31
TORSDOF 12
ENDMDL
MODEL 9
REMARK VINA RESULT:      -7.9      2.766      4.127
REMARK  12 active torsions:
REMARK  status: ('A' for Active; 'I' for Inactive)
REMARK    1  A    between atoms: C_2  and  N_3 
REMARK    2  A    between atoms: N_3  and  C_5 
REMARK    3  A    between atoms: N_3  and  C_37 
REMARK    4  A    between atoms: C_5  and  C_6 
REMARK    5  A    between atoms: C_6  and  C_7 
REMARK    6  A    between atoms: C_7  and  N_8 
REMARK    7  A    between atoms: N_8  and  C_9 
REMARK    8  A    between atoms: C_9  and  N_10 
REMARK    9  A    between atoms: N_10  and  C_11 
REMARK   10  A    between atoms: N_10  and  C_26 
REMARK   11  A    between atoms: C_11  and  C_12 
REMARK   12  A    between atoms: C_26  and  C_27 
ROOT
HETATM    1  N   UNL     1      42.017 -16.635   3.636  1.00  0.00    -0.350 N 
ENDROOT
BRANCH   1   2
HETATM    2  C   UNL     1      41.714 -16.029   4.871  1.00  0.00     0.170 C 
HETATM    3  S   UNL     1      41.643 -16.839   6.344  1.00  0.00    -0.041 SA
BRANCH   2   4
HETATM    4  N   UNL     1      41.512 -14.659   4.792  1.00  0.00    -0.367 N 
HETATM    5  H   UNL     1      40.565 -14.346   4.968  1.00  0.00     0.161 HD
BRANCH   4   6
HETATM    6  C   UNL     1      42.550 -13.648   4.911  1.00  0.00     0.123 C 
BRANCH   6   7
HETATM    7  C   UNL     1      42.125 -12.333   4.265  1.00  0.00     0.047 C 
BRANCH   7   8
HETATM    8  C   UNL     1      41.701 -12.575   2.824  1.00  0.00     0.236 C 
BRANCH   8   9
HETATM    9  N   UNL     1      40.500 -11.738   2.407  1.00  0.00    -0.072 N 
HETATM   10  H   UNL     1      39.793 -12.416   2.093  1.00  0.00     0.279 HD
BRANCH   9  11
HETATM   11  C   UNL     1      40.745 -10.831   1.209  1.00  0.00     0.230 C 
HETATM   12  C   UNL     1      41.940 -11.292   0.395  1.00  0.00     0.034 C 
ENDBRANCH   9  11
BRANCH   9  13
HETATM   13  C   UNL     1      39.839 -10.958   3.532  1.00  0.00     0.230 C 
HETATM   14  C   UNL     1      38.375 -10.686   3.241  1.00  0.00     0.034 C 
ENDBRANCH   9  13
ENDBRANCH   8   9
ENDBRANCH   7   8
ENDBRANCH   6   7
ENDBRANCH   4   6
ENDBRANCH   2   4
ENDBRANCH   1   2
BRANCH   1  15
HETATM   15  C   UNL     1      40.986 -17.210   2.751  1.00  0.00     0.169 C 
BRANCH  15  16
HETATM   16  C   UNL     1      40.436 -16.212   1.766  1.00  0.00     0.029 A 
HETATM   17  C   UNL     1      41.168 -16.093   0.468  1.00  0.00     0.253 A 
HETATM   18  O   UNL     1      42.064 -16.875   0.155  1.00  0.00    -0.268 OA
HETATM   19  N   UNL     1      40.773 -15.109  -0.398  1.00  0.00    -0.322 N 
HETATM   20  C   UNL     1      39.653 -14.296  -0.185  1.00  0.00     0.048 A 
HETATM   21  H   UNL     1      41.321 -15.004  -1.239  1.00  0.00     0.169 HD
HETATM   22  C   UNL     1      38.903 -14.462   1.000  1.00  0.00    -0.006 A 
HETATM   23  C   UNL     1      39.288 -13.362  -1.155  1.00  0.00     0.070 A 
HETATM   24  C   UNL     1      37.764 -13.681   1.218  1.00  0.00     0.053 A 
HETATM   25  C   UNL     1      39.354 -15.442   1.988  1.00  0.00     0.028 A 
HETATM   26  C   UNL     1      37.417 -12.769   0.242  1.00  0.00     0.106 A 
HETATM   27  C   UNL     1      38.157 -12.614  -0.909  1.00  0.00     0.107 A 
HETATM   28  O   UNL     1      36.343 -11.935   0.279  1.00  0.00    -0.323 OA
HETATM   29  O   UNL     1      37.637 -11.670  -1.737  1.00  0.00    -0.323 OA
HETATM   30  C   UNL     1      36.499 -11.225  -0.968  1.00  0.00     0.352 A 
ENDBRANCH  15  16
ENDBRANCH   1  15
BRANCH   1  31
HETATM   31  C   UNL     1      43.412 -16.958   3.265  1.00  0.00     0.164 C 
BRANCH  31  32
HETATM   32  C   UNL     1      43.748 -18.433   3.296  1.00  0.00    -0.037 A 
HETATM   33  C   UNL     1      44.106 -19.072   4.496  1.00  0.00     0.048 A 
HETATM   34  C   UNL     1      44.414 -20.418   4.457  1.00  0.00     0.105 A 
HETATM   35  C   UNL     1      44.393 -21.135   3.286  1.00  0.00     0.105 A 
HETATM   36  O   UNL     1      44.769 -21.180   5.525  1.00  0.00    -0.323 OA
HETATM   37  O   UNL     1      44.734 -22.438   3.467  1.00  0.00    -0.323 OA
HETATM   38  C   UNL     1      44.064 -20.548   2.087  1.00  0.00     0.040 A 
HETATM   39  C   UNL     1      44.992 -22.456   4.885  1.00  0.00     0.352 A 
HETATM   40  C   UNL     1      43.743 -19.187   2.097  1.00  0.00     0.012 A 
ENDBRANCH  31  32
ENDBRANCH   1  31
TORSDOF 12
ENDMDL
MODEL 10
REMARK VINA RESULT:      -7.8      2.877      7.513
REMARK  12 active torsions:
REMARK  status: ('A' for Active; 'I' for Inactive)
REMARK    1  A    between atoms: C_2  and  N_3 
REMARK    2  A    between atoms: N_3  and  C_5 
REMARK    3  A    between atoms: N_3  and  C_37 
REMARK    4  A    between atoms: C_5  and  C_6 
REMARK    5  A    between atoms: C_6  and  C_7 
REMARK    6  A    between atoms: C_7  and  N_8 
REMARK    7  A    between atoms: N_8  and  C_9 
REMARK    8  A    between atoms: C_9  and  N_10 
REMARK    9  A    between atoms: N_10  and  C_11 
REMARK   10  A    between atoms: N_10  and  C_26 
REMARK   11  A    between atoms: C_11  and  C_12 
REMARK   12  A    between atoms: C_26  and  C_27 
ROOT
HETATM    1  N   UNL     1      40.118 -13.140   1.813  1.00  0.00    -0.350 N 
ENDROOT
BRANCH   1   2
HETATM    2  C   UNL     1      41.374 -12.568   1.532  1.00  0.00     0.170 C 
HETATM    3  S   UNL     1      41.906 -12.129  -0.003  1.00  0.00    -0.041 SA
BRANCH   2   4
HETATM    4  N   UNL     1      42.155 -12.344   2.656  1.00  0.00    -0.367 N 
HETATM    5  H   UNL     1      41.956 -11.490   3.163  1.00  0.00     0.161 HD
BRANCH   4   6
HETATM    6  C   UNL     1      42.886 -13.365   3.389  1.00  0.00     0.123 C 
BRANCH   6   7
HETATM    7  C   UNL     1      42.758 -13.170   4.896  1.00  0.00     0.047 C 
BRANCH   7   8
HETATM    8  C   UNL     1      42.527 -14.511   5.577  1.00  0.00     0.236 C 
BRANCH   8   9
HETATM    9  N   UNL     1      43.305 -14.663   6.876  1.00  0.00    -0.072 N 
HETATM   10  H   UNL     1      42.591 -14.696   7.617  1.00  0.00     0.279 HD
BRANCH   9  11
HETATM   11  C   UNL     1      44.192 -13.477   7.225  1.00  0.00     0.230 C 
HETATM   12  C   UNL     1      45.646 -13.747   6.880  1.00  0.00     0.034 C 
ENDBRANCH   9  11
BRANCH   9  13
HETATM   13  C   UNL     1      44.084 -15.962   7.010  1.00  0.00     0.230 C 
HETATM   14  C   UNL     1      43.253 -17.050   7.664  1.00  0.00     0.034 C 
ENDBRANCH   9  13
ENDBRANCH   8   9
ENDBRANCH   7   8
ENDBRANCH   6   7
ENDBRANCH   4   6
ENDBRANCH   2   4
ENDBRANCH   1   2
BRANCH   1  15
HETATM   15  C   UNL     1      39.703 -14.458   1.298  1.00  0.00     0.169 C 
BRANCH  15  16
HETATM   16  C   UNL     1      40.758 -15.519   1.484  1.00  0.00     0.029 A 
HETATM   17  C   UNL     1      41.515 -15.918   0.258  1.00  0.00     0.253 A 
HETATM   18  O   UNL     1      41.400 -15.308  -0.803  1.00  0.00    -0.268 OA
HETATM   19  N   UNL     1      42.390 -16.965   0.365  1.00  0.00    -0.322 N 
HETATM   20  C   UNL     1      42.699 -17.594   1.576  1.00  0.00     0.048 A 
HETATM   21  H   UNL     1      42.842 -17.262  -0.488  1.00  0.00     0.169 HD
HETATM   22  C   UNL     1      42.053 -17.163   2.755  1.00  0.00    -0.006 A 
HETATM   23  C   UNL     1      43.654 -18.612   1.598  1.00  0.00     0.070 A 
HETATM   24  C   UNL     1      42.370 -17.758   3.981  1.00  0.00     0.053 A 
HETATM   25  C   UNL     1      41.044 -16.108   2.660  1.00  0.00     0.028 A 
HETATM   26  C   UNL     1      43.322 -18.756   3.980  1.00  0.00     0.106 A 
HETATM   27  C   UNL     1      43.945 -19.171   2.824  1.00  0.00     0.107 A 
HETATM   28  O   UNL     1      43.759 -19.438   5.073  1.00  0.00    -0.323 OA
HETATM   29  O   UNL     1      44.852 -20.157   3.048  1.00  0.00    -0.323 OA
HETATM   30  C   UNL     1      44.713 -20.340   4.474  1.00  0.00     0.352 A 
ENDBRANCH  15  16
ENDBRANCH   1  15
BRANCH   1  31
HETATM   31  C   UNL     1      39.037 -12.343   2.435  1.00  0.00     0.164 C 
BRANCH  31  32
HETATM   32  C   UNL     1      39.190 -12.126   3.925  1.00  0.00    -0.037 A 
HETATM   33  C   UNL     1      39.423 -10.844   4.452  1.00  0.00     0.048 A 
HETATM   34  C   UNL     1      39.567 -10.712   5.819  1.00  0.00     0.105 A 
HETATM   35  C   UNL     1      39.502 -11.793   6.665  1.00  0.00     0.105 A 
HETATM   36  O   UNL     1      39.785  -9.547   6.484  1.00  0.00    -0.323 OA
HETATM   37  O   UNL     1      39.675 -11.446   7.967  1.00  0.00    -0.323 OA
HETATM   38  C   UNL     1      39.292 -13.067   6.192  1.00  0.00     0.040 A 
HETATM   39  C   UNL     1      39.876 -10.024   7.845  1.00  0.00     0.352 A 
HETATM   40  C   UNL     1      39.139 -13.229   4.811  1.00  0.00     0.012 A 
ENDBRANCH  31  32
ENDBRANCH   1  31
TORSDOF 12
ENDMDL
