MODEL 1
REMARK VINA RESULT:      -8.7      0.000      0.000
REMARK  2 active torsions:
REMARK  status: ('A' for Active; 'I' for Inactive)
REMARK    1  A    between atoms: C_6  and  C_8 
REMARK    2  A    between atoms: C_6  and  O_7 
ROOT
HETATM    1  C   UNL     1      44.708 -22.080   4.213  1.00  0.00     0.048 C 
HETATM    2  C   UNL     1      44.393 -20.736   4.803  1.00  0.00    -0.059 A 
HETATM    3  C   UNL     1      44.274 -20.571   6.187  1.00  0.00     0.037 A 
HETATM    4  C   UNL     1      43.992 -19.306   6.661  1.00  0.00     0.046 A 
HETATM    5  C   UNL     1      43.819 -18.194   5.826  1.00  0.00     0.023 A 
HETATM    6  C   UNL     1      43.572 -16.970   6.691  1.00  0.00     0.199 A 
HETATM    7  C   UNL     1      43.593 -17.587   8.135  1.00  0.00     0.266 A 
HETATM    8  O   UNL     1      43.464 -17.022   9.210  1.00  0.00    -0.269 OA
HETATM    9  N   UNL     1      43.860 -18.947   7.994  1.00  0.00    -0.323 N 
HETATM   10  C   UNL     1      43.960 -18.335   4.446  1.00  0.00    -0.049 A 
HETATM   11  C   UNL     1      43.787 -17.189   3.496  1.00  0.00     0.049 C 
HETATM   12  C   UNL     1      44.231 -19.623   3.949  1.00  0.00     0.014 A 
HETATM   13  H   UNL     1      43.942 -19.566   8.786  1.00  0.00     0.169 HD
ENDROOT
BRANCH   6  14
HETATM   14  C   UNL     1      42.229 -16.387   6.330  1.00  0.00     0.018 A 
HETATM   15  C   UNL     1      41.922 -15.111   5.729  1.00  0.00     0.002 A 
HETATM   16  C   UNL     1      40.537 -15.047   5.557  1.00  0.00     0.043 A 
HETATM   17  C   UNL     1      42.686 -14.002   5.301  1.00  0.00     0.014 A 
HETATM   18  C   UNL     1      39.886 -13.948   4.982  1.00  0.00     0.030 A 
HETATM   19  N   UNL     1      40.013 -16.223   6.034  1.00  0.00    -0.365 N 
HETATM   20  C   UNL     1      40.670 -12.872   4.565  1.00  0.00     0.002 A 
HETATM   21  C   UNL     1      42.052 -12.895   4.724  1.00  0.00     0.001 A 
HETATM   22  H   UNL     1      39.030 -16.458   6.024  1.00  0.00     0.165 HD
HETATM   23  C   UNL     1      41.010 -17.031   6.495  1.00  0.00     0.100 A 
ENDBRANCH   6  14
BRANCH   6  24
HETATM   24  O   UNL     1      44.644 -16.044   6.518  1.00  0.00    -0.371 OA
HETATM   25  H   UNL     1      44.235 -15.171   6.403  1.00  0.00     0.212 HD
ENDBRANCH   6  24
TORSDOF 2
ENDMDL
MODEL 2
REMARK VINA RESULT:      -8.3      3.227      4.548
REMARK  2 active torsions:
REMARK  status: ('A' for Active; 'I' for Inactive)
REMARK    1  A    between atoms: C_6  and  C_8 
REMARK    2  A    between atoms: C_6  and  O_7 
ROOT
HETATM    1  C   UNL     1      44.758 -20.751   2.901  1.00  0.00     0.048 C 
HETATM    2  C   UNL     1      43.887 -19.531   2.830  1.00  0.00    -0.059 A 
HETATM    3  C   UNL     1      43.701 -18.852   1.621  1.00  0.00     0.037 A 
HETATM    4  C   UNL     1      42.879 -17.744   1.627  1.00  0.00     0.046 A 
HETATM    5  C   UNL     1      42.234 -17.272   2.778  1.00  0.00     0.023 A 
HETATM    6  C   UNL     1      41.381 -16.072   2.401  1.00  0.00     0.199 A 
HETATM    7  C   UNL     1      41.691 -15.927   0.868  1.00  0.00     0.266 A 
HETATM    8  O   UNL     1      41.240 -15.121   0.069  1.00  0.00    -0.269 OA
HETATM    9  N   UNL     1      42.561 -16.961   0.527  1.00  0.00    -0.323 N 
HETATM   10  C   UNL     1      42.386 -17.951   3.985  1.00  0.00    -0.049 A 
HETATM   11  C   UNL     1      41.725 -17.502   5.253  1.00  0.00     0.049 C 
HETATM   12  C   UNL     1      43.234 -19.074   3.996  1.00  0.00     0.014 A 
HETATM   13  H   UNL     1      42.897 -17.095  -0.414  1.00  0.00     0.169 HD
ENDROOT
BRANCH   6  14
HETATM   14  C   UNL     1      41.845 -14.881   3.199  1.00  0.00     0.018 A 
HETATM   15  C   UNL     1      41.144 -14.144   4.224  1.00  0.00     0.002 A 
HETATM   16  C   UNL     1      42.006 -13.149   4.694  1.00  0.00     0.043 A 
HETATM   17  C   UNL     1      39.860 -14.227   4.810  1.00  0.00     0.014 A 
HETATM   18  C   UNL     1      41.658 -12.249   5.709  1.00  0.00     0.030 A 
HETATM   19  N   UNL     1      43.180 -13.262   3.990  1.00  0.00    -0.365 N 
HETATM   20  C   UNL     1      40.385 -12.363   6.271  1.00  0.00     0.002 A 
HETATM   21  C   UNL     1      39.496 -13.336   5.828  1.00  0.00     0.001 A 
HETATM   22  H   UNL     1      43.991 -12.676   4.130  1.00  0.00     0.165 HD
HETATM   23  C   UNL     1      43.098 -14.291   3.099  1.00  0.00     0.100 A 
ENDBRANCH   6  14
BRANCH   6  24
HETATM   24  O   UNL     1      40.005 -16.383   2.614  1.00  0.00    -0.371 OA
HETATM   25  H   UNL     1      39.641 -15.659   3.148  1.00  0.00     0.212 HD
ENDBRANCH   6  24
TORSDOF 2
ENDMDL
MODEL 3
REMARK VINA RESULT:      -8.1      2.537      3.129
REMARK  2 active torsions:
REMARK  status: ('A' for Active; 'I' for Inactive)
REMARK    1  A    between atoms: C_6  and  C_8 
REMARK    2  A    between atoms: C_6  and  O_7 
ROOT
HETATM    1  C   UNL     1      44.960 -21.344   4.101  1.00  0.00     0.048 C 
HETATM    2  C   UNL     1      44.379 -19.971   3.923  1.00  0.00    -0.059 A 
HETATM    3  C   UNL     1      44.075 -19.174   5.031  1.00  0.00     0.037 A 
HETATM    4  C   UNL     1      43.553 -17.918   4.794  1.00  0.00     0.046 A 
HETATM    5  C   UNL     1      43.315 -17.416   3.508  1.00  0.00     0.023 A 
HETATM    6  C   UNL     1      42.787 -15.996   3.630  1.00  0.00     0.199 A 
HETATM    7  C   UNL     1      42.729 -15.807   5.188  1.00  0.00     0.266 A 
HETATM    8  O   UNL     1      42.392 -14.823   5.828  1.00  0.00    -0.269 OA
HETATM    9  N   UNL     1      43.212 -16.983   5.760  1.00  0.00    -0.323 N 
HETATM   10  C   UNL     1      43.637 -18.186   2.392  1.00  0.00    -0.049 A 
HETATM   11  C   UNL     1      43.409 -17.711   0.989  1.00  0.00     0.049 C 
HETATM   12  C   UNL     1      44.155 -19.475   2.620  1.00  0.00     0.014 A 
HETATM   13  H   UNL     1      43.292 -17.104   6.758  1.00  0.00     0.169 HD
ENDROOT
BRANCH   6  14
HETATM   14  C   UNL     1      41.425 -15.931   2.989  1.00  0.00     0.018 A 
HETATM   15  C   UNL     1      40.707 -14.781   2.491  1.00  0.00     0.002 A 
HETATM   16  C   UNL     1      39.500 -15.237   1.952  1.00  0.00     0.043 A 
HETATM   17  C   UNL     1      40.965 -13.393   2.434  1.00  0.00     0.014 A 
HETATM   18  C   UNL     1      38.555 -14.389   1.363  1.00  0.00     0.030 A 
HETATM   19  N   UNL     1      39.471 -16.601   2.114  1.00  0.00    -0.365 N 
HETATM   20  C   UNL     1      38.844 -13.024   1.317  1.00  0.00     0.002 A 
HETATM   21  C   UNL     1      40.031 -12.530   1.847  1.00  0.00     0.001 A 
HETATM   22  H   UNL     1      38.718 -17.199   1.804  1.00  0.00     0.165 HD
HETATM   23  C   UNL     1      40.612 -17.027   2.727  1.00  0.00     0.100 A 
ENDBRANCH   6  14
BRANCH   6  24
HETATM   24  O   UNL     1      43.722 -15.091   3.042  1.00  0.00    -0.371 OA
HETATM   25  H   UNL     1      44.506 -15.617   2.817  1.00  0.00     0.212 HD
ENDBRANCH   6  24
TORSDOF 2
ENDMDL
MODEL 4
REMARK VINA RESULT:      -7.9      1.425      1.841
REMARK  2 active torsions:
REMARK  status: ('A' for Active; 'I' for Inactive)
REMARK    1  A    between atoms: C_6  and  C_8 
REMARK    2  A    between atoms: C_6  and  O_7 
ROOT
HETATM    1  C   UNL     1      44.323 -20.495   2.944  1.00  0.00     0.048 C 
HETATM    2  C   UNL     1      44.047 -19.171   3.597  1.00  0.00    -0.059 A 
HETATM    3  C   UNL     1      44.360 -18.958   4.944  1.00  0.00     0.037 A 
HETATM    4  C   UNL     1      44.089 -17.714   5.476  1.00  0.00     0.046 A 
HETATM    5  C   UNL     1      43.517 -16.670   4.736  1.00  0.00     0.023 A 
HETATM    6  C   UNL     1      43.410 -15.444   5.628  1.00  0.00     0.199 A 
HETATM    7  C   UNL     1      43.970 -15.987   6.991  1.00  0.00     0.266 A 
HETATM    8  O   UNL     1      44.124 -15.393   8.046  1.00  0.00    -0.269 OA
HETATM    9  N   UNL     1      44.347 -17.312   6.778  1.00  0.00    -0.323 N 
HETATM   10  C   UNL     1      43.225 -16.856   3.387  1.00  0.00    -0.049 A 
HETATM   11  C   UNL     1      42.613 -15.783   2.537  1.00  0.00     0.049 C 
HETATM   12  C   UNL     1      43.481 -18.126   2.835  1.00  0.00     0.014 A 
HETATM   13  H   UNL     1      44.757 -17.880   7.504  1.00  0.00     0.169 HD
ENDROOT
BRANCH   6  14
HETATM   14  C   UNL     1      41.960 -15.040   5.719  1.00  0.00     0.018 A 
HETATM   15  C   UNL     1      41.365 -13.737   5.538  1.00  0.00     0.002 A 
HETATM   16  C   UNL     1      39.983 -13.880   5.686  1.00  0.00     0.043 A 
HETATM   17  C   UNL     1      41.863 -12.446   5.254  1.00  0.00     0.014 A 
HETATM   18  C   UNL     1      39.084 -12.813   5.559  1.00  0.00     0.030 A 
HETATM   19  N   UNL     1      39.736 -15.204   5.950  1.00  0.00    -0.365 N 
HETATM   20  C   UNL     1      39.608 -11.551   5.271  1.00  0.00     0.002 A 
HETATM   21  C   UNL     1      40.979 -11.367   5.122  1.00  0.00     0.001 A 
HETATM   22  H   UNL     1      38.816 -15.599   6.090  1.00  0.00     0.165 HD
HETATM   23  C   UNL     1      40.904 -15.907   5.970  1.00  0.00     0.100 A 
ENDBRANCH   6  14
BRANCH   6  24
HETATM   24  O   UNL     1      44.244 -14.408   5.112  1.00  0.00    -0.371 OA
HETATM   25  H   UNL     1      43.705 -13.917   4.471  1.00  0.00     0.212 HD
ENDBRANCH   6  24
TORSDOF 2
ENDMDL
MODEL 5
REMARK VINA RESULT:      -7.7      4.037      5.597
REMARK  2 active torsions:
REMARK  status: ('A' for Active; 'I' for Inactive)
REMARK    1  A    between atoms: C_6  and  C_8 
REMARK    2  A    between atoms: C_6  and  O_7 
ROOT
HETATM    1  C   UNL     1      43.987 -19.453   2.273  1.00  0.00     0.048 C 
HETATM    2  C   UNL     1      43.116 -18.245   2.462  1.00  0.00    -0.059 A 
HETATM    3  C   UNL     1      41.882 -18.142   1.812  1.00  0.00     0.037 A 
HETATM    4  C   UNL     1      41.129 -17.008   2.040  1.00  0.00     0.046 A 
HETATM    5  C   UNL     1      41.545 -15.966   2.880  1.00  0.00     0.023 A 
HETATM    6  C   UNL     1      40.450 -14.914   2.928  1.00  0.00     0.199 A 
HETATM    7  C   UNL     1      39.381 -15.516   1.947  1.00  0.00     0.266 A 
HETATM    8  O   UNL     1      38.286 -15.071   1.641  1.00  0.00    -0.269 OA
HETATM    9  N   UNL     1      39.878 -16.740   1.504  1.00  0.00    -0.323 N 
HETATM   10  C   UNL     1      42.759 -16.064   3.557  1.00  0.00    -0.049 A 
HETATM   11  C   UNL     1      43.264 -14.988   4.470  1.00  0.00     0.049 C 
HETATM   12  C   UNL     1      43.544 -17.208   3.320  1.00  0.00     0.014 A 
HETATM   13  H   UNL     1      39.364 -17.335   0.872  1.00  0.00     0.169 HD
ENDROOT
BRANCH   6  14
HETATM   14  C   UNL     1      41.016 -13.607   2.435  1.00  0.00     0.018 A 
HETATM   15  C   UNL     1      41.485 -13.258   1.114  1.00  0.00     0.002 A 
HETATM   16  C   UNL     1      41.877 -11.917   1.145  1.00  0.00     0.043 A 
HETATM   17  C   UNL     1      41.607 -13.947  -0.113  1.00  0.00     0.014 A 
HETATM   18  C   UNL     1      42.374 -11.238   0.026  1.00  0.00     0.030 A 
HETATM   19  N   UNL     1      41.666 -11.461   2.423  1.00  0.00    -0.365 N 
HETATM   20  C   UNL     1      42.477 -11.946  -1.173  1.00  0.00     0.002 A 
HETATM   21  C   UNL     1      42.101 -13.283  -1.243  1.00  0.00     0.001 A 
HETATM   22  H   UNL     1      41.852 -10.517   2.732  1.00  0.00     0.165 HD
HETATM   23  C   UNL     1      41.151 -12.456   3.200  1.00  0.00     0.100 A 
ENDBRANCH   6  14
BRANCH   6  24
HETATM   24  O   UNL     1      39.932 -14.829   4.255  1.00  0.00    -0.371 OA
HETATM   25  H   UNL     1      40.473 -15.425   4.798  1.00  0.00     0.212 HD
ENDBRANCH   6  24
TORSDOF 2
ENDMDL
MODEL 6
REMARK VINA RESULT:      -7.7      2.889      4.232
REMARK  2 active torsions:
REMARK  status: ('A' for Active; 'I' for Inactive)
REMARK    1  A    between atoms: C_6  and  C_8 
REMARK    2  A    between atoms: C_6  and  O_7 
ROOT
HETATM    1  C   UNL     1      44.605 -21.737   1.715  1.00  0.00     0.048 C 
HETATM    2  C   UNL     1      43.921 -20.527   2.284  1.00  0.00    -0.059 A 
HETATM    3  C   UNL     1      42.959 -19.833   1.543  1.00  0.00     0.037 A 
HETATM    4  C   UNL     1      42.363 -18.737   2.132  1.00  0.00     0.046 A 
HETATM    5  C   UNL     1      42.679 -18.292   3.423  1.00  0.00     0.023 A 
HETATM    6  C   UNL     1      41.799 -17.099   3.755  1.00  0.00     0.199 A 
HETATM    7  C   UNL     1      40.976 -16.926   2.428  1.00  0.00     0.266 A 
HETATM    8  O   UNL     1      40.102 -16.114   2.170  1.00  0.00    -0.269 OA
HETATM    9  N   UNL     1      41.378 -17.942   1.564  1.00  0.00    -0.323 N 
HETATM   10  C   UNL     1      43.615 -18.987   4.186  1.00  0.00    -0.049 A 
HETATM   11  C   UNL     1      44.000 -18.567   5.572  1.00  0.00     0.049 C 
HETATM   12  C   UNL     1      44.242 -20.098   3.591  1.00  0.00     0.014 A 
HETATM   13  H   UNL     1      40.980 -18.058   0.644  1.00  0.00     0.169 HD
ENDROOT
BRANCH   6  14
HETATM   14  C   UNL     1      42.683 -15.913   4.046  1.00  0.00     0.018 A 
HETATM   15  C   UNL     1      43.232 -15.475   5.307  1.00  0.00     0.002 A 
HETATM   16  C   UNL     1      44.021 -14.348   5.056  1.00  0.00     0.043 A 
HETATM   17  C   UNL     1      43.147 -15.929   6.643  1.00  0.00     0.014 A 
HETATM   18  C   UNL     1      44.723 -13.666   6.057  1.00  0.00     0.030 A 
HETATM   19  N   UNL     1      43.957 -14.099   3.707  1.00  0.00    -0.365 N 
HETATM   20  C   UNL     1      44.623 -14.144   7.365  1.00  0.00     0.002 A 
HETATM   21  C   UNL     1      43.844 -15.260   7.657  1.00  0.00     0.001 A 
HETATM   22  H   UNL     1      44.444 -13.347   3.240  1.00  0.00     0.165 HD
HETATM   23  C   UNL     1      43.166 -15.025   3.094  1.00  0.00     0.100 A 
ENDBRANCH   6  14
BRANCH   6  24
HETATM   24  O   UNL     1      40.940 -17.432   4.845  1.00  0.00    -0.371 OA
HETATM   25  H   UNL     1      40.036 -17.427   4.492  1.00  0.00     0.212 HD
ENDBRANCH   6  24
TORSDOF 2
ENDMDL
MODEL 7
REMARK VINA RESULT:      -7.6      1.930      5.538
REMARK  2 active torsions:
REMARK  status: ('A' for Active; 'I' for Inactive)
REMARK    1  A    between atoms: C_6  and  C_8 
REMARK    2  A    between atoms: C_6  and  O_7 
ROOT
HETATM    1  C   UNL     1      39.070 -12.244   4.625  1.00  0.00     0.048 C 
HETATM    2  C   UNL     1      40.138 -13.193   5.087  1.00  0.00    -0.059 A 
HETATM    3  C   UNL     1      41.465 -12.769   5.220  1.00  0.00     0.037 A 
HETATM    4  C   UNL     1      42.392 -13.692   5.659  1.00  0.00     0.046 A 
HETATM    5  C   UNL     1      42.068 -15.019   5.969  1.00  0.00     0.023 A 
HETATM    6  C   UNL     1      43.321 -15.724   6.461  1.00  0.00     0.199 A 
HETATM    7  C   UNL     1      44.400 -14.590   6.332  1.00  0.00     0.266 A 
HETATM    8  O   UNL     1      45.586 -14.625   6.621  1.00  0.00    -0.269 OA
HETATM    9  N   UNL     1      43.742 -13.451   5.871  1.00  0.00    -0.323 N 
HETATM   10  C   UNL     1      40.747 -15.452   5.868  1.00  0.00    -0.049 A 
HETATM   11  C   UNL     1      40.331 -16.856   6.184  1.00  0.00     0.049 C 
HETATM   12  C   UNL     1      39.794 -14.525   5.406  1.00  0.00     0.014 A 
HETATM   13  H   UNL     1      44.219 -12.575   5.721  1.00  0.00     0.169 HD
ENDROOT
BRANCH   6  14
HETATM   14  C   UNL     1      43.603 -16.895   5.555  1.00  0.00     0.018 A 
HETATM   15  C   UNL     1      43.563 -16.961   4.113  1.00  0.00     0.002 A 
HETATM   16  C   UNL     1      43.941 -18.253   3.738  1.00  0.00     0.043 A 
HETATM   17  C   UNL     1      43.253 -16.046   3.082  1.00  0.00     0.014 A 
HETATM   18  C   UNL     1      44.028 -18.670   2.404  1.00  0.00     0.030 A 
HETATM   19  N   UNL     1      44.196 -18.953   4.892  1.00  0.00    -0.365 N 
HETATM   20  C   UNL     1      43.721 -17.739   1.410  1.00  0.00     0.002 A 
HETATM   21  C   UNL     1      43.336 -16.445   1.742  1.00  0.00     0.001 A 
HETATM   22  H   UNL     1      44.502 -19.916   4.922  1.00  0.00     0.165 HD
HETATM   23  C   UNL     1      44.001 -18.156   5.980  1.00  0.00     0.100 A 
ENDBRANCH   6  14
BRANCH   6  24
HETATM   24  O   UNL     1      43.145 -16.106   7.825  1.00  0.00    -0.371 OA
HETATM   25  H   UNL     1      43.187 -17.075   7.844  1.00  0.00     0.212 HD
ENDBRANCH   6  24
TORSDOF 2
ENDMDL
MODEL 8
REMARK VINA RESULT:      -7.6      3.100      6.349
REMARK  2 active torsions:
REMARK  status: ('A' for Active; 'I' for Inactive)
REMARK    1  A    between atoms: C_6  and  C_8 
REMARK    2  A    between atoms: C_6  and  O_7 
ROOT
HETATM    1  C   UNL     1      41.064 -12.268  -1.161  1.00  0.00     0.048 C 
HETATM    2  C   UNL     1      41.107 -12.914   0.194  1.00  0.00    -0.059 A 
HETATM    3  C   UNL     1      42.042 -12.508   1.151  1.00  0.00     0.037 A 
HETATM    4  C   UNL     1      42.019 -13.138   2.379  1.00  0.00     0.046 A 
HETATM    5  C   UNL     1      41.111 -14.156   2.702  1.00  0.00     0.023 A 
HETATM    6  C   UNL     1      41.346 -14.576   4.143  1.00  0.00     0.199 A 
HETATM    7  C   UNL     1      42.554 -13.661   4.554  1.00  0.00     0.266 A 
HETATM    8  O   UNL     1      43.125 -13.584   5.630  1.00  0.00    -0.269 OA
HETATM    9  N   UNL     1      42.849 -12.857   3.454  1.00  0.00    -0.323 N 
HETATM   10  C   UNL     1      40.156 -14.554   1.770  1.00  0.00    -0.049 A 
HETATM   11  C   UNL     1      39.156 -15.636   2.049  1.00  0.00     0.049 C 
HETATM   12  C   UNL     1      40.180 -13.931   0.508  1.00  0.00     0.014 A 
HETATM   13  H   UNL     1      43.582 -12.165   3.472  1.00  0.00     0.169 HD
ENDROOT
BRANCH   6  14
HETATM   14  C   UNL     1      41.697 -16.042   4.167  1.00  0.00     0.018 A 
HETATM   15  C   UNL     1      42.581 -16.781   3.297  1.00  0.00     0.002 A 
HETATM   16  C   UNL     1      42.608 -18.104   3.746  1.00  0.00     0.043 A 
HETATM   17  C   UNL     1      43.373 -16.455   2.173  1.00  0.00     0.014 A 
HETATM   18  C   UNL     1      43.380 -19.104   3.141  1.00  0.00     0.030 A 
HETATM   19  N   UNL     1      41.777 -18.181   4.837  1.00  0.00    -0.365 N 
HETATM   20  C   UNL     1      44.156 -18.747   2.037  1.00  0.00     0.002 A 
HETATM   21  C   UNL     1      44.153 -17.442   1.556  1.00  0.00     0.001 A 
HETATM   22  H   UNL     1      41.613 -19.021   5.374  1.00  0.00     0.165 HD
HETATM   23  C   UNL     1      41.230 -16.959   5.100  1.00  0.00     0.100 A 
ENDBRANCH   6  14
BRANCH   6  24
HETATM   24  O   UNL     1      40.189 -14.269   4.920  1.00  0.00    -0.371 OA
HETATM   25  H   UNL     1      39.628 -15.061   4.900  1.00  0.00     0.212 HD
ENDBRANCH   6  24
TORSDOF 2
ENDMDL
MODEL 9
REMARK VINA RESULT:      -7.6      2.819      6.784
REMARK  2 active torsions:
REMARK  status: ('A' for Active; 'I' for Inactive)
REMARK    1  A    between atoms: C_6  and  C_8 
REMARK    2  A    between atoms: C_6  and  O_7 
ROOT
HETATM    1  C   UNL     1      39.262 -11.598   3.773  1.00  0.00     0.048 C 
HETATM    2  C   UNL     1      40.007 -12.853   3.423  1.00  0.00    -0.059 A 
HETATM    3  C   UNL     1      39.356 -13.919   2.792  1.00  0.00     0.037 A 
HETATM    4  C   UNL     1      40.104 -15.039   2.490  1.00  0.00     0.046 A 
HETATM    5  C   UNL     1      41.469 -15.154   2.787  1.00  0.00     0.023 A 
HETATM    6  C   UNL     1      41.968 -16.493   2.271  1.00  0.00     0.199 A 
HETATM    7  C   UNL     1      40.655 -17.120   1.680  1.00  0.00     0.266 A 
HETATM    8  O   UNL     1      40.505 -18.193   1.117  1.00  0.00    -0.269 OA
HETATM    9  N   UNL     1      39.641 -16.179   1.851  1.00  0.00    -0.323 N 
HETATM   10  C   UNL     1      42.139 -14.092   3.391  1.00  0.00    -0.049 A 
HETATM   11  C   UNL     1      43.597 -14.147   3.736  1.00  0.00     0.049 C 
HETATM   12  C   UNL     1      41.384 -12.950   3.719  1.00  0.00     0.014 A 
HETATM   13  H   UNL     1      38.697 -16.340   1.534  1.00  0.00     0.169 HD
ENDROOT
BRANCH   6  14
HETATM   14  C   UNL     1      42.515 -17.284   3.432  1.00  0.00     0.018 A 
HETATM   15  C   UNL     1      43.366 -18.451   3.418  1.00  0.00     0.002 A 
HETATM   16  C   UNL     1      43.633 -18.795   4.746  1.00  0.00     0.043 A 
HETATM   17  C   UNL     1      43.948 -19.247   2.406  1.00  0.00     0.014 A 
HETATM   18  C   UNL     1      44.445 -19.877   5.109  1.00  0.00     0.030 A 
HETATM   19  N   UNL     1      42.974 -17.890   5.541  1.00  0.00    -0.365 N 
HETATM   20  C   UNL     1      45.009 -20.640   4.085  1.00  0.00     0.002 A 
HETATM   21  C   UNL     1      44.764 -20.332   2.751  1.00  0.00     0.001 A 
HETATM   22  H   UNL     1      42.999 -17.890   6.552  1.00  0.00     0.165 HD
HETATM   23  C   UNL     1      42.307 -16.984   4.771  1.00  0.00     0.100 A 
ENDBRANCH   6  14
BRANCH   6  24
HETATM   24  O   UNL     1      42.934 -16.274   1.244  1.00  0.00    -0.371 OA
HETATM   25  H   UNL     1      43.770 -16.642   1.572  1.00  0.00     0.212 HD
ENDBRANCH   6  24
TORSDOF 2
ENDMDL
MODEL 10
REMARK VINA RESULT:      -7.5      3.418      4.828
REMARK  2 active torsions:
REMARK  status: ('A' for Active; 'I' for Inactive)
REMARK    1  A    between atoms: C_6  and  C_8 
REMARK    2  A    between atoms: C_6  and  O_7 
ROOT
HETATM    1  C   UNL     1      44.986 -20.139   4.226  1.00  0.00     0.048 C 
HETATM    2  C   UNL     1      43.989 -19.147   3.699  1.00  0.00    -0.059 A 
HETATM    3  C   UNL     1      44.012 -18.753   2.358  1.00  0.00     0.037 A 
HETATM    4  C   UNL     1      43.061 -17.845   1.939  1.00  0.00     0.046 A 
HETATM    5  C   UNL     1      42.088 -17.305   2.791  1.00  0.00     0.023 A 
HETATM    6  C   UNL     1      41.189 -16.386   1.981  1.00  0.00     0.199 A 
HETATM    7  C   UNL     1      41.843 -16.468   0.556  1.00  0.00     0.266 A 
HETATM    8  O   UNL     1      41.492 -15.928  -0.481  1.00  0.00    -0.269 OA
HETATM    9  N   UNL     1      42.913 -17.357   0.649  1.00  0.00    -0.323 N 
HETATM   10  C   UNL     1      42.034 -17.706   4.124  1.00  0.00    -0.049 A 
HETATM   11  C   UNL     1      41.020 -17.169   5.089  1.00  0.00     0.049 C 
HETATM   12  C   UNL     1      43.009 -18.620   4.568  1.00  0.00     0.014 A 
HETATM   13  H   UNL     1      43.488 -17.595  -0.144  1.00  0.00     0.169 HD
ENDROOT
BRANCH   6  14
HETATM   14  C   UNL     1      41.259 -15.000   2.570  1.00  0.00     0.018 A 
HETATM   15  C   UNL     1      40.304 -13.921   2.476  1.00  0.00     0.002 A 
HETATM   16  C   UNL     1      40.802 -12.850   3.223  1.00  0.00     0.043 A 
HETATM   17  C   UNL     1      39.056 -13.749   1.837  1.00  0.00     0.014 A 
HETATM   18  C   UNL     1      40.122 -11.634   3.366  1.00  0.00     0.030 A 
HETATM   19  N   UNL     1      42.007 -13.245   3.748  1.00  0.00    -0.365 N 
HETATM   20  C   UNL     1      38.889 -11.499   2.727  1.00  0.00     0.002 A 
HETATM   21  C   UNL     1      38.361 -12.540   1.970  1.00  0.00     0.001 A 
HETATM   22  H   UNL     1      42.588 -12.672   4.344  1.00  0.00     0.165 HD
HETATM   23  C   UNL     1      42.290 -14.524   3.369  1.00  0.00     0.100 A 
ENDBRANCH   6  14
BRANCH   6  24
HETATM   24  O   UNL     1      39.863 -16.915   1.963  1.00  0.00    -0.371 OA
HETATM   25  H   UNL     1      39.863 -17.629   1.304  1.00  0.00     0.212 HD
ENDBRANCH   6  24
TORSDOF 2
ENDMDL
