MODEL 1
REMARK VINA RESULT:      -7.7      0.000      0.000
REMARK  5 active torsions:
REMARK  status: ('A' for Active; 'I' for Inactive)
REMARK    1  A    between atoms: C_3  and  N_4 
REMARK       I    between atoms: N_4  and  C_5 
REMARK       I    between atoms: C_5  and  N_6 
REMARK    2  A    between atoms: N_6  and  C_7 
REMARK    3  A    between atoms: C_7  and  C_8 
REMARK    4  A    between atoms: C_8  and  O_9 
REMARK    5  A    between atoms: O_9  and  C_10 
ROOT
HETATM    1  N   UNL     1      42.433 -16.401   3.911  1.00  0.00    -0.307 N 
HETATM    2  C   UNL     1      41.781 -16.393   5.112  1.00  0.00     0.320 C 
HETATM    3  N   UNL     1      42.164 -17.366   5.989  1.00  0.00    -0.340 N 
HETATM    4  O   UNL     1      40.935 -15.586   5.478  1.00  0.00    -0.247 OA
HETATM    5  H   UNL     1      43.375 -16.750   3.985  1.00  0.00     0.170 HD
HETATM    6  H   UNL     1      41.592 -17.353   6.828  1.00  0.00     0.164 HD
ENDROOT
BRANCH   3   7
HETATM    7  C   UNL     1      42.930 -18.585   5.756  1.00  0.00     0.156 C 
BRANCH   7   8
HETATM    8  C   UNL     1      44.421 -18.313   5.475  1.00  0.00     0.142 C 
HETATM    9  C   UNL     1      45.148 -17.801   6.718  1.00  0.00     0.042 C 
BRANCH   8  10
HETATM   10  O   UNL     1      45.088 -19.518   5.070  1.00  0.00    -0.343 OA
BRANCH  10  11
HETATM   11  C   UNL     1      44.617 -20.162   3.956  1.00  0.00     0.091 A 
HETATM   12  C   UNL     1      44.720 -21.562   3.924  1.00  0.00     0.067 A 
HETATM   13 CL   UNL     1      45.342 -22.446   5.271  1.00  0.00    -0.081 Cl
HETATM   14  C   UNL     1      44.306 -22.279   2.798  1.00  0.00     0.026 A 
HETATM   15  C   UNL     1      43.795 -21.604   1.690  1.00  0.00     0.002 A 
HETATM   16  C   UNL     1      43.710 -20.214   1.706  1.00  0.00     0.003 A 
HETATM   17  C   UNL     1      44.131 -19.494   2.829  1.00  0.00     0.038 A 
ENDBRANCH  10  11
ENDBRANCH   8  10
ENDBRANCH   7   8
ENDBRANCH   3   7
BRANCH   1  18
HETATM   18  C   UNL     1      42.185 -15.607   2.764  1.00  0.00     0.059 A 
HETATM   19  C   UNL     1      41.565 -16.007   1.571  1.00  0.00    -0.032 A 
HETATM   20  C   UNL     1      41.089 -17.397   1.266  1.00  0.00     0.050 C 
HETATM   21  C   UNL     1      41.385 -15.041   0.561  1.00  0.00     0.028 A 
HETATM   22  C   UNL     1      41.870 -13.756   0.737  1.00  0.00     0.117 A 
HETATM   23  N   UNL     1      42.523 -13.358   1.841  1.00  0.00    -0.271 NA
HETATM   24  C   UNL     1      42.660 -14.288   2.816  1.00  0.00     0.146 A 
ENDBRANCH   1  18
TORSDOF 5
ENDMDL
MODEL 2
REMARK VINA RESULT:      -7.6      1.810      3.686
REMARK  5 active torsions:
REMARK  status: ('A' for Active; 'I' for Inactive)
REMARK    1  A    between atoms: C_3  and  N_4 
REMARK       I    between atoms: N_4  and  C_5 
REMARK       I    between atoms: C_5  and  N_6 
REMARK    2  A    between atoms: N_6  and  C_7 
REMARK    3  A    between atoms: C_7  and  C_8 
REMARK    4  A    between atoms: C_8  and  O_9 
REMARK    5  A    between atoms: O_9  and  C_10 
ROOT
HETATM    1  N   UNL     1      42.634 -16.783   3.249  1.00  0.00    -0.307 N 
HETATM    2  C   UNL     1      41.842 -17.364   2.299  1.00  0.00     0.320 C 
HETATM    3  N   UNL     1      42.346 -18.500   1.736  1.00  0.00    -0.340 N 
HETATM    4  O   UNL     1      40.730 -16.990   1.946  1.00  0.00    -0.247 OA
HETATM    5  H   UNL     1      43.195 -17.454   3.748  1.00  0.00     0.170 HD
HETATM    6  H   UNL     1      41.748 -18.839   0.988  1.00  0.00     0.164 HD
ENDROOT
BRANCH   3   7
HETATM    7  C   UNL     1      43.704 -19.030   1.759  1.00  0.00     0.156 C 
BRANCH   7   8
HETATM    8  C   UNL     1      43.824 -20.343   2.560  1.00  0.00     0.142 C 
HETATM    9  C   UNL     1      44.143 -21.532   1.654  1.00  0.00     0.042 C 
BRANCH   8  10
HETATM   10  O   UNL     1      44.888 -20.254   3.520  1.00  0.00    -0.343 OA
BRANCH  10  11
HETATM   11  C   UNL     1      44.545 -20.062   4.832  1.00  0.00     0.091 A 
HETATM   12  C   UNL     1      44.334 -21.204   5.621  1.00  0.00     0.067 A 
HETATM   13 CL   UNL     1      44.574 -22.792   4.982  1.00  0.00    -0.081 Cl
HETATM   14  C   UNL     1      43.933 -21.083   6.954  1.00  0.00     0.026 A 
HETATM   15  C   UNL     1      43.731 -19.821   7.509  1.00  0.00     0.002 A 
HETATM   16  C   UNL     1      43.917 -18.683   6.728  1.00  0.00     0.003 A 
HETATM   17  C   UNL     1      44.311 -18.802   5.391  1.00  0.00     0.038 A 
ENDBRANCH  10  11
ENDBRANCH   8  10
ENDBRANCH   7   8
ENDBRANCH   3   7
BRANCH   1  18
HETATM   18  C   UNL     1      42.448 -15.550   3.923  1.00  0.00     0.059 A 
HETATM   19  C   UNL     1      41.774 -15.337   5.134  1.00  0.00    -0.032 A 
HETATM   20  C   UNL     1      41.065 -16.394   5.928  1.00  0.00     0.050 C 
HETATM   21  C   UNL     1      41.734 -14.026   5.650  1.00  0.00     0.028 A 
HETATM   22  C   UNL     1      42.297 -12.983   4.933  1.00  0.00     0.117 A 
HETATM   23  N   UNL     1      42.894 -13.143   3.741  1.00  0.00    -0.271 NA
HETATM   24  C   UNL     1      42.952 -14.413   3.275  1.00  0.00     0.146 A 
ENDBRANCH   1  18
TORSDOF 5
ENDMDL
MODEL 3
REMARK VINA RESULT:      -7.6      2.681      6.425
REMARK  5 active torsions:
REMARK  status: ('A' for Active; 'I' for Inactive)
REMARK    1  A    between atoms: C_3  and  N_4 
REMARK       I    between atoms: N_4  and  C_5 
REMARK       I    between atoms: C_5  and  N_6 
REMARK    2  A    between atoms: N_6  and  C_7 
REMARK    3  A    between atoms: C_7  and  C_8 
REMARK    4  A    between atoms: C_8  and  O_9 
REMARK    5  A    between atoms: O_9  and  C_10 
ROOT
HETATM    1  N   UNL     1      43.008 -18.424   2.148  1.00  0.00    -0.307 N 
HETATM    2  C   UNL     1      43.566 -17.478   1.334  1.00  0.00     0.320 C 
HETATM    3  N   UNL     1      42.713 -16.502   0.906  1.00  0.00    -0.340 N 
HETATM    4  O   UNL     1      44.742 -17.404   0.999  1.00  0.00    -0.247 OA
HETATM    5  H   UNL     1      42.250 -18.059   2.701  1.00  0.00     0.170 HD
HETATM    6  H   UNL     1      43.168 -15.876   0.247  1.00  0.00     0.164 HD
ENDROOT
BRANCH   3   7
HETATM    7  C   UNL     1      41.256 -16.463   0.922  1.00  0.00     0.156 C 
BRANCH   7   8
HETATM    8  C   UNL     1      40.692 -15.527   2.010  1.00  0.00     0.142 C 
HETATM    9  C   UNL     1      39.184 -15.329   1.861  1.00  0.00     0.042 C 
BRANCH   8  10
HETATM   10  O   UNL     1      40.911 -16.080   3.316  1.00  0.00    -0.343 OA
BRANCH  10  11
HETATM   11  C   UNL     1      41.881 -15.506   4.096  1.00  0.00     0.091 A 
HETATM   12  C   UNL     1      42.081 -16.037   5.380  1.00  0.00     0.067 A 
HETATM   13 CL   UNL     1      41.192 -17.415   5.927  1.00  0.00    -0.081 Cl
HETATM   14  C   UNL     1      43.018 -15.469   6.246  1.00  0.00     0.026 A 
HETATM   15  C   UNL     1      43.757 -14.358   5.843  1.00  0.00     0.002 A 
HETATM   16  C   UNL     1      43.550 -13.811   4.578  1.00  0.00     0.003 A 
HETATM   17  C   UNL     1      42.607 -14.375   3.712  1.00  0.00     0.038 A 
ENDBRANCH  10  11
ENDBRANCH   8  10
ENDBRANCH   7   8
ENDBRANCH   3   7
BRANCH   1  18
HETATM   18  C   UNL     1      43.593 -19.611   2.655  1.00  0.00     0.059 A 
HETATM   19  C   UNL     1      44.270 -19.771   3.872  1.00  0.00    -0.032 A 
HETATM   20  C   UNL     1      44.550 -18.676   4.859  1.00  0.00     0.050 C 
HETATM   21  C   UNL     1      44.748 -21.056   4.201  1.00  0.00     0.028 A 
HETATM   22  C   UNL     1      44.599 -22.101   3.304  1.00  0.00     0.117 A 
HETATM   23  N   UNL     1      44.012 -21.966   2.104  1.00  0.00    -0.271 NA
HETATM   24  C   UNL     1      43.529 -20.733   1.817  1.00  0.00     0.146 A 
ENDBRANCH   1  18
TORSDOF 5
ENDMDL
MODEL 4
REMARK VINA RESULT:      -7.5      2.515      6.277
REMARK  5 active torsions:
REMARK  status: ('A' for Active; 'I' for Inactive)
REMARK    1  A    between atoms: C_3  and  N_4 
REMARK       I    between atoms: N_4  and  C_5 
REMARK       I    between atoms: C_5  and  N_6 
REMARK    2  A    between atoms: N_6  and  C_7 
REMARK    3  A    between atoms: C_7  and  C_8 
REMARK    4  A    between atoms: C_8  and  O_9 
REMARK    5  A    between atoms: O_9  and  C_10 
ROOT
HETATM    1  N   UNL     1      43.077 -17.970   2.539  1.00  0.00    -0.307 N 
HETATM    2  C   UNL     1      43.547 -17.273   1.461  1.00  0.00     0.320 C 
HETATM    3  N   UNL     1      42.631 -16.477   0.838  1.00  0.00    -0.340 N 
HETATM    4  O   UNL     1      44.698 -17.266   1.040  1.00  0.00    -0.247 OA
HETATM    5  H   UNL     1      42.337 -17.485   3.019  1.00  0.00     0.170 HD
HETATM    6  H   UNL     1      43.020 -16.047   0.004  1.00  0.00     0.164 HD
ENDROOT
BRANCH   3   7
HETATM    7  C   UNL     1      41.176 -16.471   0.939  1.00  0.00     0.156 C 
BRANCH   7   8
HETATM    8  C   UNL     1      40.648 -15.422   1.939  1.00  0.00     0.142 C 
HETATM    9  C   UNL     1      39.164 -15.128   1.720  1.00  0.00     0.042 C 
BRANCH   8  10
HETATM   10  O   UNL     1      40.783 -15.896   3.287  1.00  0.00    -0.343 OA
BRANCH  10  11
HETATM   11  C   UNL     1      41.759 -15.331   4.065  1.00  0.00     0.091 A 
HETATM   12  C   UNL     1      41.879 -15.784   5.388  1.00  0.00     0.067 A 
HETATM   13 CL   UNL     1      40.885 -17.064   5.989  1.00  0.00    -0.081 Cl
HETATM   14  C   UNL     1      42.820 -15.217   6.252  1.00  0.00     0.026 A 
HETATM   15  C   UNL     1      43.642 -14.184   5.805  1.00  0.00     0.002 A 
HETATM   16  C   UNL     1      43.515 -13.713   4.501  1.00  0.00     0.003 A 
HETATM   17  C   UNL     1      42.569 -14.275   3.637  1.00  0.00     0.038 A 
ENDBRANCH  10  11
ENDBRANCH   8  10
ENDBRANCH   7   8
ENDBRANCH   3   7
BRANCH   1  18
HETATM   18  C   UNL     1      43.741 -18.954   3.312  1.00  0.00     0.059 A 
HETATM   19  C   UNL     1      43.994 -20.287   2.956  1.00  0.00    -0.032 A 
HETATM   20  C   UNL     1      43.551 -20.941   1.681  1.00  0.00     0.050 C 
HETATM   21  C   UNL     1      44.705 -21.093   3.867  1.00  0.00     0.028 A 
HETATM   22  C   UNL     1      45.077 -20.583   5.100  1.00  0.00     0.117 A 
HETATM   23  N   UNL     1      44.795 -19.331   5.497  1.00  0.00    -0.271 NA
HETATM   24  C   UNL     1      44.140 -18.559   4.597  1.00  0.00     0.146 A 
ENDBRANCH   1  18
TORSDOF 5
ENDMDL
MODEL 5
REMARK VINA RESULT:      -7.5      2.519      6.212
REMARK  5 active torsions:
REMARK  status: ('A' for Active; 'I' for Inactive)
REMARK    1  A    between atoms: C_3  and  N_4 
REMARK       I    between atoms: N_4  and  C_5 
REMARK       I    between atoms: C_5  and  N_6 
REMARK    2  A    between atoms: N_6  and  C_7 
REMARK    3  A    between atoms: C_7  and  C_8 
REMARK    4  A    between atoms: C_8  and  O_9 
REMARK    5  A    between atoms: O_9  and  C_10 
ROOT
HETATM    1  N   UNL     1      44.114 -18.962   2.776  1.00  0.00    -0.307 N 
HETATM    2  C   UNL     1      42.986 -18.522   2.144  1.00  0.00     0.320 C 
HETATM    3  N   UNL     1      43.027 -17.229   1.711  1.00  0.00    -0.340 N 
HETATM    4  O   UNL     1      41.982 -19.180   1.899  1.00  0.00    -0.247 OA
HETATM    5  H   UNL     1      44.949 -18.512   2.437  1.00  0.00     0.170 HD
HETATM    6  H   UNL     1      42.135 -16.941   1.319  1.00  0.00     0.164 HD
ENDROOT
BRANCH   3   7
HETATM    7  C   UNL     1      43.945 -16.153   2.068  1.00  0.00     0.156 C 
BRANCH   7   8
HETATM    8  C   UNL     1      43.302 -15.096   2.988  1.00  0.00     0.142 C 
HETATM    9  C   UNL     1      42.520 -14.052   2.191  1.00  0.00     0.042 C 
BRANCH   8  10
HETATM   10  O   UNL     1      42.372 -15.710   3.892  1.00  0.00    -0.343 OA
BRANCH  10  11
HETATM   11  C   UNL     1      42.806 -15.983   5.163  1.00  0.00     0.091 A 
HETATM   12  C   UNL     1      42.209 -17.061   5.836  1.00  0.00     0.067 A 
HETATM   13 CL   UNL     1      41.027 -18.056   5.061  1.00  0.00    -0.081 Cl
HETATM   14  C   UNL     1      42.567 -17.364   7.152  1.00  0.00     0.026 A 
HETATM   15  C   UNL     1      43.518 -16.587   7.812  1.00  0.00     0.002 A 
HETATM   16  C   UNL     1      44.100 -15.503   7.160  1.00  0.00     0.003 A 
HETATM   17  C   UNL     1      43.737 -15.193   5.845  1.00  0.00     0.038 A 
ENDBRANCH  10  11
ENDBRANCH   8  10
ENDBRANCH   7   8
ENDBRANCH   3   7
BRANCH   1  18
HETATM   18  C   UNL     1      44.335 -20.198   3.433  1.00  0.00     0.059 A 
HETATM   19  C   UNL     1      44.406 -21.471   2.848  1.00  0.00    -0.032 A 
HETATM   20  C   UNL     1      44.204 -21.766   1.391  1.00  0.00     0.050 C 
HETATM   21  C   UNL     1      44.670 -22.573   3.686  1.00  0.00     0.028 A 
HETATM   22  C   UNL     1      44.789 -22.390   5.054  1.00  0.00     0.117 A 
HETATM   23  N   UNL     1      44.664 -21.194   5.653  1.00  0.00    -0.271 NA
HETATM   24  C   UNL     1      44.443 -20.141   4.830  1.00  0.00     0.146 A 
ENDBRANCH   1  18
TORSDOF 5
ENDMDL
MODEL 6
REMARK VINA RESULT:      -7.3      2.776      5.799
REMARK  5 active torsions:
REMARK  status: ('A' for Active; 'I' for Inactive)
REMARK    1  A    between atoms: C_3  and  N_4 
REMARK       I    between atoms: N_4  and  C_5 
REMARK       I    between atoms: C_5  and  N_6 
REMARK    2  A    between atoms: N_6  and  C_7 
REMARK    3  A    between atoms: C_7  and  C_8 
REMARK    4  A    between atoms: C_8  and  O_9 
REMARK    5  A    between atoms: O_9  and  C_10 
ROOT
HETATM    1  N   UNL     1      44.221 -19.543   5.050  1.00  0.00    -0.307 N 
HETATM    2  C   UNL     1      43.986 -19.874   6.355  1.00  0.00     0.320 C 
HETATM    3  N   UNL     1      44.164 -18.862   7.253  1.00  0.00    -0.340 N 
HETATM    4  O   UNL     1      43.600 -20.957   6.776  1.00  0.00    -0.247 OA
HETATM    5  H   UNL     1      44.016 -18.577   4.853  1.00  0.00     0.170 HD
HETATM    6  H   UNL     1      44.049 -19.190   8.208  1.00  0.00     0.164 HD
ENDROOT
BRANCH   3   7
HETATM    7  C   UNL     1      44.844 -17.582   7.095  1.00  0.00     0.156 C 
BRANCH   7   8
HETATM    8  C   UNL     1      43.928 -16.481   6.523  1.00  0.00     0.142 C 
HETATM    9  C   UNL     1      44.439 -15.083   6.868  1.00  0.00     0.042 C 
BRANCH   8  10
HETATM   10  O   UNL     1      43.875 -16.562   5.091  1.00  0.00    -0.343 OA
BRANCH  10  11
HETATM   11  C   UNL     1      42.972 -15.761   4.442  1.00  0.00     0.091 A 
HETATM   12  C   UNL     1      41.648 -16.218   4.348  1.00  0.00     0.067 A 
HETATM   13 CL   UNL     1      41.157 -17.698   5.093  1.00  0.00    -0.081 Cl
HETATM   14  C   UNL     1      40.687 -15.475   3.657  1.00  0.00     0.026 A 
HETATM   15  C   UNL     1      41.041 -14.275   3.044  1.00  0.00     0.002 A 
HETATM   16  C   UNL     1      42.358 -13.825   3.113  1.00  0.00     0.003 A 
HETATM   17  C   UNL     1      43.323 -14.571   3.798  1.00  0.00     0.038 A 
ENDBRANCH  10  11
ENDBRANCH   8  10
ENDBRANCH   7   8
ENDBRANCH   3   7
BRANCH   1  18
HETATM   18  C   UNL     1      44.236 -20.388   3.913  1.00  0.00     0.059 A 
HETATM   19  C   UNL     1      43.823 -20.069   2.611  1.00  0.00    -0.032 A 
HETATM   20  C   UNL     1      43.226 -18.759   2.189  1.00  0.00     0.050 C 
HETATM   21  C   UNL     1      43.956 -21.054   1.612  1.00  0.00     0.028 A 
HETATM   22  C   UNL     1      44.424 -22.316   1.942  1.00  0.00     0.117 A 
HETATM   23  N   UNL     1      44.768 -22.673   3.190  1.00  0.00    -0.271 NA
HETATM   24  C   UNL     1      44.666 -21.705   4.132  1.00  0.00     0.146 A 
ENDBRANCH   1  18
TORSDOF 5
ENDMDL
MODEL 7
REMARK VINA RESULT:      -7.2      3.154      4.276
REMARK  5 active torsions:
REMARK  status: ('A' for Active; 'I' for Inactive)
REMARK    1  A    between atoms: C_3  and  N_4 
REMARK       I    between atoms: N_4  and  C_5 
REMARK       I    between atoms: C_5  and  N_6 
REMARK    2  A    between atoms: N_6  and  C_7 
REMARK    3  A    between atoms: C_7  and  C_8 
REMARK    4  A    between atoms: C_8  and  O_9 
REMARK    5  A    between atoms: O_9  and  C_10 
ROOT
HETATM    1  N   UNL     1      40.036 -14.965   0.342  1.00  0.00    -0.307 N 
HETATM    2  C   UNL     1      41.269 -14.911  -0.247  1.00  0.00     0.320 C 
HETATM    3  N   UNL     1      42.039 -16.027  -0.090  1.00  0.00    -0.340 N 
HETATM    4  O   UNL     1      41.716 -13.992  -0.921  1.00  0.00    -0.247 OA
HETATM    5  H   UNL     1      39.666 -15.901   0.378  1.00  0.00     0.170 HD
HETATM    6  H   UNL     1      42.966 -15.895  -0.484  1.00  0.00     0.164 HD
ENDROOT
BRANCH   3   7
HETATM    7  C   UNL     1      41.893 -17.140   0.841  1.00  0.00     0.156 C 
BRANCH   7   8
HETATM    8  C   UNL     1      43.080 -17.266   1.817  1.00  0.00     0.142 C 
HETATM    9  C   UNL     1      43.434 -15.923   2.455  1.00  0.00     0.042 C 
BRANCH   8  10
HETATM   10  O   UNL     1      42.759 -18.164   2.890  1.00  0.00    -0.343 OA
BRANCH  10  11
HETATM   11  C   UNL     1      43.326 -19.411   2.867  1.00  0.00     0.091 A 
HETATM   12  C   UNL     1      44.250 -19.723   3.877  1.00  0.00     0.067 A 
HETATM   13 CL   UNL     1      44.598 -18.606   5.148  1.00  0.00    -0.081 Cl
HETATM   14  C   UNL     1      44.904 -20.958   3.885  1.00  0.00     0.026 A 
HETATM   15  C   UNL     1      44.649 -21.889   2.880  1.00  0.00     0.002 A 
HETATM   16  C   UNL     1      43.751 -21.579   1.861  1.00  0.00     0.003 A 
HETATM   17  C   UNL     1      43.100 -20.340   1.847  1.00  0.00     0.038 A 
ENDBRANCH  10  11
ENDBRANCH   8  10
ENDBRANCH   7   8
ENDBRANCH   3   7
BRANCH   1  18
HETATM   18  C   UNL     1      39.065 -13.940   0.457  1.00  0.00     0.059 A 
HETATM   19  C   UNL     1      38.185 -13.488  -0.537  1.00  0.00    -0.032 A 
HETATM   20  C   UNL     1      38.148 -13.986  -1.952  1.00  0.00     0.050 C 
HETATM   21  C   UNL     1      37.268 -12.473  -0.199  1.00  0.00     0.028 A 
HETATM   22  C   UNL     1      37.296 -11.907   1.065  1.00  0.00     0.117 A 
HETATM   23  N   UNL     1      38.168 -12.273   2.019  1.00  0.00    -0.271 NA
HETATM   24  C   UNL     1      39.020 -13.272   1.689  1.00  0.00     0.146 A 
ENDBRANCH   1  18
TORSDOF 5
ENDMDL
MODEL 8
REMARK VINA RESULT:      -7.2      1.648      2.160
REMARK  5 active torsions:
REMARK  status: ('A' for Active; 'I' for Inactive)
REMARK    1  A    between atoms: C_3  and  N_4 
REMARK       I    between atoms: N_4  and  C_5 
REMARK       I    between atoms: C_5  and  N_6 
REMARK    2  A    between atoms: N_6  and  C_7 
REMARK    3  A    between atoms: C_7  and  C_8 
REMARK    4  A    between atoms: C_8  and  O_9 
REMARK    5  A    between atoms: O_9  and  C_10 
ROOT
HETATM    1  N   UNL     1      42.432 -14.840   3.597  1.00  0.00    -0.307 N 
HETATM    2  C   UNL     1      41.572 -15.049   4.639  1.00  0.00     0.320 C 
HETATM    3  N   UNL     1      42.108 -15.692   5.717  1.00  0.00    -0.340 N 
HETATM    4  O   UNL     1      40.405 -14.682   4.708  1.00  0.00    -0.247 OA
HETATM    5  H   UNL     1      43.386 -14.727   3.900  1.00  0.00     0.170 HD
HETATM    6  H   UNL     1      41.403 -15.883   6.422  1.00  0.00     0.164 HD
ENDROOT
BRANCH   3   7
HETATM    7  C   UNL     1      43.346 -16.454   5.829  1.00  0.00     0.156 C 
BRANCH   7   8
HETATM    8  C   UNL     1      43.173 -17.940   5.455  1.00  0.00     0.142 C 
HETATM    9  C   UNL     1      41.753 -18.243   4.981  1.00  0.00     0.042 C 
BRANCH   8  10
HETATM   10  O   UNL     1      44.055 -18.297   4.380  1.00  0.00    -0.343 OA
BRANCH  10  11
HETATM   11  C   UNL     1      44.310 -19.629   4.182  1.00  0.00     0.091 A 
HETATM   12  C   UNL     1      44.128 -20.140   2.887  1.00  0.00     0.067 A 
HETATM   13 CL   UNL     1      43.676 -19.111   1.574  1.00  0.00    -0.081 Cl
HETATM   14  C   UNL     1      44.321 -21.499   2.626  1.00  0.00     0.026 A 
HETATM   15  C   UNL     1      44.688 -22.362   3.656  1.00  0.00     0.002 A 
HETATM   16  C   UNL     1      44.850 -21.868   4.949  1.00  0.00     0.003 A 
HETATM   17  C   UNL     1      44.650 -20.509   5.214  1.00  0.00     0.038 A 
ENDBRANCH  10  11
ENDBRANCH   8  10
ENDBRANCH   7   8
ENDBRANCH   3   7
BRANCH   1  18
HETATM   18  C   UNL     1      42.152 -14.313   2.312  1.00  0.00     0.059 A 
HETATM   19  C   UNL     1      41.624 -14.999   1.209  1.00  0.00    -0.032 A 
HETATM   20  C   UNL     1      41.302 -16.463   1.173  1.00  0.00     0.050 C 
HETATM   21  C   UNL     1      41.390 -14.271   0.025  1.00  0.00     0.028 A 
HETATM   22  C   UNL     1      41.738 -12.931  -0.045  1.00  0.00     0.117 A 
HETATM   23  N   UNL     1      42.302 -12.261   0.973  1.00  0.00    -0.271 NA
HETATM   24  C   UNL     1      42.491 -12.966   2.114  1.00  0.00     0.146 A 
ENDBRANCH   1  18
TORSDOF 5
ENDMDL
MODEL 9
REMARK VINA RESULT:      -7.2      2.891      6.359
REMARK  5 active torsions:
REMARK  status: ('A' for Active; 'I' for Inactive)
REMARK    1  A    between atoms: C_3  and  N_4 
REMARK       I    between atoms: N_4  and  C_5 
REMARK       I    between atoms: C_5  and  N_6 
REMARK    2  A    between atoms: N_6  and  C_7 
REMARK    3  A    between atoms: C_7  and  C_8 
REMARK    4  A    between atoms: C_8  and  O_9 
REMARK    5  A    between atoms: O_9  and  C_10 
ROOT
HETATM    1  N   UNL     1      43.943 -18.236   4.810  1.00  0.00    -0.307 N 
HETATM    2  C   UNL     1      42.776 -17.711   5.288  1.00  0.00     0.320 C 
HETATM    3  N   UNL     1      42.897 -16.515   5.935  1.00  0.00    -0.340 N 
HETATM    4  O   UNL     1      41.653 -18.183   5.155  1.00  0.00    -0.247 OA
HETATM    5  H   UNL     1      44.611 -17.527   4.556  1.00  0.00     0.170 HD
HETATM    6  H   UNL     1      42.010 -16.217   6.331  1.00  0.00     0.164 HD
ENDROOT
BRANCH   3   7
HETATM    7  C   UNL     1      44.085 -15.855   6.462  1.00  0.00     0.156 C 
BRANCH   7   8
HETATM    8  C   UNL     1      43.980 -14.316   6.433  1.00  0.00     0.142 C 
HETATM    9  C   UNL     1      45.073 -13.658   7.274  1.00  0.00     0.042 C 
BRANCH   8  10
HETATM   10  O   UNL     1      44.132 -13.824   5.094  1.00  0.00    -0.343 OA
BRANCH  10  11
HETATM   11  C   UNL     1      43.000 -13.440   4.425  1.00  0.00     0.091 A 
HETATM   12  C   UNL     1      42.705 -14.096   3.219  1.00  0.00     0.067 A 
HETATM   13 CL   UNL     1      43.689 -15.393   2.641  1.00  0.00    -0.081 Cl
HETATM   14  C   UNL     1      41.593 -13.721   2.459  1.00  0.00     0.026 A 
HETATM   15  C   UNL     1      40.772 -12.681   2.891  1.00  0.00     0.002 A 
HETATM   16  C   UNL     1      41.070 -12.010   4.075  1.00  0.00     0.003 A 
HETATM   17  C   UNL     1      42.186 -12.379   4.833  1.00  0.00     0.038 A 
ENDBRANCH  10  11
ENDBRANCH   8  10
ENDBRANCH   7   8
ENDBRANCH   3   7
BRANCH   1  18
HETATM   18  C   UNL     1      44.162 -19.499   4.206  1.00  0.00     0.059 A 
HETATM   19  C   UNL     1      43.960 -19.845   2.862  1.00  0.00    -0.032 A 
HETATM   20  C   UNL     1      43.411 -18.931   1.806  1.00  0.00     0.050 C 
HETATM   21  C   UNL     1      44.276 -21.157   2.459  1.00  0.00     0.028 A 
HETATM   22  C   UNL     1      44.712 -22.082   3.394  1.00  0.00     0.117 A 
HETATM   23  N   UNL     1      44.856 -21.801   4.699  1.00  0.00    -0.271 NA
HETATM   24  C   UNL     1      44.580 -20.526   5.064  1.00  0.00     0.146 A 
ENDBRANCH   1  18
TORSDOF 5
ENDMDL
MODEL 10
REMARK VINA RESULT:      -7.2      2.657      3.765
REMARK  5 active torsions:
REMARK  status: ('A' for Active; 'I' for Inactive)
REMARK    1  A    between atoms: C_3  and  N_4 
REMARK       I    between atoms: N_4  and  C_5 
REMARK       I    between atoms: C_5  and  N_6 
REMARK    2  A    between atoms: N_6  and  C_7 
REMARK    3  A    between atoms: C_7  and  C_8 
REMARK    4  A    between atoms: C_8  and  O_9 
REMARK    5  A    between atoms: O_9  and  C_10 
ROOT
HETATM    1  N   UNL     1      41.108 -15.331   0.400  1.00  0.00    -0.307 N 
HETATM    2  C   UNL     1      40.033 -15.255   1.241  1.00  0.00     0.320 C 
HETATM    3  N   UNL     1      40.092 -16.066   2.337  1.00  0.00    -0.340 N 
HETATM    4  O   UNL     1      39.066 -14.512   1.124  1.00  0.00    -0.247 OA
HETATM    5  H   UNL     1      41.962 -15.558   0.884  1.00  0.00     0.170 HD
HETATM    6  H   UNL     1      39.234 -16.019   2.878  1.00  0.00     0.164 HD
ENDROOT
BRANCH   3   7
HETATM    7  C   UNL     1      40.957 -17.209   2.607  1.00  0.00     0.156 C 
BRANCH   7   8
HETATM    8  C   UNL     1      41.860 -17.000   3.840  1.00  0.00     0.142 C 
HETATM    9  C   UNL     1      41.467 -17.924   4.992  1.00  0.00     0.042 C 
BRANCH   8  10
HETATM   10  O   UNL     1      43.228 -17.293   3.520  1.00  0.00    -0.343 OA
BRANCH  10  11
HETATM   11  C   UNL     1      43.555 -18.598   3.260  1.00  0.00     0.091 A 
HETATM   12  C   UNL     1      44.403 -19.248   4.171  1.00  0.00     0.067 A 
HETATM   13 CL   UNL     1      44.947 -18.459   5.609  1.00  0.00    -0.081 Cl
HETATM   14  C   UNL     1      44.817 -20.563   3.942  1.00  0.00     0.026 A 
HETATM   15  C   UNL     1      44.398 -21.236   2.796  1.00  0.00     0.002 A 
HETATM   16  C   UNL     1      43.576 -20.591   1.875  1.00  0.00     0.003 A 
HETATM   17  C   UNL     1      43.165 -19.272   2.100  1.00  0.00     0.038 A 
ENDBRANCH  10  11
ENDBRANCH   8  10
ENDBRANCH   7   8
ENDBRANCH   3   7
BRANCH   1  18
HETATM   18  C   UNL     1      41.290 -14.712  -0.861  1.00  0.00     0.059 A 
HETATM   19  C   UNL     1      41.734 -13.405  -1.111  1.00  0.00    -0.032 A 
HETATM   20  C   UNL     1      42.055 -12.384  -0.059  1.00  0.00     0.050 C 
HETATM   21  C   UNL     1      41.878 -12.998  -2.452  1.00  0.00     0.028 A 
HETATM   22  C   UNL     1      41.525 -13.858  -3.479  1.00  0.00     0.117 A 
HETATM   23  N   UNL     1      41.037 -15.093  -3.273  1.00  0.00    -0.271 NA
HETATM   24  C   UNL     1      40.936 -15.481  -1.979  1.00  0.00     0.146 A 
ENDBRANCH   1  18
TORSDOF 5
ENDMDL
