MODEL 1
REMARK VINA RESULT:      -8.3      0.000      0.000
REMARK  7 active torsions:
REMARK  status: ('A' for Active; 'I' for Inactive)
REMARK    1  A    between atoms: O_2  and  C_3 
REMARK    2  A    between atoms: C_3  and  C_4 
REMARK    3  A    between atoms: C_5  and  N_6 
REMARK       I    between atoms: N_6  and  C_7 
REMARK    4  A    between atoms: C_7  and  C_8 
REMARK    5  A    between atoms: C_8  and  N_9 
REMARK    6  A    between atoms: C_11  and  C_12 
REMARK    7  A    between atoms: C_20  and  O_21 
ROOT
HETATM    1  N   UNL     1      40.107 -13.863   1.868  1.00  0.00    -0.054 N 
HETATM    2  H   UNL     1      39.550 -14.255   1.104  1.00  0.00     0.281 HD
HETATM    3  C   UNL     1      41.574 -14.161   1.558  1.00  0.00     0.228 C 
HETATM    4  C   UNL     1      41.987 -13.523   0.190  1.00  0.00     0.055 C 
HETATM    5  C   UNL     1      41.641 -12.013   0.146  1.00  0.00     0.065 C 
HETATM    6  C   UNL     1      40.194 -11.751   0.577  1.00  0.00     0.066 C 
HETATM    7  C   UNL     1      39.867 -12.376   1.917  1.00  0.00     0.239 C 
HETATM    8  C   UNL     1      41.447 -14.212  -1.075  1.00  0.00     0.010 C 
HETATM    9  C   UNL     1      42.024 -13.608  -2.363  1.00  0.00     0.001 C 
HETATM   10  C   UNL     1      42.687 -12.247  -2.170  1.00  0.00     0.003 C 
HETATM   11  C   UNL     1      41.865 -11.365  -1.241  1.00  0.00     0.038 C 
ENDROOT
BRANCH   1  12
HETATM   12  C   UNL     1      39.558 -14.522   3.163  1.00  0.00     0.338 C 
BRANCH  12  13
HETATM   13  C   UNL     1      39.908 -13.845   4.497  1.00  0.00     0.248 C 
HETATM   14  N   UNL     1      41.132 -14.027   5.078  1.00  0.00    -0.319 N 
HETATM   15  H   UNL     1      41.428 -13.244   5.667  1.00  0.00     0.169 HD
HETATM   16  O   UNL     1      39.148 -13.001   4.979  1.00  0.00    -0.271 OA
BRANCH  14  17
HETATM   17  C   UNL     1      41.906 -15.168   5.233  1.00  0.00     0.094 A 
HETATM   18  C   UNL     1      43.239 -15.216   5.633  1.00  0.00     0.080 A 
HETATM   19  C   UNL     1      43.668 -16.593   5.813  1.00  0.00    -0.026 A 
HETATM   20  C   UNL     1      42.628 -17.478   5.599  1.00  0.00    -0.008 A 
HETATM   21  C   UNL     1      45.023 -17.081   6.264  1.00  0.00     0.041 C 
HETATM   22  S   UNL     1      41.202 -16.705   5.130  1.00  0.00    -0.075 SA
HETATM   23  C   UNL     1      42.704 -18.967   5.757  1.00  0.00     0.047 C 
HETATM   24  C   UNL     1      43.912 -19.346   6.622  1.00  0.00     0.005 C 
HETATM   25  C   UNL     1      45.173 -18.608   6.157  1.00  0.00     0.005 C 
BRANCH  18  26
HETATM   26  C   UNL     1      44.028 -13.992   5.836  1.00  0.00     0.296 C 
HETATM   27  O   UNL     1      44.849 -13.601   5.013  1.00  0.00    -0.259 OA
BRANCH  26  28
HETATM   28  O   UNL     1      43.760 -13.358   7.009  1.00  0.00    -0.322 OA
HETATM   29  C   UNL     1      44.844 -13.337   7.940  1.00  0.00     0.213 C 
ENDBRANCH  26  28
ENDBRANCH  18  26
ENDBRANCH  14  17
ENDBRANCH  12  13
ENDBRANCH   1  12
BRANCH   3  30
HETATM   30  C   UNL     1      41.968 -15.632   1.636  1.00  0.00    -0.027 A 
HETATM   31  C   UNL     1      41.084 -16.683   1.327  1.00  0.00     0.012 A 
HETATM   32  C   UNL     1      41.511 -18.013   1.387  1.00  0.00     0.043 A 
HETATM   33  C   UNL     1      42.819 -18.302   1.752  1.00  0.00     0.116 A 
HETATM   34  F   UNL     1      43.223 -19.578   1.801  1.00  0.00    -0.206 F 
HETATM   35  C   UNL     1      43.712 -17.288   2.061  1.00  0.00     0.043 A 
HETATM   36  C   UNL     1      43.290 -15.958   2.002  1.00  0.00     0.012 A 
ENDBRANCH   3  30
BRANCH   5  37
HETATM   37  O   UNL     1      42.473 -11.360   1.107  1.00  0.00    -0.389 OA
HETATM   38  H   UNL     1      41.927 -10.748   1.640  1.00  0.00     0.210 HD
ENDBRANCH   5  37
TORSDOF 7
ENDMDL
MODEL 2
REMARK VINA RESULT:      -8.3      2.871      7.815
REMARK  7 active torsions:
REMARK  status: ('A' for Active; 'I' for Inactive)
REMARK    1  A    between atoms: O_2  and  C_3 
REMARK    2  A    between atoms: C_3  and  C_4 
REMARK    3  A    between atoms: C_5  and  N_6 
REMARK       I    between atoms: N_6  and  C_7 
REMARK    4  A    between atoms: C_7  and  C_8 
REMARK    5  A    between atoms: C_8  and  N_9 
REMARK    6  A    between atoms: C_11  and  C_12 
REMARK    7  A    between atoms: C_20  and  O_21 
ROOT
HETATM    1  N   UNL     1      42.925 -16.720   3.171  1.00  0.00    -0.054 N 
HETATM    2  H   UNL     1      43.926 -16.523   3.252  1.00  0.00     0.281 HD
HETATM    3  C   UNL     1      42.659 -18.029   3.915  1.00  0.00     0.228 C 
HETATM    4  C   UNL     1      43.077 -17.901   5.418  1.00  0.00     0.055 C 
HETATM    5  C   UNL     1      42.416 -16.668   6.083  1.00  0.00     0.065 C 
HETATM    6  C   UNL     1      42.608 -15.401   5.243  1.00  0.00     0.066 C 
HETATM    7  C   UNL     1      42.164 -15.585   3.807  1.00  0.00     0.239 C 
HETATM    8  C   UNL     1      44.587 -17.895   5.708  1.00  0.00     0.010 C 
HETATM    9  C   UNL     1      44.895 -17.917   7.211  1.00  0.00     0.001 C 
HETATM   10  C   UNL     1      43.705 -17.560   8.096  1.00  0.00     0.003 C 
HETATM   11  C   UNL     1      42.925 -16.388   7.517  1.00  0.00     0.038 C 
ENDROOT
BRANCH   1  12
HETATM   12  C   UNL     1      42.630 -16.755   1.646  1.00  0.00     0.338 C 
BRANCH  12  13
HETATM   13  C   UNL     1      41.170 -16.557   1.210  1.00  0.00     0.248 C 
HETATM   14  N   UNL     1      40.860 -15.805   0.112  1.00  0.00    -0.319 N 
HETATM   15  H   UNL     1      39.986 -16.083  -0.342  1.00  0.00     0.169 HD
HETATM   16  O   UNL     1      40.271 -17.206   1.752  1.00  0.00    -0.271 OA
BRANCH  14  17
HETATM   17  C   UNL     1      41.359 -14.588  -0.329  1.00  0.00     0.094 A 
HETATM   18  C   UNL     1      41.401 -14.139  -1.646  1.00  0.00     0.080 A 
HETATM   19  C   UNL     1      41.865 -12.763  -1.702  1.00  0.00    -0.026 A 
HETATM   20  C   UNL     1      42.082 -12.252  -0.436  1.00  0.00    -0.008 A 
HETATM   21  C   UNL     1      42.028 -11.897  -2.927  1.00  0.00     0.041 C 
HETATM   22  S   UNL     1      41.811 -13.391   0.781  1.00  0.00    -0.075 SA
HETATM   23  C   UNL     1      42.506 -10.849  -0.123  1.00  0.00     0.047 C 
HETATM   24  C   UNL     1      42.221  -9.931  -1.318  1.00  0.00     0.005 C 
HETATM   25  C   UNL     1      42.723 -10.559  -2.623  1.00  0.00     0.005 C 
BRANCH  18  26
HETATM   26  C   UNL     1      40.999 -15.001  -2.768  1.00  0.00     0.296 C 
HETATM   27  O   UNL     1      41.805 -15.415  -3.594  1.00  0.00    -0.259 OA
BRANCH  26  28
HETATM   28  O   UNL     1      39.667 -15.277  -2.794  1.00  0.00    -0.322 OA
HETATM   29  C   UNL     1      39.231 -16.019  -3.935  1.00  0.00     0.213 C 
ENDBRANCH  26  28
ENDBRANCH  18  26
ENDBRANCH  14  17
ENDBRANCH  12  13
ENDBRANCH   1  12
BRANCH   3  30
HETATM   30  C   UNL     1      43.254 -19.275   3.267  1.00  0.00    -0.027 A 
HETATM   31  C   UNL     1      42.857 -19.751   2.004  1.00  0.00     0.012 A 
HETATM   32  C   UNL     1      43.460 -20.882   1.448  1.00  0.00     0.043 A 
HETATM   33  C   UNL     1      44.464 -21.542   2.144  1.00  0.00     0.116 A 
HETATM   34  F   UNL     1      45.042 -22.621   1.602  1.00  0.00    -0.206 F 
HETATM   35  C   UNL     1      44.877 -21.096   3.390  1.00  0.00     0.043 A 
HETATM   36  C   UNL     1      44.276 -19.966   3.949  1.00  0.00     0.012 A 
ENDBRANCH   3  30
BRANCH   5  37
HETATM   37  O   UNL     1      41.008 -16.914   6.126  1.00  0.00    -0.389 OA
HETATM   38  H   UNL     1      40.641 -16.834   5.223  1.00  0.00     0.210 HD
ENDBRANCH   5  37
TORSDOF 7
ENDMDL
MODEL 3
REMARK VINA RESULT:      -8.2      2.899      4.387
REMARK  7 active torsions:
REMARK  status: ('A' for Active; 'I' for Inactive)
REMARK    1  A    between atoms: O_2  and  C_3 
REMARK    2  A    between atoms: C_3  and  C_4 
REMARK    3  A    between atoms: C_5  and  N_6 
REMARK       I    between atoms: N_6  and  C_7 
REMARK    4  A    between atoms: C_7  and  C_8 
REMARK    5  A    between atoms: C_8  and  N_9 
REMARK    6  A    between atoms: C_11  and  C_12 
REMARK    7  A    between atoms: C_20  and  O_21 
ROOT
HETATM    1  N   UNL     1      39.593 -13.791   1.838  1.00  0.00    -0.054 N 
HETATM    2  H   UNL     1      40.274 -13.623   1.093  1.00  0.00     0.281 HD
HETATM    3  C   UNL     1      39.981 -12.896   3.016  1.00  0.00     0.228 C 
HETATM    4  C   UNL     1      39.972 -11.390   2.588  1.00  0.00     0.055 C 
HETATM    5  C   UNL     1      38.623 -10.999   1.933  1.00  0.00     0.065 C 
HETATM    6  C   UNL     1      38.217 -11.991   0.837  1.00  0.00     0.066 C 
HETATM    7  C   UNL     1      38.225 -13.425   1.322  1.00  0.00     0.239 C 
HETATM    8  C   UNL     1      41.133 -10.929   1.691  1.00  0.00     0.010 C 
HETATM    9  C   UNL     1      41.120  -9.413   1.448  1.00  0.00     0.001 C 
HETATM   10  C   UNL     1      39.798  -8.738   1.800  1.00  0.00     0.003 C 
HETATM   11  C   UNL     1      38.614  -9.573   1.333  1.00  0.00     0.038 C 
ENDROOT
BRANCH   1  12
HETATM   12  C   UNL     1      39.653 -15.317   2.121  1.00  0.00     0.338 C 
BRANCH  12  13
HETATM   13  C   UNL     1      40.673 -16.138   1.317  1.00  0.00     0.248 C 
HETATM   14  N   UNL     1      41.295 -17.221   1.871  1.00  0.00    -0.319 N 
HETATM   15  H   UNL     1      41.579 -17.927   1.186  1.00  0.00     0.169 HD
HETATM   16  O   UNL     1      40.824 -15.926   0.111  1.00  0.00    -0.271 OA
BRANCH  14  17
HETATM   17  C   UNL     1      41.845 -17.411   3.130  1.00  0.00     0.094 A 
HETATM   18  C   UNL     1      43.153 -17.798   3.413  1.00  0.00     0.080 A 
HETATM   19  C   UNL     1      43.399 -17.758   4.845  1.00  0.00    -0.026 A 
HETATM   20  C   UNL     1      42.294 -17.291   5.534  1.00  0.00    -0.008 A 
HETATM   21  C   UNL     1      44.686 -18.075   5.566  1.00  0.00     0.041 C 
HETATM   22  S   UNL     1      40.981 -16.976   4.521  1.00  0.00    -0.075 SA
HETATM   23  C   UNL     1      42.221 -17.067   7.014  1.00  0.00     0.047 C 
HETATM   24  C   UNL     1      43.633 -16.969   7.605  1.00  0.00     0.005 C 
HETATM   25  C   UNL     1      44.521 -18.109   7.094  1.00  0.00     0.005 C 
BRANCH  18  26
HETATM   26  C   UNL     1      44.096 -18.168   2.347  1.00  0.00     0.296 C 
HETATM   27  O   UNL     1      44.444 -17.374   1.480  1.00  0.00    -0.259 OA
BRANCH  26  28
HETATM   28  O   UNL     1      44.524 -19.457   2.421  1.00  0.00    -0.322 OA
HETATM   29  C   UNL     1      43.578 -20.430   1.974  1.00  0.00     0.213 C 
ENDBRANCH  26  28
ENDBRANCH  18  26
ENDBRANCH  14  17
ENDBRANCH  12  13
ENDBRANCH   1  12
BRANCH   3  30
HETATM   30  C   UNL     1      41.280 -13.275   3.719  1.00  0.00    -0.027 A 
HETATM   31  C   UNL     1      42.454 -13.627   3.029  1.00  0.00     0.012 A 
HETATM   32  C   UNL     1      43.625 -13.936   3.727  1.00  0.00     0.043 A 
HETATM   33  C   UNL     1      43.633 -13.893   5.115  1.00  0.00     0.116 A 
HETATM   34  F   UNL     1      44.759 -14.183   5.777  1.00  0.00    -0.206 F 
HETATM   35  C   UNL     1      42.491 -13.549   5.822  1.00  0.00     0.043 A 
HETATM   36  C   UNL     1      41.319 -13.239   5.127  1.00  0.00     0.012 A 
ENDBRANCH   3  30
BRANCH   5  37
HETATM   37  O   UNL     1      37.619 -11.085   2.947  1.00  0.00    -0.389 OA
HETATM   38  H   UNL     1      37.822 -11.839   3.536  1.00  0.00     0.210 HD
ENDBRANCH   5  37
TORSDOF 7
ENDMDL
MODEL 4
REMARK VINA RESULT:      -8.2      2.276      3.542
REMARK  7 active torsions:
REMARK  status: ('A' for Active; 'I' for Inactive)
REMARK    1  A    between atoms: O_2  and  C_3 
REMARK    2  A    between atoms: C_3  and  C_4 
REMARK    3  A    between atoms: C_5  and  N_6 
REMARK       I    between atoms: N_6  and  C_7 
REMARK    4  A    between atoms: C_7  and  C_8 
REMARK    5  A    between atoms: C_8  and  N_9 
REMARK    6  A    between atoms: C_11  and  C_12 
REMARK    7  A    between atoms: C_20  and  O_21 
ROOT
HETATM    1  N   UNL     1      40.527 -11.818   2.761  1.00  0.00    -0.054 N 
HETATM    2  H   UNL     1      39.713 -12.083   3.323  1.00  0.00     0.281 HD
HETATM    3  C   UNL     1      40.340 -12.437   1.376  1.00  0.00     0.228 C 
HETATM    4  C   UNL     1      39.020 -11.917   0.714  1.00  0.00     0.055 C 
HETATM    5  C   UNL     1      38.963 -10.369   0.712  1.00  0.00     0.065 C 
HETATM    6  C   UNL     1      39.271  -9.789   2.097  1.00  0.00     0.066 C 
HETATM    7  C   UNL     1      40.570 -10.314   2.669  1.00  0.00     0.239 C 
HETATM    8  C   UNL     1      37.706 -12.480   1.282  1.00  0.00     0.010 C 
HETATM    9  C   UNL     1      36.479 -12.029   0.477  1.00  0.00     0.001 C 
HETATM   10  C   UNL     1      36.743 -10.848  -0.452  1.00  0.00     0.003 C 
HETATM   11  C   UNL     1      37.608  -9.798   0.231  1.00  0.00     0.038 C 
ENDROOT
BRANCH   1  12
HETATM   12  C   UNL     1      41.762 -12.329   3.552  1.00  0.00     0.338 C 
BRANCH  12  13
HETATM   13  C   UNL     1      41.496 -13.013   4.902  1.00  0.00     0.248 C 
HETATM   14  N   UNL     1      42.264 -14.062   5.321  1.00  0.00    -0.319 N 
HETATM   15  H   UNL     1      42.319 -14.149   6.340  1.00  0.00     0.169 HD
HETATM   16  O   UNL     1      40.687 -12.522   5.694  1.00  0.00    -0.271 OA
BRANCH  14  17
HETATM   17  C   UNL     1      42.749 -15.168   4.637  1.00  0.00     0.094 A 
HETATM   18  C   UNL     1      42.499 -16.504   4.940  1.00  0.00     0.080 A 
HETATM   19  C   UNL     1      43.062 -17.372   3.920  1.00  0.00    -0.026 A 
HETATM   20  C   UNL     1      43.640 -16.642   2.899  1.00  0.00    -0.008 A 
HETATM   21  C   UNL     1      42.992 -18.878   3.855  1.00  0.00     0.041 C 
HETATM   22  S   UNL     1      43.579 -14.977   3.173  1.00  0.00    -0.075 SA
HETATM   23  C   UNL     1      44.262 -17.216   1.661  1.00  0.00     0.047 C 
HETATM   24  C   UNL     1      43.772 -18.652   1.440  1.00  0.00     0.005 C 
HETATM   25  C   UNL     1      43.865 -19.468   2.735  1.00  0.00     0.005 C 
BRANCH  18  26
HETATM   26  C   UNL     1      41.746 -16.894   6.142  1.00  0.00     0.296 C 
HETATM   27  O   UNL     1      40.586 -16.542   6.329  1.00  0.00    -0.259 OA
BRANCH  26  28
HETATM   28  O   UNL     1      42.459 -17.665   7.006  1.00  0.00    -0.322 OA
HETATM   29  C   UNL     1      43.222 -16.937   7.970  1.00  0.00     0.213 C 
ENDBRANCH  26  28
ENDBRANCH  18  26
ENDBRANCH  14  17
ENDBRANCH  12  13
ENDBRANCH   1  12
BRANCH   3  30
HETATM   30  C   UNL     1      40.436 -13.958   1.326  1.00  0.00    -0.027 A 
HETATM   31  C   UNL     1      39.837 -14.798   2.283  1.00  0.00     0.012 A 
HETATM   32  C   UNL     1      39.933 -16.188   2.169  1.00  0.00     0.043 A 
HETATM   33  C   UNL     1      40.621 -16.747   1.100  1.00  0.00     0.116 A 
HETATM   34  F   UNL     1      40.703 -18.079   0.993  1.00  0.00    -0.206 F 
HETATM   35  C   UNL     1      41.219 -15.945   0.142  1.00  0.00     0.043 A 
HETATM   36  C   UNL     1      41.126 -14.555   0.252  1.00  0.00     0.012 A 
ENDBRANCH   3  30
BRANCH   5  37
HETATM   37  O   UNL     1      40.000  -9.908  -0.158  1.00  0.00    -0.389 OA
HETATM   38  H   UNL     1      39.965  -8.933  -0.209  1.00  0.00     0.210 HD
ENDBRANCH   5  37
TORSDOF 7
ENDMDL
MODEL 5
REMARK VINA RESULT:      -8.1      2.608      6.619
REMARK  7 active torsions:
REMARK  status: ('A' for Active; 'I' for Inactive)
REMARK    1  A    between atoms: O_2  and  C_3 
REMARK    2  A    between atoms: C_3  and  C_4 
REMARK    3  A    between atoms: C_5  and  N_6 
REMARK       I    between atoms: N_6  and  C_7 
REMARK    4  A    between atoms: C_7  and  C_8 
REMARK    5  A    between atoms: C_8  and  N_9 
REMARK    6  A    between atoms: C_11  and  C_12 
REMARK    7  A    between atoms: C_20  and  O_21 
ROOT
HETATM    1  N   UNL     1      43.732 -16.790   5.797  1.00  0.00    -0.054 N 
HETATM    2  H   UNL     1      44.293 -16.403   5.033  1.00  0.00     0.281 HD
HETATM    3  C   UNL     1      42.629 -17.637   5.163  1.00  0.00     0.228 C 
HETATM    4  C   UNL     1      43.246 -18.785   4.295  1.00  0.00     0.055 C 
HETATM    5  C   UNL     1      44.272 -19.614   5.107  1.00  0.00     0.065 C 
HETATM    6  C   UNL     1      45.290 -18.716   5.820  1.00  0.00     0.066 C 
HETATM    7  C   UNL     1      44.628 -17.643   6.658  1.00  0.00     0.239 C 
HETATM    8  C   UNL     1      43.870 -18.365   2.954  1.00  0.00     0.010 C 
HETATM    9  C   UNL     1      44.312 -19.569   2.111  1.00  0.00     0.001 C 
HETATM   10  C   UNL     1      44.407 -20.875   2.893  1.00  0.00     0.003 C 
HETATM   11  C   UNL     1      45.044 -20.652   4.258  1.00  0.00     0.038 C 
ENDROOT
BRANCH   1  12
HETATM   12  C   UNL     1      43.238 -15.563   6.612  1.00  0.00     0.338 C 
BRANCH  12  13
HETATM   13  C   UNL     1      44.071 -14.276   6.514  1.00  0.00     0.248 C 
HETATM   14  N   UNL     1      43.572 -13.162   5.898  1.00  0.00    -0.319 N 
HETATM   15  H   UNL     1      43.964 -12.286   6.254  1.00  0.00     0.169 HD
HETATM   16  O   UNL     1      45.136 -14.181   7.129  1.00  0.00    -0.271 OA
BRANCH  14  17
HETATM   17  C   UNL     1      42.853 -13.017   4.720  1.00  0.00     0.094 A 
HETATM   18  C   UNL     1      41.789 -12.146   4.502  1.00  0.00     0.080 A 
HETATM   19  C   UNL     1      41.380 -12.178   3.108  1.00  0.00    -0.026 A 
HETATM   20  C   UNL     1      42.192 -13.014   2.364  1.00  0.00    -0.008 A 
HETATM   21  C   UNL     1      40.289 -11.369   2.451  1.00  0.00     0.041 C 
HETATM   22  S   UNL     1      43.359 -13.793   3.302  1.00  0.00    -0.075 SA
HETATM   23  C   UNL     1      42.091 -13.237   0.885  1.00  0.00     0.047 C 
HETATM   24  C   UNL     1      41.305 -12.094   0.230  1.00  0.00     0.005 C 
HETATM   25  C   UNL     1      40.013 -11.805   1.003  1.00  0.00     0.005 C 
BRANCH  18  26
HETATM   26  C   UNL     1      41.224 -11.331   5.588  1.00  0.00     0.296 C 
HETATM   27  O   UNL     1      41.333 -10.110   5.612  1.00  0.00    -0.259 OA
BRANCH  26  28
HETATM   28  O   UNL     1      40.588 -12.061   6.544  1.00  0.00    -0.322 OA
HETATM   29  C   UNL     1      39.889 -11.289   7.522  1.00  0.00     0.213 C 
ENDBRANCH  26  28
ENDBRANCH  18  26
ENDBRANCH  14  17
ENDBRANCH  12  13
ENDBRANCH   1  12
BRANCH   3  30
HETATM   30  C   UNL     1      41.571 -16.854   4.393  1.00  0.00    -0.027 A 
HETATM   31  C   UNL     1      40.770 -15.859   4.981  1.00  0.00     0.012 A 
HETATM   32  C   UNL     1      39.837 -15.152   4.218  1.00  0.00     0.043 A 
HETATM   33  C   UNL     1      39.700 -15.430   2.864  1.00  0.00     0.116 A 
HETATM   34  F   UNL     1      38.809 -14.745   2.137  1.00  0.00    -0.206 F 
HETATM   35  C   UNL     1      40.476 -16.405   2.257  1.00  0.00     0.043 A 
HETATM   36  C   UNL     1      41.410 -17.113   3.017  1.00  0.00     0.012 A 
ENDBRANCH   3  30
BRANCH   5  37
HETATM   37  O   UNL     1      43.548 -20.297   6.134  1.00  0.00    -0.389 OA
HETATM   38  H   UNL     1      43.953 -21.174   6.283  1.00  0.00     0.210 HD
ENDBRANCH   5  37
TORSDOF 7
ENDMDL
MODEL 6
REMARK VINA RESULT:      -8.0      2.767      4.061
REMARK  7 active torsions:
REMARK  status: ('A' for Active; 'I' for Inactive)
REMARK    1  A    between atoms: O_2  and  C_3 
REMARK    2  A    between atoms: C_3  and  C_4 
REMARK    3  A    between atoms: C_5  and  N_6 
REMARK       I    between atoms: N_6  and  C_7 
REMARK    4  A    between atoms: C_7  and  C_8 
REMARK    5  A    between atoms: C_8  and  N_9 
REMARK    6  A    between atoms: C_11  and  C_12 
REMARK    7  A    between atoms: C_20  and  O_21 
ROOT
HETATM    1  N   UNL     1      40.853 -13.375   0.991  1.00  0.00    -0.054 N 
HETATM    2  H   UNL     1      39.857 -13.232   1.174  1.00  0.00     0.281 HD
HETATM    3  C   UNL     1      41.132 -12.865  -0.423  1.00  0.00     0.228 C 
HETATM    4  C   UNL     1      40.761 -11.349  -0.544  1.00  0.00     0.055 C 
HETATM    5  C   UNL     1      41.451 -10.511   0.562  1.00  0.00     0.065 C 
HETATM    6  C   UNL     1      41.242 -11.125   1.951  1.00  0.00     0.066 C 
HETATM    7  C   UNL     1      41.640 -12.584   2.005  1.00  0.00     0.239 C 
HETATM    8  C   UNL     1      39.260 -11.016  -0.582  1.00  0.00     0.010 C 
HETATM    9  C   UNL     1      38.998  -9.527  -0.851  1.00  0.00     0.001 C 
HETATM   10  C   UNL     1      40.217  -8.633  -0.647  1.00  0.00     0.003 C 
HETATM   11  C   UNL     1      40.987  -9.035   0.603  1.00  0.00     0.038 C 
ENDROOT
BRANCH   1  12
HETATM   12  C   UNL     1      41.101 -14.893   1.207  1.00  0.00     0.338 C 
BRANCH  12  13
HETATM   13  C   UNL     1      40.105 -15.645   2.102  1.00  0.00     0.248 C 
HETATM   14  N   UNL     1      40.538 -16.407   3.151  1.00  0.00    -0.319 N 
HETATM   15  H   UNL     1      39.856 -16.487   3.910  1.00  0.00     0.169 HD
HETATM   16  O   UNL     1      38.893 -15.443   1.983  1.00  0.00    -0.271 OA
BRANCH  14  17
HETATM   17  C   UNL     1      41.598 -17.296   3.254  1.00  0.00     0.094 A 
HETATM   18  C   UNL     1      42.224 -17.705   4.429  1.00  0.00     0.080 A 
HETATM   19  C   UNL     1      43.200 -18.746   4.152  1.00  0.00    -0.026 A 
HETATM   20  C   UNL     1      43.203 -19.091   2.813  1.00  0.00    -0.008 A 
HETATM   21  C   UNL     1      44.071 -19.476   5.144  1.00  0.00     0.041 C 
HETATM   22  S   UNL     1      42.131 -18.161   1.899  1.00  0.00    -0.075 SA
HETATM   23  C   UNL     1      44.042 -20.167   2.192  1.00  0.00     0.047 C 
HETATM   24  C   UNL     1      44.539 -21.138   3.270  1.00  0.00     0.005 C 
HETATM   25  C   UNL     1      45.119 -20.376   4.469  1.00  0.00     0.005 C 
BRANCH  18  26
HETATM   26  C   UNL     1      41.875 -17.121   5.733  1.00  0.00     0.296 C 
HETATM   27  O   UNL     1      40.719 -17.080   6.141  1.00  0.00    -0.259 OA
BRANCH  26  28
HETATM   28  O   UNL     1      42.946 -16.637   6.418  1.00  0.00    -0.322 OA
HETATM   29  C   UNL     1      43.021 -17.052   7.783  1.00  0.00     0.213 C 
ENDBRANCH  26  28
ENDBRANCH  18  26
ENDBRANCH  14  17
ENDBRANCH  12  13
ENDBRANCH   1  12
BRANCH   3  30
HETATM   30  C   UNL     1      40.510 -13.690  -1.544  1.00  0.00    -0.027 A 
HETATM   31  C   UNL     1      39.122 -13.870  -1.688  1.00  0.00     0.012 A 
HETATM   32  C   UNL     1      38.607 -14.612  -2.755  1.00  0.00     0.043 A 
HETATM   33  C   UNL     1      39.471 -15.175  -3.685  1.00  0.00     0.116 A 
HETATM   34  F   UNL     1      38.971 -15.879  -4.708  1.00  0.00    -0.206 F 
HETATM   35  C   UNL     1      40.843 -15.013  -3.570  1.00  0.00     0.043 A 
HETATM   36  C   UNL     1      41.361 -14.272  -2.505  1.00  0.00     0.012 A 
ENDBRANCH   3  30
BRANCH   5  37
HETATM   37  O   UNL     1      42.857 -10.553   0.310  1.00  0.00    -0.389 OA
HETATM   38  H   UNL     1      43.295 -11.064   1.020  1.00  0.00     0.210 HD
ENDBRANCH   5  37
TORSDOF 7
ENDMDL
MODEL 7
REMARK VINA RESULT:      -7.7      3.709      7.180
REMARK  7 active torsions:
REMARK  status: ('A' for Active; 'I' for Inactive)
REMARK    1  A    between atoms: O_2  and  C_3 
REMARK    2  A    between atoms: C_3  and  C_4 
REMARK    3  A    between atoms: C_5  and  N_6 
REMARK       I    between atoms: N_6  and  C_7 
REMARK    4  A    between atoms: C_7  and  C_8 
REMARK    5  A    between atoms: C_8  and  N_9 
REMARK    6  A    between atoms: C_11  and  C_12 
REMARK    7  A    between atoms: C_20  and  O_21 
ROOT
HETATM    1  N   UNL     1      44.160 -16.002   6.512  1.00  0.00    -0.054 N 
HETATM    2  H   UNL     1      44.712 -15.655   5.724  1.00  0.00     0.281 HD
HETATM    3  C   UNL     1      42.849 -16.545   5.942  1.00  0.00     0.228 C 
HETATM    4  C   UNL     1      43.129 -17.694   4.917  1.00  0.00     0.055 C 
HETATM    5  C   UNL     1      44.035 -18.789   5.534  1.00  0.00     0.065 C 
HETATM    6  C   UNL     1      45.280 -18.188   6.196  1.00  0.00     0.066 C 
HETATM    7  C   UNL     1      44.938 -17.100   7.191  1.00  0.00     0.239 C 
HETATM    8  C   UNL     1      43.694 -17.267   3.552  1.00  0.00     0.010 C 
HETATM    9  C   UNL     1      43.795 -18.440   2.567  1.00  0.00     0.001 C 
HETATM   10  C   UNL     1      43.693 -19.814   3.222  1.00  0.00     0.003 C 
HETATM   11  C   UNL     1      44.491 -19.864   4.517  1.00  0.00     0.038 C 
ENDROOT
BRANCH   1  12
HETATM   12  C   UNL     1      44.010 -14.794   7.478  1.00  0.00     0.338 C 
BRANCH  12  13
HETATM   13  C   UNL     1      44.722 -13.491   7.085  1.00  0.00     0.248 C 
HETATM   14  N   UNL     1      44.989 -12.528   8.016  1.00  0.00    -0.319 N 
HETATM   15  H   UNL     1      45.805 -11.952   7.790  1.00  0.00     0.169 HD
HETATM   16  O   UNL     1      45.204 -13.367   5.955  1.00  0.00    -0.271 OA
BRANCH  14  17
HETATM   17  C   UNL     1      44.215 -12.020   9.049  1.00  0.00     0.094 A 
HETATM   18  C   UNL     1      42.990 -11.369   8.924  1.00  0.00     0.080 A 
HETATM   19  C   UNL     1      42.416 -11.104  10.233  1.00  0.00    -0.026 A 
HETATM   20  C   UNL     1      43.206 -11.619  11.243  1.00  0.00    -0.008 A 
HETATM   21  C   UNL     1      41.094 -10.445  10.539  1.00  0.00     0.041 C 
HETATM   22  S   UNL     1      44.621 -12.334  10.664  1.00  0.00    -0.075 SA
HETATM   23  C   UNL     1      42.885 -11.578  12.707  1.00  0.00     0.047 C 
HETATM   24  C   UNL     1      41.387 -11.323  12.913  1.00  0.00     0.005 C 
HETATM   25  C   UNL     1      40.903 -10.161  12.039  1.00  0.00     0.005 C 
BRANCH  18  26
HETATM   26  C   UNL     1      42.421 -11.044   7.607  1.00  0.00     0.296 C 
HETATM   27  O   UNL     1      42.103 -11.912   6.801  1.00  0.00    -0.259 OA
BRANCH  26  28
HETATM   28  O   UNL     1      42.293  -9.708   7.382  1.00  0.00    -0.322 OA
HETATM   29  C   UNL     1      41.297  -9.354   6.421  1.00  0.00     0.213 C 
ENDBRANCH  26  28
ENDBRANCH  18  26
ENDBRANCH  14  17
ENDBRANCH  12  13
ENDBRANCH   1  12
BRANCH   3  30
HETATM   30  C   UNL     1      41.907 -15.493   5.367  1.00  0.00    -0.027 A 
HETATM   31  C   UNL     1      40.593 -15.299   5.832  1.00  0.00     0.012 A 
HETATM   32  C   UNL     1      39.785 -14.298   5.287  1.00  0.00     0.043 A 
HETATM   33  C   UNL     1      40.282 -13.482   4.278  1.00  0.00     0.116 A 
HETATM   34  F   UNL     1      39.505 -12.521   3.765  1.00  0.00    -0.206 F 
HETATM   35  C   UNL     1      41.572 -13.649   3.801  1.00  0.00     0.043 A 
HETATM   36  C   UNL     1      42.383 -14.649   4.343  1.00  0.00     0.012 A 
ENDBRANCH   3  30
BRANCH   5  37
HETATM   37  O   UNL     1      43.288 -19.420   6.577  1.00  0.00    -0.389 OA
HETATM   38  H   UNL     1      42.372 -19.570   6.269  1.00  0.00     0.210 HD
ENDBRANCH   5  37
TORSDOF 7
ENDMDL
MODEL 8
REMARK VINA RESULT:      -7.6      3.670      7.001
REMARK  7 active torsions:
REMARK  status: ('A' for Active; 'I' for Inactive)
REMARK    1  A    between atoms: O_2  and  C_3 
REMARK    2  A    between atoms: C_3  and  C_4 
REMARK    3  A    between atoms: C_5  and  N_6 
REMARK       I    between atoms: N_6  and  C_7 
REMARK    4  A    between atoms: C_7  and  C_8 
REMARK    5  A    between atoms: C_8  and  N_9 
REMARK    6  A    between atoms: C_11  and  C_12 
REMARK    7  A    between atoms: C_20  and  O_21 
ROOT
HETATM    1  N   UNL     1      44.042 -15.978   6.048  1.00  0.00    -0.054 N 
HETATM    2  H   UNL     1      44.737 -15.640   5.377  1.00  0.00     0.281 HD
HETATM    3  C   UNL     1      42.767 -16.287   5.262  1.00  0.00     0.228 C 
HETATM    4  C   UNL     1      43.046 -17.368   4.164  1.00  0.00     0.055 C 
HETATM    5  C   UNL     1      43.717 -18.625   4.771  1.00  0.00     0.065 C 
HETATM    6  C   UNL     1      44.921 -18.259   5.646  1.00  0.00     0.066 C 
HETATM    7  C   UNL     1      44.579 -17.227   6.699  1.00  0.00     0.239 C 
HETATM    8  C   UNL     1      43.843 -16.901   2.935  1.00  0.00     0.010 C 
HETATM    9  C   UNL     1      43.936 -17.985   1.851  1.00  0.00     0.001 C 
HETATM   10  C   UNL     1      43.578 -19.385   2.339  1.00  0.00     0.003 C 
HETATM   11  C   UNL     1      44.176 -19.657   3.712  1.00  0.00     0.038 C 
ENDROOT
BRANCH   1  12
HETATM   12  C   UNL     1      43.908 -14.852   7.109  1.00  0.00     0.338 C 
BRANCH  12  13
HETATM   13  C   UNL     1      44.845 -13.643   6.970  1.00  0.00     0.248 C 
HETATM   14  N   UNL     1      44.679 -12.532   7.748  1.00  0.00    -0.319 N 
HETATM   15  H   UNL     1      45.544 -12.011   7.910  1.00  0.00     0.169 HD
HETATM   16  O   UNL     1      45.856 -13.723   6.267  1.00  0.00    -0.271 OA
BRANCH  14  17
HETATM   17  C   UNL     1      43.533 -11.845   8.123  1.00  0.00     0.094 A 
HETATM   18  C   UNL     1      43.407 -10.967   9.196  1.00  0.00     0.080 A 
HETATM   19  C   UNL     1      42.098 -10.337   9.190  1.00  0.00    -0.026 A 
HETATM   20  C   UNL     1      41.354 -10.730   8.094  1.00  0.00    -0.008 A 
HETATM   21  C   UNL     1      41.569  -9.308  10.159  1.00  0.00     0.041 C 
HETATM   22  S   UNL     1      42.156 -11.866   7.136  1.00  0.00    -0.075 SA
HETATM   23  C   UNL     1      39.984 -10.231   7.745  1.00  0.00     0.047 C 
HETATM   24  C   UNL     1      39.703  -8.909   8.471  1.00  0.00     0.005 C 
HETATM   25  C   UNL     1      40.074  -9.009   9.955  1.00  0.00     0.005 C 
BRANCH  18  26
HETATM   26  C   UNL     1      44.505 -10.755  10.151  1.00  0.00     0.296 C 
HETATM   27  O   UNL     1      45.599 -10.322   9.803  1.00  0.00    -0.259 OA
BRANCH  26  28
HETATM   28  O   UNL     1      44.187 -11.089  11.431  1.00  0.00    -0.322 OA
HETATM   29  C   UNL     1      44.104 -12.493  11.682  1.00  0.00     0.213 C 
ENDBRANCH  26  28
ENDBRANCH  18  26
ENDBRANCH  14  17
ENDBRANCH  12  13
ENDBRANCH   1  12
BRANCH   3  30
HETATM   30  C   UNL     1      42.049 -15.071   4.687  1.00  0.00    -0.027 A 
HETATM   31  C   UNL     1      42.707 -14.058   3.966  1.00  0.00     0.012 A 
HETATM   32  C   UNL     1      41.991 -12.981   3.436  1.00  0.00     0.043 A 
HETATM   33  C   UNL     1      40.616 -12.910   3.618  1.00  0.00     0.116 A 
HETATM   34  F   UNL     1      39.935 -11.879   3.102  1.00  0.00    -0.206 F 
HETATM   35  C   UNL     1      39.940 -13.893   4.323  1.00  0.00     0.043 A 
HETATM   36  C   UNL     1      40.653 -14.971   4.855  1.00  0.00     0.012 A 
ENDBRANCH   3  30
BRANCH   5  37
HETATM   37  O   UNL     1      42.761 -19.240   5.638  1.00  0.00    -0.389 OA
HETATM   38  H   UNL     1      42.086 -18.579   5.890  1.00  0.00     0.210 HD
ENDBRANCH   5  37
TORSDOF 7
ENDMDL
MODEL 9
REMARK VINA RESULT:      -7.5      3.633      5.781
REMARK  7 active torsions:
REMARK  status: ('A' for Active; 'I' for Inactive)
REMARK    1  A    between atoms: O_2  and  C_3 
REMARK    2  A    between atoms: C_3  and  C_4 
REMARK    3  A    between atoms: C_5  and  N_6 
REMARK       I    between atoms: N_6  and  C_7 
REMARK    4  A    between atoms: C_7  and  C_8 
REMARK    5  A    between atoms: C_8  and  N_9 
REMARK    6  A    between atoms: C_11  and  C_12 
REMARK    7  A    between atoms: C_20  and  O_21 
ROOT
HETATM    1  N   UNL     1      40.742 -13.320   4.750  1.00  0.00    -0.054 N 
HETATM    2  H   UNL     1      39.936 -13.948   4.813  1.00  0.00     0.281 HD
HETATM    3  C   UNL     1      41.971 -14.187   4.476  1.00  0.00     0.228 C 
HETATM    4  C   UNL     1      41.791 -14.991   3.144  1.00  0.00     0.055 C 
HETATM    5  C   UNL     1      41.421 -14.054   1.967  1.00  0.00     0.065 C 
HETATM    6  C   UNL     1      40.259 -13.122   2.329  1.00  0.00     0.066 C 
HETATM    7  C   UNL     1      40.506 -12.359   3.613  1.00  0.00     0.239 C 
HETATM    8  C   UNL     1      40.809 -16.173   3.189  1.00  0.00     0.010 C 
HETATM    9  C   UNL     1      40.812 -16.987   1.887  1.00  0.00     0.001 C 
HETATM   10  C   UNL     1      41.465 -16.273   0.708  1.00  0.00     0.003 C 
HETATM   11  C   UNL     1      41.060 -14.806   0.664  1.00  0.00     0.038 C 
ENDROOT
BRANCH   1  12
HETATM   12  C   UNL     1      40.769 -12.542   6.094  1.00  0.00     0.338 C 
BRANCH  12  13
HETATM   13  C   UNL     1      41.441 -11.160   6.090  1.00  0.00     0.248 C 
HETATM   14  N   UNL     1      42.179 -10.735   7.158  1.00  0.00    -0.319 N 
HETATM   15  H   UNL     1      42.912 -10.065   6.910  1.00  0.00     0.169 HD
HETATM   16  O   UNL     1      41.456 -10.484   5.058  1.00  0.00    -0.271 OA
BRANCH  14  17
HETATM   17  C   UNL     1      41.946 -10.831   8.522  1.00  0.00     0.094 A 
HETATM   18  C   UNL     1      42.908 -10.990   9.517  1.00  0.00     0.080 A 
HETATM   19  C   UNL     1      42.298 -10.913  10.834  1.00  0.00    -0.026 A 
HETATM   20  C   UNL     1      40.945 -10.643  10.748  1.00  0.00    -0.008 A 
HETATM   21  C   UNL     1      42.987 -11.007  12.173  1.00  0.00     0.041 C 
HETATM   22  S   UNL     1      40.399 -10.554   9.153  1.00  0.00    -0.075 SA
HETATM   23  C   UNL     1      40.021 -10.440  11.911  1.00  0.00     0.047 C 
HETATM   24  C   UNL     1      40.825 -10.103  13.172  1.00  0.00     0.005 C 
HETATM   25  C   UNL     1      41.999 -11.074  13.349  1.00  0.00     0.005 C 
BRANCH  18  26
HETATM   26  C   UNL     1      44.328 -11.191   9.192  1.00  0.00     0.296 C 
HETATM   27  O   UNL     1      45.193 -10.387   9.522  1.00  0.00    -0.259 OA
BRANCH  26  28
HETATM   28  O   UNL     1      44.572 -12.335   8.497  1.00  0.00    -0.322 OA
HETATM   29  C   UNL     1      45.954 -12.608   8.259  1.00  0.00     0.213 C 
ENDBRANCH  26  28
ENDBRANCH  18  26
ENDBRANCH  14  17
ENDBRANCH  12  13
ENDBRANCH   1  12
BRANCH   3  30
HETATM   30  C   UNL     1      42.397 -15.091   5.628  1.00  0.00    -0.027 A 
HETATM   31  C   UNL     1      41.603 -16.147   6.112  1.00  0.00     0.012 A 
HETATM   32  C   UNL     1      42.059 -16.962   7.151  1.00  0.00     0.043 A 
HETATM   33  C   UNL     1      43.310 -16.733   7.710  1.00  0.00     0.116 A 
HETATM   34  F   UNL     1      43.743 -17.523   8.701  1.00  0.00    -0.206 F 
HETATM   35  C   UNL     1      44.114 -15.702   7.253  1.00  0.00     0.043 A 
HETATM   36  C   UNL     1      43.662 -14.885   6.214  1.00  0.00     0.012 A 
ENDBRANCH   3  30
BRANCH   5  37
HETATM   37  O   UNL     1      42.552 -13.213   1.724  1.00  0.00    -0.389 OA
HETATM   38  H   UNL     1      42.744 -12.694   2.530  1.00  0.00     0.210 HD
ENDBRANCH   5  37
TORSDOF 7
ENDMDL
MODEL 10
REMARK VINA RESULT:      -7.5      3.092      4.677
REMARK  7 active torsions:
REMARK  status: ('A' for Active; 'I' for Inactive)
REMARK    1  A    between atoms: O_2  and  C_3 
REMARK    2  A    between atoms: C_3  and  C_4 
REMARK    3  A    between atoms: C_5  and  N_6 
REMARK       I    between atoms: N_6  and  C_7 
REMARK    4  A    between atoms: C_7  and  C_8 
REMARK    5  A    between atoms: C_8  and  N_9 
REMARK    6  A    between atoms: C_11  and  C_12 
REMARK    7  A    between atoms: C_20  and  O_21 
ROOT
HETATM    1  N   UNL     1      41.196 -13.959   0.671  1.00  0.00    -0.054 N 
HETATM    2  H   UNL     1      42.044 -13.430   0.451  1.00  0.00     0.281 HD
HETATM    3  C   UNL     1      40.004 -13.054   0.360  1.00  0.00     0.228 C 
HETATM    4  C   UNL     1      40.015 -12.628  -1.147  1.00  0.00     0.055 C 
HETATM    5  C   UNL     1      40.113 -13.861  -2.079  1.00  0.00     0.065 C 
HETATM    6  C   UNL     1      41.249 -14.800  -1.658  1.00  0.00     0.066 C 
HETATM    7  C   UNL     1      41.167 -15.191  -0.198  1.00  0.00     0.239 C 
HETATM    8  C   UNL     1      41.073 -11.589  -1.554  1.00  0.00     0.010 C 
HETATM    9  C   UNL     1      40.910 -11.126  -3.008  1.00  0.00     0.001 C 
HETATM   10  C   UNL     1      40.019 -12.030  -3.853  1.00  0.00     0.003 C 
HETATM   11  C   UNL     1      40.304 -13.498  -3.571  1.00  0.00     0.038 C 
ENDROOT
BRANCH   1  12
HETATM   12  C   UNL     1      41.339 -14.375   2.161  1.00  0.00     0.338 C 
BRANCH  12  13
HETATM   13  C   UNL     1      40.263 -15.310   2.733  1.00  0.00     0.248 C 
HETATM   14  N   UNL     1      40.590 -16.301   3.615  1.00  0.00    -0.319 N 
HETATM   15  H   UNL     1      39.829 -16.554   4.250  1.00  0.00     0.169 HD
HETATM   16  O   UNL     1      39.069 -15.077   2.527  1.00  0.00    -0.271 OA
BRANCH  14  17
HETATM   17  C   UNL     1      41.650 -17.197   3.627  1.00  0.00     0.094 A 
HETATM   18  C   UNL     1      42.321 -17.672   4.751  1.00  0.00     0.080 A 
HETATM   19  C   UNL     1      43.280 -18.698   4.378  1.00  0.00    -0.026 A 
HETATM   20  C   UNL     1      43.227 -18.969   3.023  1.00  0.00    -0.008 A 
HETATM   21  C   UNL     1      44.187 -19.484   5.292  1.00  0.00     0.041 C 
HETATM   22  S   UNL     1      42.124 -17.988   2.205  1.00  0.00    -0.075 SA
HETATM   23  C   UNL     1      44.036 -20.011   2.311  1.00  0.00     0.047 C 
HETATM   24  C   UNL     1      44.572 -21.041   3.313  1.00  0.00     0.005 C 
HETATM   25  C   UNL     1      45.202 -20.348   4.526  1.00  0.00     0.005 C 
BRANCH  18  26
HETATM   26  C   UNL     1      42.027 -17.160   6.098  1.00  0.00     0.296 C 
HETATM   27  O   UNL     1      40.881 -17.060   6.523  1.00  0.00    -0.259 OA
BRANCH  26  28
HETATM   28  O   UNL     1      43.137 -16.810   6.803  1.00  0.00    -0.322 OA
HETATM   29  C   UNL     1      43.716 -15.559   6.428  1.00  0.00     0.213 C 
ENDBRANCH  26  28
ENDBRANCH  18  26
ENDBRANCH  14  17
ENDBRANCH  12  13
ENDBRANCH   1  12
BRANCH   3  30
HETATM   30  C   UNL     1      39.844 -11.852   1.285  1.00  0.00    -0.027 A 
HETATM   31  C   UNL     1      40.895 -10.967   1.586  1.00  0.00     0.012 A 
HETATM   32  C   UNL     1      40.681  -9.863   2.417  1.00  0.00     0.043 A 
HETATM   33  C   UNL     1      39.419  -9.635   2.949  1.00  0.00     0.116 A 
HETATM   34  F   UNL     1      39.220  -8.572   3.739  1.00  0.00    -0.206 F 
HETATM   35  C   UNL     1      38.364 -10.489   2.670  1.00  0.00     0.043 A 
HETATM   36  C   UNL     1      38.574 -11.593   1.839  1.00  0.00     0.012 A 
ENDBRANCH   3  30
BRANCH   5  37
HETATM   37  O   UNL     1      38.900 -14.603  -1.929  1.00  0.00    -0.389 OA
HETATM   38  H   UNL     1      38.598 -14.540  -1.002  1.00  0.00     0.210 HD
ENDBRANCH   5  37
TORSDOF 7
ENDMDL
