MODEL 1
REMARK VINA RESULT:     -10.1      0.000      0.000
REMARK  3 active torsions:
REMARK  status: ('A' for Active; 'I' for Inactive)
REMARK    1  A    between atoms: C_4  and  N_5 
REMARK    2  A    between atoms: N_5  and  C_6 
REMARK    3  A    between atoms: C_13  and  C_14 
ROOT
HETATM    1  C   UNL     1      42.375 -13.477   3.617  1.00  0.00     0.741 A 
HETATM    2  N   UNL     1      41.603 -14.536   3.912  1.00  0.00    -0.066 NA
HETATM    3  C   UNL     1      41.961 -15.333   4.942  1.00  0.00     0.069 A 
HETATM    4  C   UNL     1      43.076 -15.082   5.706  1.00  0.00     0.053 A 
HETATM    5  C   UNL     1      43.449 -15.943   6.834  1.00  0.00     0.163 C 
HETATM    6  O   UNL     1      44.411 -15.647   7.537  1.00  0.00    -0.292 OA
HETATM    7  C   UNL     1      42.553 -17.123   7.145  1.00  0.00     0.093 C 
HETATM    8  C   UNL     1      41.848 -17.674   5.892  1.00  0.00     0.031 C 
HETATM    9  C   UNL     1      41.080 -16.522   5.215  1.00  0.00     0.070 C 
HETATM   10  C   UNL     1      43.817 -13.984   5.344  1.00  0.00     0.153 A 
HETATM   11  N   UNL     1      43.491 -13.177   4.308  1.00  0.00    -0.073 NA
ENDROOT
BRANCH   1  12
HETATM   12  N   UNL     1      42.081 -12.633   2.570  1.00  0.00    -0.015 N 
HETATM   13  H   UNL     1      41.795 -11.714   2.850  1.00  0.00     0.203 HD
BRANCH  12  14
HETATM   14  C   UNL     1      42.057 -12.832   1.206  1.00  0.00     0.742 A 
HETATM   15  N   UNL     1      42.552 -11.823   0.471  1.00  0.00    -0.066 NA
HETATM   16  C   UNL     1      42.542 -11.952  -0.874  1.00  0.00     0.062 A 
HETATM   17  C   UNL     1      43.116 -10.795  -1.639  1.00  0.00     0.072 C 
HETATM   18  C   UNL     1      42.031 -13.082  -1.521  1.00  0.00     0.018 A 
HETATM   19  C   UNL     1      41.540 -14.071  -0.664  1.00  0.00     0.088 A 
HETATM   20  C   UNL     1      41.977 -13.280  -2.924  1.00  0.00     0.016 A 
HETATM   21  N   UNL     1      41.557 -13.949   0.665  1.00  0.00    -0.062 NA
HETATM   22  C   UNL     1      41.010 -15.229  -1.219  1.00  0.00     0.033 A 
HETATM   23  C   UNL     1      40.953 -15.428  -2.600  1.00  0.00     0.002 A 
HETATM   24  C   UNL     1      41.439 -14.449  -3.457  1.00  0.00     0.001 A 
ENDBRANCH  12  14
ENDBRANCH   1  12
BRANCH   8  25
HETATM   25  C   UNL     1      42.794 -18.483   5.004  1.00  0.00    -0.053 A 
HETATM   26  C   UNL     1      43.750 -19.314   5.617  1.00  0.00     0.007 A 
HETATM   27  C   UNL     1      44.649 -20.069   4.860  1.00  0.00     0.001 A 
HETATM   28  C   UNL     1      44.604 -20.017   3.472  1.00  0.00     0.000 A 
HETATM   29  C   UNL     1      43.653 -19.220   2.844  1.00  0.00     0.001 A 
HETATM   30  C   UNL     1      42.753 -18.463   3.601  1.00  0.00     0.007 A 
ENDBRANCH   8  25
TORSDOF 3
ENDMDL
MODEL 2
REMARK VINA RESULT:     -10.1      1.726      2.380
REMARK  3 active torsions:
REMARK  status: ('A' for Active; 'I' for Inactive)
REMARK    1  A    between atoms: C_4  and  N_5 
REMARK    2  A    between atoms: N_5  and  C_6 
REMARK    3  A    between atoms: C_13  and  C_14 
ROOT
HETATM    1  C   UNL     1      42.203 -14.015   2.077  1.00  0.00     0.741 A 
HETATM    2  N   UNL     1      41.499 -15.070   2.520  1.00  0.00    -0.066 NA
HETATM    3  C   UNL     1      41.867 -15.653   3.681  1.00  0.00     0.069 A 
HETATM    4  C   UNL     1      42.923 -15.190   4.428  1.00  0.00     0.053 A 
HETATM    5  C   UNL     1      43.306 -15.820   5.698  1.00  0.00     0.163 C 
HETATM    6  O   UNL     1      44.209 -15.334   6.373  1.00  0.00    -0.292 OA
HETATM    7  C   UNL     1      42.487 -17.001   6.173  1.00  0.00     0.093 C 
HETATM    8  C   UNL     1      41.883 -17.807   5.008  1.00  0.00     0.031 C 
HETATM    9  C   UNL     1      41.064 -16.848   4.121  1.00  0.00     0.070 C 
HETATM   10  C   UNL     1      43.597 -14.111   3.912  1.00  0.00     0.153 A 
HETATM   11  N   UNL     1      43.260 -13.516   2.744  1.00  0.00    -0.073 NA
ENDROOT
BRANCH   1  12
HETATM   12  N   UNL     1      41.896 -13.383   0.893  1.00  0.00    -0.015 N 
HETATM   13  H   UNL     1      42.433 -12.554   0.718  1.00  0.00     0.203 HD
BRANCH  12  14
HETATM   14  C   UNL     1      40.951 -13.649  -0.075  1.00  0.00     0.742 A 
HETATM   15  N   UNL     1      39.803 -12.963   0.042  1.00  0.00    -0.066 NA
HETATM   16  C   UNL     1      38.830 -13.192  -0.868  1.00  0.00     0.062 A 
HETATM   17  C   UNL     1      37.575 -12.388  -0.689  1.00  0.00     0.072 C 
HETATM   18  C   UNL     1      38.972 -14.115  -1.910  1.00  0.00     0.018 A 
HETATM   19  C   UNL     1      40.203 -14.774  -1.938  1.00  0.00     0.088 A 
HETATM   20  C   UNL     1      37.993 -14.414  -2.890  1.00  0.00     0.016 A 
HETATM   21  N   UNL     1      41.169 -14.543  -1.045  1.00  0.00    -0.062 NA
HETATM   22  C   UNL     1      40.433 -15.712  -2.937  1.00  0.00     0.033 A 
HETATM   23  C   UNL     1      39.471 -16.012  -3.905  1.00  0.00     0.002 A 
HETATM   24  C   UNL     1      38.245 -15.360  -3.881  1.00  0.00     0.001 A 
ENDBRANCH  12  14
ENDBRANCH   1  12
BRANCH   8  25
HETATM   25  C   UNL     1      42.927 -18.672   4.301  1.00  0.00    -0.053 A 
HETATM   26  C   UNL     1      42.862 -18.800   2.901  1.00  0.00     0.007 A 
HETATM   27  C   UNL     1      43.780 -19.585   2.200  1.00  0.00     0.001 A 
HETATM   28  C   UNL     1      44.792 -20.249   2.883  1.00  0.00     0.000 A 
HETATM   29  C   UNL     1      44.890 -20.119   4.264  1.00  0.00     0.001 A 
HETATM   30  C   UNL     1      43.970 -19.333   4.967  1.00  0.00     0.007 A 
ENDBRANCH   8  25
TORSDOF 3
ENDMDL
MODEL 3
REMARK VINA RESULT:     -10.0      2.983      7.957
REMARK  3 active torsions:
REMARK  status: ('A' for Active; 'I' for Inactive)
REMARK    1  A    between atoms: C_4  and  N_5 
REMARK    2  A    between atoms: N_5  and  C_6 
REMARK    3  A    between atoms: C_13  and  C_14 
ROOT
HETATM    1  C   UNL     1      41.671 -15.292   2.162  1.00  0.00     0.741 A 
HETATM    2  N   UNL     1      41.662 -14.352   1.201  1.00  0.00    -0.066 NA
HETATM    3  C   UNL     1      40.474 -13.957   0.694  1.00  0.00     0.069 A 
HETATM    4  C   UNL     1      39.281 -14.470   1.142  1.00  0.00     0.053 A 
HETATM    5  C   UNL     1      37.994 -14.023   0.596  1.00  0.00     0.163 C 
HETATM    6  O   UNL     1      36.947 -14.451   1.071  1.00  0.00    -0.292 OA
HETATM    7  C   UNL     1      38.018 -12.957  -0.478  1.00  0.00     0.093 C 
HETATM    8  C   UNL     1      39.296 -13.011  -1.335  1.00  0.00     0.031 C 
HETATM    9  C   UNL     1      40.518 -12.923  -0.399  1.00  0.00     0.070 C 
HETATM   10  C   UNL     1      39.369 -15.428   2.122  1.00  0.00     0.153 A 
HETATM   11  N   UNL     1      40.545 -15.854   2.638  1.00  0.00    -0.073 NA
ENDROOT
BRANCH   1  12
HETATM   12  N   UNL     1      42.845 -15.756   2.711  1.00  0.00    -0.015 N 
HETATM   13  H   UNL     1      43.539 -15.048   2.858  1.00  0.00     0.203 HD
BRANCH  12  14
HETATM   14  C   UNL     1      43.264 -17.025   3.051  1.00  0.00     0.742 A 
HETATM   15  N   UNL     1      43.795 -17.143   4.279  1.00  0.00    -0.066 NA
HETATM   16  C   UNL     1      44.239 -18.360   4.665  1.00  0.00     0.062 A 
HETATM   17  C   UNL     1      44.813 -18.429   6.051  1.00  0.00     0.072 C 
HETATM   18  C   UNL     1      44.175 -19.485   3.837  1.00  0.00     0.018 A 
HETATM   19  C   UNL     1      43.607 -19.252   2.582  1.00  0.00     0.088 A 
HETATM   20  C   UNL     1      44.631 -20.786   4.170  1.00  0.00     0.016 A 
HETATM   21  N   UNL     1      43.159 -18.053   2.202  1.00  0.00    -0.062 NA
HETATM   22  C   UNL     1      43.504 -20.313   1.691  1.00  0.00     0.033 A 
HETATM   23  C   UNL     1      43.954 -21.596   2.014  1.00  0.00     0.002 A 
HETATM   24  C   UNL     1      44.519 -21.833   3.259  1.00  0.00     0.001 A 
ENDBRANCH  12  14
ENDBRANCH   1  12
BRANCH   8  25
HETATM   25  C   UNL     1      39.277 -14.173  -2.330  1.00  0.00    -0.053 A 
HETATM   26  C   UNL     1      38.128 -14.366  -3.120  1.00  0.00     0.007 A 
HETATM   27  C   UNL     1      38.047 -15.415  -4.039  1.00  0.00     0.001 A 
HETATM   28  C   UNL     1      39.116 -16.287  -4.195  1.00  0.00     0.000 A 
HETATM   29  C   UNL     1      40.270 -16.103  -3.440  1.00  0.00     0.001 A 
HETATM   30  C   UNL     1      40.353 -15.053  -2.520  1.00  0.00     0.007 A 
ENDBRANCH   8  25
TORSDOF 3
ENDMDL
MODEL 4
REMARK VINA RESULT:      -9.9      0.609      1.951
REMARK  3 active torsions:
REMARK  status: ('A' for Active; 'I' for Inactive)
REMARK    1  A    between atoms: C_4  and  N_5 
REMARK    2  A    between atoms: N_5  and  C_6 
REMARK    3  A    between atoms: C_13  and  C_14 
ROOT
HETATM    1  C   UNL     1      42.429 -13.498   3.484  1.00  0.00     0.741 A 
HETATM    2  N   UNL     1      41.658 -14.575   3.711  1.00  0.00    -0.066 NA
HETATM    3  C   UNL     1      42.051 -15.467   4.646  1.00  0.00     0.069 A 
HETATM    4  C   UNL     1      43.200 -15.298   5.380  1.00  0.00     0.053 A 
HETATM    5  C   UNL     1      43.610 -16.265   6.406  1.00  0.00     0.163 C 
HETATM    6  O   UNL     1      44.604 -16.043   7.092  1.00  0.00    -0.292 OA
HETATM    7  C   UNL     1      42.714 -17.462   6.643  1.00  0.00     0.093 C 
HETATM    8  C   UNL     1      41.950 -17.887   5.376  1.00  0.00     0.031 C 
HETATM    9  C   UNL     1      41.168 -16.670   4.844  1.00  0.00     0.070 C 
HETATM   10  C   UNL     1      43.938 -14.177   5.092  1.00  0.00     0.153 A 
HETATM   11  N   UNL     1      43.577 -13.274   4.150  1.00  0.00    -0.073 NA
ENDROOT
BRANCH   1  12
HETATM   12  N   UNL     1      42.101 -12.558   2.534  1.00  0.00    -0.015 N 
HETATM   13  H   UNL     1      41.798 -11.680   2.912  1.00  0.00     0.203 HD
BRANCH  12  14
HETATM   14  C   UNL     1      42.064 -12.614   1.157  1.00  0.00     0.742 A 
HETATM   15  N   UNL     1      41.629 -13.776   0.643  1.00  0.00    -0.066 NA
HETATM   16  C   UNL     1      41.585 -13.899  -0.703  1.00  0.00     0.062 A 
HETATM   17  C   UNL     1      41.082 -15.217  -1.215  1.00  0.00     0.072 C 
HETATM   18  C   UNL     1      41.980 -12.874  -1.568  1.00  0.00     0.018 A 
HETATM   19  C   UNL     1      42.417 -11.710  -0.930  1.00  0.00     0.088 A 
HETATM   20  C   UNL     1      41.972 -12.937  -2.985  1.00  0.00     0.016 A 
HETATM   21  N   UNL     1      42.453 -11.584   0.398  1.00  0.00    -0.062 NA
HETATM   22  C   UNL     1      42.831 -10.639  -1.711  1.00  0.00     0.033 A 
HETATM   23  C   UNL     1      42.827 -10.696  -3.107  1.00  0.00     0.002 A 
HETATM   24  C   UNL     1      42.395 -11.851  -3.747  1.00  0.00     0.001 A 
ENDBRANCH  12  14
ENDBRANCH   1  12
BRANCH   8  25
HETATM   25  C   UNL     1      42.848 -18.616   4.376  1.00  0.00    -0.053 A 
HETATM   26  C   UNL     1      43.861 -19.460   4.869  1.00  0.00     0.007 A 
HETATM   27  C   UNL     1      44.720 -20.144   4.006  1.00  0.00     0.001 A 
HETATM   28  C   UNL     1      44.577 -20.008   2.630  1.00  0.00     0.000 A 
HETATM   29  C   UNL     1      43.569 -19.196   2.120  1.00  0.00     0.001 A 
HETATM   30  C   UNL     1      42.709 -18.510   2.984  1.00  0.00     0.007 A 
ENDBRANCH   8  25
TORSDOF 3
ENDMDL
MODEL 5
REMARK VINA RESULT:      -9.4      1.945      2.601
REMARK  3 active torsions:
REMARK  status: ('A' for Active; 'I' for Inactive)
REMARK    1  A    between atoms: C_4  and  N_5 
REMARK    2  A    between atoms: N_5  and  C_6 
REMARK    3  A    between atoms: C_13  and  C_14 
ROOT
HETATM    1  C   UNL     1      42.287 -13.838   2.120  1.00  0.00     0.741 A 
HETATM    2  N   UNL     1      41.541 -14.893   2.489  1.00  0.00    -0.066 NA
HETATM    3  C   UNL     1      41.850 -15.535   3.637  1.00  0.00     0.069 A 
HETATM    4  C   UNL     1      42.888 -15.133   4.442  1.00  0.00     0.053 A 
HETATM    5  C   UNL     1      43.207 -15.827   5.696  1.00  0.00     0.163 C 
HETATM    6  O   UNL     1      44.095 -15.395   6.425  1.00  0.00    -0.292 OA
HETATM    7  C   UNL     1      42.341 -17.005   6.087  1.00  0.00     0.093 C 
HETATM    8  C   UNL     1      41.763 -17.744   4.866  1.00  0.00     0.031 C 
HETATM    9  C   UNL     1      41.002 -16.727   3.993  1.00  0.00     0.070 C 
HETATM   10  C   UNL     1      43.607 -14.050   4.000  1.00  0.00     0.153 A 
HETATM   11  N   UNL     1      43.330 -13.397   2.848  1.00  0.00    -0.073 NA
ENDROOT
BRANCH   1  12
HETATM   12  N   UNL     1      42.042 -13.148   0.955  1.00  0.00    -0.015 N 
HETATM   13  H   UNL     1      42.597 -12.321   0.842  1.00  0.00     0.203 HD
BRANCH  12  14
HETATM   14  C   UNL     1      41.136 -13.354  -0.064  1.00  0.00     0.742 A 
HETATM   15  N   UNL     1      41.445 -14.348  -0.912  1.00  0.00    -0.066 NA
HETATM   16  C   UNL     1      40.604 -14.589  -1.943  1.00  0.00     0.062 A 
HETATM   17  C   UNL     1      41.000 -15.718  -2.850  1.00  0.00     0.072 C 
HETATM   18  C   UNL     1      39.442 -13.842  -2.160  1.00  0.00     0.018 A 
HETATM   19  C   UNL     1      39.216 -12.832  -1.221  1.00  0.00     0.088 A 
HETATM   20  C   UNL     1      38.523 -14.030  -3.223  1.00  0.00     0.016 A 
HETATM   21  N   UNL     1      40.041 -12.598  -0.198  1.00  0.00    -0.062 NA
HETATM   22  C   UNL     1      38.085 -12.037  -1.358  1.00  0.00     0.033 A 
HETATM   23  C   UNL     1      37.178 -12.217  -2.405  1.00  0.00     0.002 A 
HETATM   24  C   UNL     1      37.397 -13.218  -3.341  1.00  0.00     0.001 A 
ENDBRANCH  12  14
ENDBRANCH   1  12
BRANCH   8  25
HETATM   25  C   UNL     1      42.812 -18.605   4.161  1.00  0.00    -0.053 A 
HETATM   26  C   UNL     1      42.748 -18.735   2.761  1.00  0.00     0.007 A 
HETATM   27  C   UNL     1      43.671 -19.516   2.061  1.00  0.00     0.001 A 
HETATM   28  C   UNL     1      44.685 -20.174   2.746  1.00  0.00     0.000 A 
HETATM   29  C   UNL     1      44.782 -20.042   4.127  1.00  0.00     0.001 A 
HETATM   30  C   UNL     1      43.858 -19.260   4.829  1.00  0.00     0.007 A 
ENDBRANCH   8  25
TORSDOF 3
ENDMDL
MODEL 6
REMARK VINA RESULT:      -9.1      3.036      8.545
REMARK  3 active torsions:
REMARK  status: ('A' for Active; 'I' for Inactive)
REMARK    1  A    between atoms: C_4  and  N_5 
REMARK    2  A    between atoms: N_5  and  C_6 
REMARK    3  A    between atoms: C_13  and  C_14 
ROOT
HETATM    1  C   UNL     1      40.708 -15.661   0.948  1.00  0.00     0.741 A 
HETATM    2  N   UNL     1      40.011 -14.534   0.728  1.00  0.00    -0.066 NA
HETATM    3  C   UNL     1      39.949 -14.046  -0.530  1.00  0.00     0.069 A 
HETATM    4  C   UNL     1      40.558 -14.676  -1.588  1.00  0.00     0.053 A 
HETATM    5  C   UNL     1      40.472 -14.148  -2.955  1.00  0.00     0.163 C 
HETATM    6  O   UNL     1      40.968 -14.776  -3.886  1.00  0.00    -0.292 OA
HETATM    7  C   UNL     1      39.671 -12.881  -3.171  1.00  0.00     0.093 C 
HETATM    8  C   UNL     1      39.680 -11.961  -1.936  1.00  0.00     0.031 C 
HETATM    9  C   UNL     1      39.179 -12.767  -0.721  1.00  0.00     0.070 C 
HETATM   10  C   UNL     1      41.254 -15.821  -1.287  1.00  0.00     0.153 A 
HETATM   11  N   UNL     1      41.346 -16.324  -0.034  1.00  0.00    -0.073 NA
ENDROOT
BRANCH   1  12
HETATM   12  N   UNL     1      40.830 -16.205   2.207  1.00  0.00    -0.015 N 
HETATM   13  H   UNL     1      40.137 -15.889   2.860  1.00  0.00     0.203 HD
BRANCH  12  14
HETATM   14  C   UNL     1      41.758 -17.066   2.752  1.00  0.00     0.742 A 
HETATM   15  N   UNL     1      42.267 -16.686   3.935  1.00  0.00    -0.066 NA
HETATM   16  C   UNL     1      43.195 -17.480   4.513  1.00  0.00     0.062 A 
HETATM   17  C   UNL     1      43.718 -17.006   5.838  1.00  0.00     0.072 C 
HETATM   18  C   UNL     1      43.645 -18.667   3.925  1.00  0.00     0.018 A 
HETATM   19  C   UNL     1      43.053 -18.968   2.696  1.00  0.00     0.088 A 
HETATM   20  C   UNL     1      44.622 -19.541   4.467  1.00  0.00     0.016 A 
HETATM   21  N   UNL     1      42.130 -18.189   2.128  1.00  0.00    -0.062 NA
HETATM   22  C   UNL     1      43.441 -20.127   2.037  1.00  0.00     0.033 A 
HETATM   23  C   UNL     1      44.404 -20.991   2.565  1.00  0.00     0.002 A 
HETATM   24  C   UNL     1      44.997 -20.697   3.786  1.00  0.00     0.001 A 
ENDBRANCH  12  14
ENDBRANCH   1  12
BRANCH   8  25
HETATM   25  C   UNL     1      41.011 -11.226  -1.771  1.00  0.00    -0.053 A 
HETATM   26  C   UNL     1      41.637 -10.700  -2.917  1.00  0.00     0.007 A 
HETATM   27  C   UNL     1      42.859 -10.028  -2.832  1.00  0.00     0.001 A 
HETATM   28  C   UNL     1      43.475  -9.858  -1.598  1.00  0.00     0.000 A 
HETATM   29  C   UNL     1      42.863 -10.350  -0.450  1.00  0.00     0.001 A 
HETATM   30  C   UNL     1      41.640 -11.024  -0.534  1.00  0.00     0.007 A 
ENDBRANCH   8  25
TORSDOF 3
ENDMDL
MODEL 7
REMARK VINA RESULT:      -9.0      2.057      3.238
REMARK  3 active torsions:
REMARK  status: ('A' for Active; 'I' for Inactive)
REMARK    1  A    between atoms: C_4  and  N_5 
REMARK    2  A    between atoms: N_5  and  C_6 
REMARK    3  A    between atoms: C_13  and  C_14 
ROOT
HETATM    1  C   UNL     1      42.230 -13.900   2.266  1.00  0.00     0.741 A 
HETATM    2  N   UNL     1      41.514 -14.959   2.680  1.00  0.00    -0.066 NA
HETATM    3  C   UNL     1      41.893 -15.596   3.809  1.00  0.00     0.069 A 
HETATM    4  C   UNL     1      42.973 -15.185   4.552  1.00  0.00     0.053 A 
HETATM    5  C   UNL     1      43.369 -15.873   5.787  1.00  0.00     0.163 C 
HETATM    6  O   UNL     1      44.294 -15.433   6.462  1.00  0.00    -0.292 OA
HETATM    7  C   UNL     1      42.535 -17.056   6.230  1.00  0.00     0.093 C 
HETATM    8  C   UNL     1      41.893 -17.802   5.046  1.00  0.00     0.031 C 
HETATM    9  C   UNL     1      41.076 -16.793   4.216  1.00  0.00     0.070 C 
HETATM   10  C   UNL     1      43.658 -14.098   4.066  1.00  0.00     0.153 A 
HETATM   11  N   UNL     1      43.310 -13.450   2.931  1.00  0.00    -0.073 NA
ENDROOT
BRANCH   1  12
HETATM   12  N   UNL     1      41.913 -13.215   1.115  1.00  0.00    -0.015 N 
HETATM   13  H   UNL     1      41.633 -13.801   0.351  1.00  0.00     0.203 HD
BRANCH  12  14
HETATM   14  C   UNL     1      41.958 -11.873   0.801  1.00  0.00     0.742 A 
HETATM   15  N   UNL     1      41.004 -11.119   1.371  1.00  0.00    -0.066 NA
HETATM   16  C   UNL     1      40.984  -9.797   1.088  1.00  0.00     0.062 A 
HETATM   17  C   UNL     1      39.900  -9.008   1.762  1.00  0.00     0.072 C 
HETATM   18  C   UNL     1      41.907  -9.196   0.226  1.00  0.00     0.018 A 
HETATM   19  C   UNL     1      42.855 -10.069  -0.313  1.00  0.00     0.088 A 
HETATM   20  C   UNL     1      41.939  -7.822  -0.124  1.00  0.00     0.016 A 
HETATM   21  N   UNL     1      42.880 -11.374  -0.029  1.00  0.00    -0.062 NA
HETATM   22  C   UNL     1      43.810  -9.560  -1.183  1.00  0.00     0.033 A 
HETATM   23  C   UNL     1      43.846  -8.208  -1.533  1.00  0.00     0.002 A 
HETATM   24  C   UNL     1      42.906  -7.335  -1.000  1.00  0.00     0.001 A 
ENDBRANCH  12  14
ENDBRANCH   1  12
BRANCH   8  25
HETATM   25  C   UNL     1      42.905 -18.658   4.283  1.00  0.00    -0.053 A 
HETATM   26  C   UNL     1      43.916 -19.315   5.009  1.00  0.00     0.007 A 
HETATM   27  C   UNL     1      44.876 -20.102   4.368  1.00  0.00     0.001 A 
HETATM   28  C   UNL     1      44.838 -20.257   2.988  1.00  0.00     0.000 A 
HETATM   29  C   UNL     1      43.835 -19.635   2.252  1.00  0.00     0.001 A 
HETATM   30  C   UNL     1      42.873 -18.847   2.893  1.00  0.00     0.007 A 
ENDBRANCH   8  25
TORSDOF 3
ENDMDL
MODEL 8
REMARK VINA RESULT:      -9.0      2.999      8.372
REMARK  3 active torsions:
REMARK  status: ('A' for Active; 'I' for Inactive)
REMARK    1  A    between atoms: C_4  and  N_5 
REMARK    2  A    between atoms: N_5  and  C_6 
REMARK    3  A    between atoms: C_13  and  C_14 
ROOT
HETATM    1  C   UNL     1      40.132 -15.475   1.789  1.00  0.00     0.741 A 
HETATM    2  N   UNL     1      40.746 -15.418   0.595  1.00  0.00    -0.066 NA
HETATM    3  C   UNL     1      40.676 -14.272  -0.116  1.00  0.00     0.069 A 
HETATM    4  C   UNL     1      40.014 -13.162   0.351  1.00  0.00     0.053 A 
HETATM    5  C   UNL     1      39.956 -11.916  -0.422  1.00  0.00     0.163 C 
HETATM    6  O   UNL     1      39.417 -10.923   0.059  1.00  0.00    -0.292 OA
HETATM    7  C   UNL     1      40.666 -11.883  -1.759  1.00  0.00     0.093 C 
HETATM    8  C   UNL     1      40.713 -13.265  -2.436  1.00  0.00     0.031 C 
HETATM    9  C   UNL     1      41.356 -14.268  -1.459  1.00  0.00     0.070 C 
HETATM   10  C   UNL     1      39.408 -13.295   1.576  1.00  0.00     0.153 A 
HETATM   11  N   UNL     1      39.450 -14.435   2.304  1.00  0.00    -0.073 NA
ENDROOT
BRANCH   1  12
HETATM   12  N   UNL     1      40.147 -16.615   2.560  1.00  0.00    -0.015 N 
HETATM   13  H   UNL     1      39.237 -16.973   2.782  1.00  0.00     0.203 HD
BRANCH  12  14
HETATM   14  C   UNL     1      41.180 -17.330   3.127  1.00  0.00     0.742 A 
HETATM   15  N   UNL     1      41.383 -17.103   4.435  1.00  0.00    -0.066 NA
HETATM   16  C   UNL     1      42.393 -17.763   5.045  1.00  0.00     0.062 A 
HETATM   17  C   UNL     1      42.563 -17.474   6.508  1.00  0.00     0.072 C 
HETATM   18  C   UNL     1      43.231 -18.655   4.367  1.00  0.00     0.018 A 
HETATM   19  C   UNL     1      42.934 -18.816   3.012  1.00  0.00     0.088 A 
HETATM   20  C   UNL     1      44.313 -19.370   4.939  1.00  0.00     0.016 A 
HETATM   21  N   UNL     1      41.931 -18.173   2.410  1.00  0.00    -0.062 NA
HETATM   22  C   UNL     1      43.715 -19.682   2.258  1.00  0.00     0.033 A 
HETATM   23  C   UNL     1      44.785 -20.388   2.816  1.00  0.00     0.002 A 
HETATM   24  C   UNL     1      45.085 -20.231   4.162  1.00  0.00     0.001 A 
ENDBRANCH  12  14
ENDBRANCH   1  12
BRANCH   8  25
HETATM   25  C   UNL     1      39.363 -13.661  -3.036  1.00  0.00    -0.053 A 
HETATM   26  C   UNL     1      39.139 -15.012  -3.362  1.00  0.00     0.007 A 
HETATM   27  C   UNL     1      37.931 -15.433  -3.922  1.00  0.00     0.001 A 
HETATM   28  C   UNL     1      36.916 -14.514  -4.158  1.00  0.00     0.000 A 
HETATM   29  C   UNL     1      37.106 -13.178  -3.823  1.00  0.00     0.001 A 
HETATM   30  C   UNL     1      38.316 -12.755  -3.262  1.00  0.00     0.007 A 
ENDBRANCH   8  25
TORSDOF 3
ENDMDL
MODEL 9
REMARK VINA RESULT:      -9.0      3.166      8.599
REMARK  3 active torsions:
REMARK  status: ('A' for Active; 'I' for Inactive)
REMARK    1  A    between atoms: C_4  and  N_5 
REMARK    2  A    between atoms: N_5  and  C_6 
REMARK    3  A    between atoms: C_13  and  C_14 
ROOT
HETATM    1  C   UNL     1      40.622 -16.191   1.363  1.00  0.00     0.741 A 
HETATM    2  N   UNL     1      41.136 -15.592   0.276  1.00  0.00    -0.066 NA
HETATM    3  C   UNL     1      40.619 -14.407  -0.115  1.00  0.00     0.069 A 
HETATM    4  C   UNL     1      39.602 -13.791   0.573  1.00  0.00     0.053 A 
HETATM    5  C   UNL     1      39.057 -12.495   0.150  1.00  0.00     0.163 C 
HETATM    6  O   UNL     1      38.199 -11.941   0.830  1.00  0.00    -0.292 OA
HETATM    7  C   UNL     1      39.665 -11.842  -1.074  1.00  0.00     0.093 C 
HETATM    8  C   UNL     1      40.208 -12.871  -2.082  1.00  0.00     0.031 C 
HETATM    9  C   UNL     1      41.209 -13.789  -1.354  1.00  0.00     0.070 C 
HETATM   10  C   UNL     1      39.126 -14.463   1.671  1.00  0.00     0.153 A 
HETATM   11  N   UNL     1      39.613 -15.658   2.078  1.00  0.00    -0.073 NA
ENDROOT
BRANCH   1  12
HETATM   12  N   UNL     1      41.086 -17.408   1.809  1.00  0.00    -0.015 N 
HETATM   13  H   UNL     1      40.588 -18.198   1.442  1.00  0.00     0.203 HD
BRANCH  12  14
HETATM   14  C   UNL     1      42.077 -17.743   2.707  1.00  0.00     0.742 A 
HETATM   15  N   UNL     1      42.772 -18.851   2.406  1.00  0.00    -0.066 NA
HETATM   16  C   UNL     1      43.748 -19.241   3.257  1.00  0.00     0.062 A 
HETATM   17  C   UNL     1      44.494 -20.482   2.860  1.00  0.00     0.072 C 
HETATM   18  C   UNL     1      44.049 -18.543   4.431  1.00  0.00     0.018 A 
HETATM   19  C   UNL     1      43.266 -17.407   4.649  1.00  0.00     0.088 A 
HETATM   20  C   UNL     1      45.047 -18.899   5.373  1.00  0.00     0.016 A 
HETATM   21  N   UNL     1      42.308 -17.016   3.806  1.00  0.00    -0.062 NA
HETATM   22  C   UNL     1      43.493 -16.652   5.793  1.00  0.00     0.033 A 
HETATM   23  C   UNL     1      44.474 -16.999   6.725  1.00  0.00     0.002 A 
HETATM   24  C   UNL     1      45.255 -18.128   6.514  1.00  0.00     0.001 A 
ENDBRANCH  12  14
ENDBRANCH   1  12
BRANCH   8  25
HETATM   25  C   UNL     1      39.090 -13.560  -2.866  1.00  0.00    -0.053 A 
HETATM   26  C   UNL     1      37.958 -12.806  -3.230  1.00  0.00     0.007 A 
HETATM   27  C   UNL     1      36.900 -13.381  -3.937  1.00  0.00     0.001 A 
HETATM   28  C   UNL     1      36.955 -14.720  -4.304  1.00  0.00     0.000 A 
HETATM   29  C   UNL     1      38.073 -15.479  -3.974  1.00  0.00     0.001 A 
HETATM   30  C   UNL     1      39.134 -14.904  -3.266  1.00  0.00     0.007 A 
ENDBRANCH   8  25
TORSDOF 3
ENDMDL
MODEL 10
REMARK VINA RESULT:      -8.9      4.727      8.496
REMARK  3 active torsions:
REMARK  status: ('A' for Active; 'I' for Inactive)
REMARK    1  A    between atoms: C_4  and  N_5 
REMARK    2  A    between atoms: N_5  and  C_6 
REMARK    3  A    between atoms: C_13  and  C_14 
ROOT
HETATM    1  C   UNL     1      41.172 -11.671   6.399  1.00  0.00     0.741 A 
HETATM    2  N   UNL     1      42.272 -12.152   5.797  1.00  0.00    -0.066 NA
HETATM    3  C   UNL     1      42.133 -13.137   4.883  1.00  0.00     0.069 A 
HETATM    4  C   UNL     1      40.904 -13.646   4.540  1.00  0.00     0.053 A 
HETATM    5  C   UNL     1      40.760 -14.705   3.533  1.00  0.00     0.163 C 
HETATM    6  O   UNL     1      39.641 -15.083   3.200  1.00  0.00    -0.292 OA
HETATM    7  C   UNL     1      42.019 -15.218   2.867  1.00  0.00     0.093 C 
HETATM    8  C   UNL     1      43.253 -15.121   3.784  1.00  0.00     0.031 C 
HETATM    9  C   UNL     1      43.398 -13.661   4.257  1.00  0.00     0.070 C 
HETATM   10  C   UNL     1      39.825 -13.108   5.198  1.00  0.00     0.153 A 
HETATM   11  N   UNL     1      39.936 -12.131   6.128  1.00  0.00    -0.073 NA
ENDROOT
BRANCH   1  12
HETATM   12  N   UNL     1      41.240 -10.681   7.354  1.00  0.00    -0.015 N 
HETATM   13  H   UNL     1      40.894  -9.791   7.048  1.00  0.00     0.203 HD
BRANCH  12  14
HETATM   14  C   UNL     1      41.743 -10.673   8.637  1.00  0.00     0.742 A 
HETATM   15  N   UNL     1      43.083 -10.682   8.727  1.00  0.00    -0.066 NA
HETATM   16  C   UNL     1      43.637 -10.691   9.960  1.00  0.00     0.062 A 
HETATM   17  C   UNL     1      45.138 -10.691   9.994  1.00  0.00     0.072 C 
HETATM   18  C   UNL     1      42.873 -10.700  11.132  1.00  0.00     0.018 A 
HETATM   19  C   UNL     1      41.492 -10.691  10.925  1.00  0.00     0.088 A 
HETATM   20  C   UNL     1      43.385 -10.721  12.453  1.00  0.00     0.016 A 
HETATM   21  N   UNL     1      40.942 -10.674   9.708  1.00  0.00    -0.062 NA
HETATM   22  C   UNL     1      40.653 -10.701  12.032  1.00  0.00     0.033 A 
HETATM   23  C   UNL     1      41.152 -10.724  13.337  1.00  0.00     0.002 A 
HETATM   24  C   UNL     1      42.525 -10.734  13.548  1.00  0.00     0.001 A 
ENDBRANCH  12  14
ENDBRANCH   1  12
BRANCH   8  25
HETATM   25  C   UNL     1      43.253 -16.197   4.870  1.00  0.00    -0.053 A 
HETATM   26  C   UNL     1      42.868 -17.506   4.523  1.00  0.00     0.007 A 
HETATM   27  C   UNL     1      42.838 -18.530   5.472  1.00  0.00     0.001 A 
HETATM   28  C   UNL     1      43.203 -18.270   6.787  1.00  0.00     0.000 A 
HETATM   29  C   UNL     1      43.609 -16.989   7.148  1.00  0.00     0.001 A 
HETATM   30  C   UNL     1      43.639 -15.963   6.198  1.00  0.00     0.007 A 
ENDBRANCH   8  25
TORSDOF 3
ENDMDL
