MODEL 1
REMARK VINA RESULT:      -8.5      0.000      0.000
REMARK  8 active torsions:
REMARK  status: ('A' for Active; 'I' for Inactive)
REMARK    1  A    between atoms: C_3  and  S_4 
REMARK    2  A    between atoms: S_4  and  C_5 
REMARK    3  A    between atoms: C_5  and  C_6 
REMARK       I    between atoms: C_6  and  N_7 
REMARK    4  A    between atoms: N_7  and  C_8 
REMARK    5  A    between atoms: C_8  and  C_9 
REMARK    6  A    between atoms: C_9  and  C_10 
REMARK    7  A    between atoms: C_19  and  C_20 
REMARK    8  A    between atoms: C_25  and  O_26 
ROOT
HETATM    1  C   UNL     1      39.965 -14.292   3.143  1.00  0.00     0.160 C 
HETATM    2  N   UNL     1      41.260 -14.917   3.206  1.00  0.00    -0.310 N 
HETATM    3  C   UNL     1      41.983 -15.279   4.310  1.00  0.00     0.191 A 
HETATM    4  N   UNL     1      43.110 -15.842   3.939  1.00  0.00    -0.122 NA
HETATM    5  N   UNL     1      43.159 -15.821   2.571  1.00  0.00    -0.126 NA
HETATM    6  C   UNL     1      42.041 -15.274   2.130  1.00  0.00     0.188 A 
ENDROOT
BRANCH   3   7
HETATM    7  S   UNL     1      41.492 -15.008   5.944  1.00  0.00    -0.081 SA
BRANCH   7   8
HETATM    8  C   UNL     1      41.105 -16.696   6.491  1.00  0.00     0.185 C 
BRANCH   8   9
HETATM    9  C   UNL     1      42.346 -17.462   6.917  1.00  0.00     0.227 C 
HETATM   10  N   UNL     1      42.780 -18.411   6.022  1.00  0.00    -0.360 N 
HETATM   11  H   UNL     1      42.304 -18.491   5.124  1.00  0.00     0.162 HD
HETATM   12  O   UNL     1      42.881 -17.279   8.009  1.00  0.00    -0.273 OA
BRANCH  10  13
HETATM   13  C   UNL     1      43.867 -19.328   6.302  1.00  0.00     0.127 C 
BRANCH  13  14
HETATM   14  C   UNL     1      44.930 -19.277   5.203  1.00  0.00     0.058 C 
BRANCH  14  15
HETATM   15  C   UNL     1      44.557 -20.122   4.011  1.00  0.00    -0.057 A 
HETATM   16  C   UNL     1      43.931 -19.545   2.899  1.00  0.00     0.007 A 
HETATM   17  C   UNL     1      43.579 -20.331   1.801  1.00  0.00     0.001 A 
HETATM   18  C   UNL     1      43.843 -21.699   1.807  1.00  0.00     0.000 A 
HETATM   19  C   UNL     1      44.459 -22.284   2.912  1.00  0.00     0.001 A 
HETATM   20  C   UNL     1      44.813 -21.500   4.010  1.00  0.00     0.007 A 
ENDBRANCH  14  15
ENDBRANCH  13  14
ENDBRANCH  10  13
ENDBRANCH   8   9
ENDBRANCH   7   8
ENDBRANCH   3   7
BRANCH   6  21
HETATM   21  C   UNL     1      41.730 -15.094   0.746  1.00  0.00     0.125 A 
HETATM   22  O   UNL     1      41.811 -13.888   0.100  1.00  0.00    -0.303 OA
HETATM   23  C   UNL     1      41.430 -14.075  -1.196  1.00  0.00     0.119 A 
HETATM   24  C   UNL     1      41.112 -15.410  -1.406  1.00  0.00     0.003 A 
HETATM   25  C   UNL     1      41.359 -13.078  -2.177  1.00  0.00     0.102 A 
HETATM   26  C   UNL     1      41.302 -16.053  -0.157  1.00  0.00     0.055 A 
HETATM   27  C   UNL     1      40.702 -15.815  -2.686  1.00  0.00     0.014 A 
HETATM   28  C   UNL     1      40.628 -14.851  -3.698  1.00  0.00     0.004 A 
HETATM   29  C   UNL     1      40.950 -13.510  -3.448  1.00  0.00     0.040 A 
BRANCH  25  30
HETATM   30  O   UNL     1      41.693 -11.800  -1.830  1.00  0.00    -0.353 OA
HETATM   31  C   UNL     1      40.622 -10.927  -1.498  1.00  0.00     0.210 C 
ENDBRANCH  25  30
ENDBRANCH   6  21
TORSDOF 8
ENDMDL
MODEL 2
REMARK VINA RESULT:      -8.3      5.319      9.334
REMARK  8 active torsions:
REMARK  status: ('A' for Active; 'I' for Inactive)
REMARK    1  A    between atoms: C_3  and  S_4 
REMARK    2  A    between atoms: S_4  and  C_5 
REMARK    3  A    between atoms: C_5  and  C_6 
REMARK       I    between atoms: C_6  and  N_7 
REMARK    4  A    between atoms: N_7  and  C_8 
REMARK    5  A    between atoms: C_8  and  C_9 
REMARK    6  A    between atoms: C_9  and  C_10 
REMARK    7  A    between atoms: C_19  and  C_20 
REMARK    8  A    between atoms: C_25  and  O_26 
ROOT
HETATM    1  C   UNL     1      40.372 -14.880   4.036  1.00  0.00     0.160 C 
HETATM    2  N   UNL     1      41.463 -14.313   4.786  1.00  0.00    -0.310 N 
HETATM    3  C   UNL     1      41.525 -13.106   5.426  1.00  0.00     0.191 A 
HETATM    4  N   UNL     1      42.693 -12.973   6.013  1.00  0.00    -0.122 NA
HETATM    5  N   UNL     1      43.433 -14.090   5.731  1.00  0.00    -0.126 NA
HETATM    6  C   UNL     1      42.690 -14.900   5.001  1.00  0.00     0.188 A 
ENDROOT
BRANCH   3   7
HETATM    7  S   UNL     1      40.264 -11.924   5.431  1.00  0.00    -0.081 SA
BRANCH   7   8
HETATM    8  C   UNL     1      39.370 -12.355   6.952  1.00  0.00     0.185 C 
BRANCH   8   9
HETATM    9  C   UNL     1      39.651 -11.378   8.081  1.00  0.00     0.227 C 
HETATM   10  N   UNL     1      40.975 -11.049   8.252  1.00  0.00    -0.360 N 
HETATM   11  H   UNL     1      41.659 -11.412   7.588  1.00  0.00     0.162 HD
HETATM   12  O   UNL     1      38.759 -10.961   8.818  1.00  0.00    -0.273 OA
BRANCH  10  13
HETATM   13  C   UNL     1      41.456 -10.236   9.351  1.00  0.00     0.127 C 
BRANCH  13  14
HETATM   14  C   UNL     1      42.525 -10.973  10.158  1.00  0.00     0.058 C 
BRANCH  14  15
HETATM   15  C   UNL     1      42.487 -10.608  11.620  1.00  0.00    -0.057 A 
HETATM   16  C   UNL     1      41.407 -10.998  12.423  1.00  0.00     0.007 A 
HETATM   17  C   UNL     1      41.370 -10.651  13.774  1.00  0.00     0.001 A 
HETATM   18  C   UNL     1      42.407  -9.906  14.333  1.00  0.00     0.000 A 
HETATM   19  C   UNL     1      43.483  -9.506  13.541  1.00  0.00     0.001 A 
HETATM   20  C   UNL     1      43.522  -9.854  12.190  1.00  0.00     0.007 A 
ENDBRANCH  14  15
ENDBRANCH  13  14
ENDBRANCH  10  13
ENDBRANCH   8   9
ENDBRANCH   7   8
ENDBRANCH   3   7
BRANCH   6  21
HETATM   21  C   UNL     1      43.127 -16.175   4.526  1.00  0.00     0.125 A 
HETATM   22  O   UNL     1      43.495 -17.207   5.349  1.00  0.00    -0.303 OA
HETATM   23  C   UNL     1      43.870 -18.261   4.568  1.00  0.00     0.119 A 
HETATM   24  C   UNL     1      43.735 -17.924   3.228  1.00  0.00     0.003 A 
HETATM   25  C   UNL     1      44.330 -19.499   5.035  1.00  0.00     0.102 A 
HETATM   26  C   UNL     1      43.264 -16.587   3.211  1.00  0.00     0.055 A 
HETATM   27  C   UNL     1      44.063 -18.881   2.254  1.00  0.00     0.014 A 
HETATM   28  C   UNL     1      44.517 -20.135   2.679  1.00  0.00     0.004 A 
HETATM   29  C   UNL     1      44.648 -20.437   4.041  1.00  0.00     0.040 A 
BRANCH  25  30
HETATM   30  O   UNL     1      44.422 -19.691   6.383  1.00  0.00    -0.353 OA
HETATM   31  C   UNL     1      43.674 -20.771   6.927  1.00  0.00     0.210 C 
ENDBRANCH  25  30
ENDBRANCH   6  21
TORSDOF 8
ENDMDL
MODEL 3
REMARK VINA RESULT:      -8.2      5.431      9.373
REMARK  8 active torsions:
REMARK  status: ('A' for Active; 'I' for Inactive)
REMARK    1  A    between atoms: C_3  and  S_4 
REMARK    2  A    between atoms: S_4  and  C_5 
REMARK    3  A    between atoms: C_5  and  C_6 
REMARK       I    between atoms: C_6  and  N_7 
REMARK    4  A    between atoms: N_7  and  C_8 
REMARK    5  A    between atoms: C_8  and  C_9 
REMARK    6  A    between atoms: C_9  and  C_10 
REMARK    7  A    between atoms: C_19  and  C_20 
REMARK    8  A    between atoms: C_25  and  O_26 
ROOT
HETATM    1  C   UNL     1      43.238 -14.381   5.546  1.00  0.00     0.160 C 
HETATM    2  N   UNL     1      41.954 -14.451   4.898  1.00  0.00    -0.310 N 
HETATM    3  C   UNL     1      40.937 -13.535   4.911  1.00  0.00     0.191 A 
HETATM    4  N   UNL     1      39.939 -13.968   4.176  1.00  0.00    -0.122 NA
HETATM    5  N   UNL     1      40.278 -15.204   3.694  1.00  0.00    -0.126 NA
HETATM    6  C   UNL     1      41.494 -15.490   4.121  1.00  0.00     0.188 A 
ENDROOT
BRANCH   3   7
HETATM    7  S   UNL     1      40.959 -12.048   5.791  1.00  0.00    -0.081 SA
BRANCH   7   8
HETATM    8  C   UNL     1      39.547 -12.269   6.912  1.00  0.00     0.185 C 
BRANCH   8   9
HETATM    9  C   UNL     1      39.462 -11.168   7.955  1.00  0.00     0.227 C 
HETATM   10  N   UNL     1      39.972 -11.494   9.190  1.00  0.00    -0.360 N 
HETATM   11  H   UNL     1      40.427 -12.399   9.308  1.00  0.00     0.162 HD
HETATM   12  O   UNL     1      38.924 -10.088   7.719  1.00  0.00    -0.273 OA
BRANCH  10  13
HETATM   13  C   UNL     1      39.868 -10.626  10.346  1.00  0.00     0.127 C 
BRANCH  13  14
HETATM   14  C   UNL     1      40.249 -11.366  11.629  1.00  0.00     0.058 C 
BRANCH  14  15
HETATM   15  C   UNL     1      41.375 -10.687  12.366  1.00  0.00    -0.057 A 
HETATM   16  C   UNL     1      42.495 -10.213  11.671  1.00  0.00     0.007 A 
HETATM   17  C   UNL     1      43.539  -9.591  12.357  1.00  0.00     0.001 A 
HETATM   18  C   UNL     1      43.478  -9.445  13.742  1.00  0.00     0.000 A 
HETATM   19  C   UNL     1      42.371  -9.921  14.443  1.00  0.00     0.001 A 
HETATM   20  C   UNL     1      41.325 -10.541  13.759  1.00  0.00     0.007 A 
ENDBRANCH  14  15
ENDBRANCH  13  14
ENDBRANCH  10  13
ENDBRANCH   8   9
ENDBRANCH   7   8
ENDBRANCH   3   7
BRANCH   6  21
HETATM   21  C   UNL     1      42.187 -16.700   3.807  1.00  0.00     0.125 A 
HETATM   22  O   UNL     1      42.943 -17.399   4.712  1.00  0.00    -0.303 OA
HETATM   23  C   UNL     1      43.471 -18.484   4.075  1.00  0.00     0.119 A 
HETATM   24  C   UNL     1      43.050 -18.505   2.752  1.00  0.00     0.003 A 
HETATM   25  C   UNL     1      44.318 -19.437   4.655  1.00  0.00     0.102 A 
HETATM   26  C   UNL     1      42.233 -17.357   2.589  1.00  0.00     0.055 A 
HETATM   27  C   UNL     1      43.477 -19.554   1.923  1.00  0.00     0.014 A 
HETATM   28  C   UNL     1      44.317 -20.534   2.467  1.00  0.00     0.004 A 
HETATM   29  C   UNL     1      44.728 -20.476   3.805  1.00  0.00     0.040 A 
BRANCH  25  30
HETATM   30  O   UNL     1      44.660 -19.289   5.969  1.00  0.00    -0.353 OA
HETATM   31  C   UNL     1      43.786 -19.871   6.927  1.00  0.00     0.210 C 
ENDBRANCH  25  30
ENDBRANCH   6  21
TORSDOF 8
ENDMDL
MODEL 4
REMARK VINA RESULT:      -8.1      5.596      9.230
REMARK  8 active torsions:
REMARK  status: ('A' for Active; 'I' for Inactive)
REMARK    1  A    between atoms: C_3  and  S_4 
REMARK    2  A    between atoms: S_4  and  C_5 
REMARK    3  A    between atoms: C_5  and  C_6 
REMARK       I    between atoms: C_6  and  N_7 
REMARK    4  A    between atoms: N_7  and  C_8 
REMARK    5  A    between atoms: C_8  and  C_9 
REMARK    6  A    between atoms: C_9  and  C_10 
REMARK    7  A    between atoms: C_19  and  C_20 
REMARK    8  A    between atoms: C_25  and  O_26 
ROOT
HETATM    1  C   UNL     1      43.090 -13.465   4.615  1.00  0.00     0.160 C 
HETATM    2  N   UNL     1      41.849 -13.937   5.171  1.00  0.00    -0.310 N 
HETATM    3  C   UNL     1      40.761 -13.213   5.575  1.00  0.00     0.191 A 
HETATM    4  N   UNL     1      39.822 -14.023   6.006  1.00  0.00    -0.122 NA
HETATM    5  N   UNL     1      40.301 -15.303   5.923  1.00  0.00    -0.126 NA
HETATM    6  C   UNL     1      41.517 -15.252   5.412  1.00  0.00     0.188 A 
ENDROOT
BRANCH   3   7
HETATM    7  S   UNL     1      40.658 -11.488   5.548  1.00  0.00    -0.081 SA
BRANCH   7   8
HETATM    8  C   UNL     1      40.486 -11.107   7.315  1.00  0.00     0.185 C 
BRANCH   8   9
HETATM    9  C   UNL     1      41.741 -10.475   7.893  1.00  0.00     0.227 C 
HETATM   10  N   UNL     1      42.359 -11.205   8.881  1.00  0.00    -0.360 N 
HETATM   11  H   UNL     1      41.992 -12.128   9.110  1.00  0.00     0.162 HD
HETATM   12  O   UNL     1      42.135  -9.367   7.535  1.00  0.00    -0.273 OA
BRANCH  10  13
HETATM   13  C   UNL     1      43.492 -10.713   9.640  1.00  0.00     0.127 C 
BRANCH  13  14
HETATM   14  C   UNL     1      43.709 -11.542  10.907  1.00  0.00     0.058 C 
BRANCH  14  15
HETATM   15  C   UNL     1      43.112 -10.885  12.126  1.00  0.00    -0.057 A 
HETATM   16  C   UNL     1      41.887 -11.326  12.642  1.00  0.00     0.007 A 
HETATM   17  C   UNL     1      41.332 -10.711  13.765  1.00  0.00     0.001 A 
HETATM   18  C   UNL     1      41.992  -9.647  14.377  1.00  0.00     0.000 A 
HETATM   19  C   UNL     1      43.208  -9.196  13.866  1.00  0.00     0.001 A 
HETATM   20  C   UNL     1      43.765  -9.811  12.744  1.00  0.00     0.007 A 
ENDBRANCH  14  15
ENDBRANCH  13  14
ENDBRANCH  10  13
ENDBRANCH   8   9
ENDBRANCH   7   8
ENDBRANCH   3   7
BRANCH   6  21
HETATM   21  C   UNL     1      42.330 -16.402   5.165  1.00  0.00     0.125 A 
HETATM   22  O   UNL     1      42.421 -17.020   3.945  1.00  0.00    -0.303 OA
HETATM   23  C   UNL     1      43.264 -18.085   4.071  1.00  0.00     0.119 A 
HETATM   24  C   UNL     1      43.738 -18.159   5.374  1.00  0.00     0.003 A 
HETATM   25  C   UNL     1      43.603 -18.982   3.050  1.00  0.00     0.102 A 
HETATM   26  C   UNL     1      43.131 -17.081   6.068  1.00  0.00     0.055 A 
HETATM   27  C   UNL     1      44.633 -19.187   5.711  1.00  0.00     0.014 A 
HETATM   28  C   UNL     1      45.006 -20.098   4.716  1.00  0.00     0.004 A 
HETATM   29  C   UNL     1      44.501 -19.997   3.413  1.00  0.00     0.040 A 
BRANCH  25  30
HETATM   30  O   UNL     1      43.054 -18.796   1.813  1.00  0.00    -0.353 OA
HETATM   31  C   UNL     1      43.700 -17.858   0.962  1.00  0.00     0.210 C 
ENDBRANCH  25  30
ENDBRANCH   6  21
TORSDOF 8
ENDMDL
MODEL 5
REMARK VINA RESULT:      -8.1      4.754      8.687
REMARK  8 active torsions:
REMARK  status: ('A' for Active; 'I' for Inactive)
REMARK    1  A    between atoms: C_3  and  S_4 
REMARK    2  A    between atoms: S_4  and  C_5 
REMARK    3  A    between atoms: C_5  and  C_6 
REMARK       I    between atoms: C_6  and  N_7 
REMARK    4  A    between atoms: N_7  and  C_8 
REMARK    5  A    between atoms: C_8  and  C_9 
REMARK    6  A    between atoms: C_9  and  C_10 
REMARK    7  A    between atoms: C_19  and  C_20 
REMARK    8  A    between atoms: C_25  and  O_26 
ROOT
HETATM    1  C   UNL     1      43.444 -13.770   4.308  1.00  0.00     0.160 C 
HETATM    2  N   UNL     1      42.213 -14.196   4.922  1.00  0.00    -0.310 N 
HETATM    3  C   UNL     1      41.271 -13.440   5.563  1.00  0.00     0.191 A 
HETATM    4  N   UNL     1      40.282 -14.208   5.963  1.00  0.00    -0.122 NA
HETATM    5  N   UNL     1      40.585 -15.497   5.617  1.00  0.00    -0.126 NA
HETATM    6  C   UNL     1      41.743 -15.488   4.982  1.00  0.00     0.188 A 
ENDROOT
BRANCH   3   7
HETATM    7  S   UNL     1      41.384 -11.737   5.829  1.00  0.00    -0.081 SA
BRANCH   7   8
HETATM    8  C   UNL     1      39.665 -11.319   6.241  1.00  0.00     0.185 C 
BRANCH   8   9
HETATM    9  C   UNL     1      39.537 -10.713   7.629  1.00  0.00     0.227 C 
HETATM   10  N   UNL     1      40.265 -11.345   8.610  1.00  0.00    -0.360 N 
HETATM   11  H   UNL     1      40.883 -12.111   8.344  1.00  0.00     0.162 HD
HETATM   12  O   UNL     1      38.790  -9.764   7.858  1.00  0.00    -0.273 OA
BRANCH  10  13
HETATM   13  C   UNL     1      40.175 -10.997  10.014  1.00  0.00     0.127 C 
BRANCH  13  14
HETATM   14  C   UNL     1      41.288 -10.028  10.415  1.00  0.00     0.058 C 
BRANCH  14  15
HETATM   15  C   UNL     1      42.615 -10.724  10.585  1.00  0.00    -0.057 A 
HETATM   16  C   UNL     1      43.626 -10.568   9.629  1.00  0.00     0.007 A 
HETATM   17  C   UNL     1      44.850 -11.221   9.784  1.00  0.00     0.001 A 
HETATM   18  C   UNL     1      45.071 -12.039  10.890  1.00  0.00     0.000 A 
HETATM   19  C   UNL     1      44.067 -12.206  11.844  1.00  0.00     0.001 A 
HETATM   20  C   UNL     1      42.844 -11.553  11.691  1.00  0.00     0.007 A 
ENDBRANCH  14  15
ENDBRANCH  13  14
ENDBRANCH  10  13
ENDBRANCH   8   9
ENDBRANCH   7   8
ENDBRANCH   3   7
BRANCH   6  21
HETATM   21  C   UNL     1      42.376 -16.658   4.458  1.00  0.00     0.125 A 
HETATM   22  O   UNL     1      42.997 -17.599   5.237  1.00  0.00    -0.303 OA
HETATM   23  C   UNL     1      43.503 -18.563   4.416  1.00  0.00     0.119 A 
HETATM   24  C   UNL     1      43.201 -18.262   3.094  1.00  0.00     0.003 A 
HETATM   25  C   UNL     1      44.226 -19.690   4.829  1.00  0.00     0.102 A 
HETATM   26  C   UNL     1      42.484 -17.039   3.131  1.00  0.00     0.055 A 
HETATM   27  C   UNL     1      43.627 -19.141   2.086  1.00  0.00     0.014 A 
HETATM   28  C   UNL     1      44.344 -20.285   2.458  1.00  0.00     0.004 A 
HETATM   29  C   UNL     1      44.637 -20.553   3.801  1.00  0.00     0.040 A 
BRANCH  25  30
HETATM   30  O   UNL     1      44.459 -19.858   6.164  1.00  0.00    -0.353 OA
HETATM   31  C   UNL     1      43.817 -20.961   6.791  1.00  0.00     0.210 C 
ENDBRANCH  25  30
ENDBRANCH   6  21
TORSDOF 8
ENDMDL
MODEL 6
REMARK VINA RESULT:      -8.0      1.976      2.375
REMARK  8 active torsions:
REMARK  status: ('A' for Active; 'I' for Inactive)
REMARK    1  A    between atoms: C_3  and  S_4 
REMARK    2  A    between atoms: S_4  and  C_5 
REMARK    3  A    between atoms: C_5  and  C_6 
REMARK       I    between atoms: C_6  and  N_7 
REMARK    4  A    between atoms: N_7  and  C_8 
REMARK    5  A    between atoms: C_8  and  C_9 
REMARK    6  A    between atoms: C_9  and  C_10 
REMARK    7  A    between atoms: C_19  and  C_20 
REMARK    8  A    between atoms: C_25  and  O_26 
ROOT
HETATM    1  C   UNL     1      39.668 -14.945   2.592  1.00  0.00     0.160 C 
HETATM    2  N   UNL     1      40.863 -14.209   2.273  1.00  0.00    -0.310 N 
HETATM    3  C   UNL     1      41.762 -13.626   3.124  1.00  0.00     0.191 A 
HETATM    4  N   UNL     1      42.729 -13.066   2.434  1.00  0.00    -0.122 NA
HETATM    5  N   UNL     1      42.454 -13.246   1.105  1.00  0.00    -0.126 NA
HETATM    6  C   UNL     1      41.337 -13.941   1.008  1.00  0.00     0.188 A 
ENDROOT
BRANCH   3   7
HETATM    7  S   UNL     1      41.623 -13.607   4.846  1.00  0.00    -0.081 SA
BRANCH   7   8
HETATM    8  C   UNL     1      43.062 -14.600   5.337  1.00  0.00     0.185 C 
BRANCH   8   9
HETATM    9  C   UNL     1      42.757 -16.088   5.349  1.00  0.00     0.227 C 
HETATM   10  N   UNL     1      43.693 -16.869   5.986  1.00  0.00    -0.360 N 
HETATM   11  H   UNL     1      44.472 -16.412   6.459  1.00  0.00     0.162 HD
HETATM   12  O   UNL     1      41.773 -16.556   4.780  1.00  0.00    -0.273 OA
BRANCH  10  13
HETATM   13  C   UNL     1      43.646 -18.318   5.994  1.00  0.00     0.127 C 
BRANCH  13  14
HETATM   14  C   UNL     1      44.857 -18.914   5.275  1.00  0.00     0.058 C 
BRANCH  14  15
HETATM   15  C   UNL     1      44.459 -19.760   4.093  1.00  0.00    -0.057 A 
HETATM   16  C   UNL     1      44.815 -21.113   4.036  1.00  0.00     0.007 A 
HETATM   17  C   UNL     1      44.453 -21.892   2.936  1.00  0.00     0.001 A 
HETATM   18  C   UNL     1      43.739 -21.325   1.882  1.00  0.00     0.000 A 
HETATM   19  C   UNL     1      43.387 -19.977   1.926  1.00  0.00     0.001 A 
HETATM   20  C   UNL     1      43.747 -19.197   3.026  1.00  0.00     0.007 A 
ENDBRANCH  14  15
ENDBRANCH  13  14
ENDBRANCH  10  13
ENDBRANCH   8   9
ENDBRANCH   7   8
ENDBRANCH   3   7
BRANCH   6  21
HETATM   21  C   UNL     1      40.743 -14.332  -0.232  1.00  0.00     0.125 A 
HETATM   22  O   UNL     1      39.645 -13.716  -0.775  1.00  0.00    -0.303 OA
HETATM   23  C   UNL     1      39.338 -14.350  -1.944  1.00  0.00     0.119 A 
HETATM   24  C   UNL     1      40.245 -15.377  -2.175  1.00  0.00     0.003 A 
HETATM   25  C   UNL     1      38.269 -14.029  -2.790  1.00  0.00     0.102 A 
HETATM   26  C   UNL     1      41.136 -15.360  -1.072  1.00  0.00     0.055 A 
HETATM   27  C   UNL     1      40.109 -16.150  -3.338  1.00  0.00     0.014 A 
HETATM   28  C   UNL     1      39.058 -15.855  -4.216  1.00  0.00     0.004 A 
HETATM   29  C   UNL     1      38.158 -14.816  -3.946  1.00  0.00     0.040 A 
BRANCH  25  30
HETATM   30  O   UNL     1      37.447 -12.998  -2.435  1.00  0.00    -0.353 OA
HETATM   31  C   UNL     1      36.758 -12.338  -3.489  1.00  0.00     0.210 C 
ENDBRANCH  25  30
ENDBRANCH   6  21
TORSDOF 8
ENDMDL
MODEL 7
REMARK VINA RESULT:      -8.0      5.099      9.527
REMARK  8 active torsions:
REMARK  status: ('A' for Active; 'I' for Inactive)
REMARK    1  A    between atoms: C_3  and  S_4 
REMARK    2  A    between atoms: S_4  and  C_5 
REMARK    3  A    between atoms: C_5  and  C_6 
REMARK       I    between atoms: C_6  and  N_7 
REMARK    4  A    between atoms: N_7  and  C_8 
REMARK    5  A    between atoms: C_8  and  C_9 
REMARK    6  A    between atoms: C_9  and  C_10 
REMARK    7  A    between atoms: C_19  and  C_20 
REMARK    8  A    between atoms: C_25  and  O_26 
ROOT
HETATM    1  C   UNL     1      41.118 -16.001   4.375  1.00  0.00     0.160 C 
HETATM    2  N   UNL     1      42.113 -15.353   5.188  1.00  0.00    -0.310 N 
HETATM    3  C   UNL     1      42.244 -14.024   5.484  1.00  0.00     0.191 A 
HETATM    4  N   UNL     1      43.274 -13.843   6.279  1.00  0.00    -0.122 NA
HETATM    5  N   UNL     1      43.861 -15.062   6.488  1.00  0.00    -0.126 NA
HETATM    6  C   UNL     1      43.157 -15.971   5.840  1.00  0.00     0.188 A 
ENDROOT
BRANCH   3   7
HETATM    7  S   UNL     1      41.221 -12.771   4.875  1.00  0.00    -0.081 SA
BRANCH   7   8
HETATM    8  C   UNL     1      39.936 -12.697   6.155  1.00  0.00     0.185 C 
BRANCH   8   9
HETATM    9  C   UNL     1      40.103 -11.496   7.071  1.00  0.00     0.227 C 
HETATM   10  N   UNL     1      41.306 -11.434   7.736  1.00  0.00    -0.360 N 
HETATM   11  H   UNL     1      42.017 -12.134   7.527  1.00  0.00     0.162 HD
HETATM   12  O   UNL     1      39.203 -10.677   7.241  1.00  0.00    -0.273 OA
BRANCH  10  13
HETATM   13  C   UNL     1      41.603 -10.438   8.745  1.00  0.00     0.127 C 
BRANCH  13  14
HETATM   14  C   UNL     1      42.869 -10.802   9.524  1.00  0.00     0.058 C 
BRANCH  14  15
HETATM   15  C   UNL     1      42.695 -10.621  11.010  1.00  0.00    -0.057 A 
HETATM   16  C   UNL     1      43.642  -9.905  11.754  1.00  0.00     0.007 A 
HETATM   17  C   UNL     1      43.484  -9.746  13.131  1.00  0.00     0.001 A 
HETATM   18  C   UNL     1      42.383 -10.306  13.778  1.00  0.00     0.000 A 
HETATM   19  C   UNL     1      41.439 -11.027  13.047  1.00  0.00     0.001 A 
HETATM   20  C   UNL     1      41.595 -11.185  11.670  1.00  0.00     0.007 A 
ENDBRANCH  14  15
ENDBRANCH  13  14
ENDBRANCH  10  13
ENDBRANCH   8   9
ENDBRANCH   7   8
ENDBRANCH   3   7
BRANCH   6  21
HETATM   21  C   UNL     1      43.464 -17.368   5.837  1.00  0.00     0.125 A 
HETATM   22  O   UNL     1      43.898 -18.047   4.728  1.00  0.00    -0.303 OA
HETATM   23  C   UNL     1      44.077 -19.354   5.075  1.00  0.00     0.119 A 
HETATM   24  C   UNL     1      43.772 -19.531   6.418  1.00  0.00     0.003 A 
HETATM   25  C   UNL     1      44.498 -20.376   4.214  1.00  0.00     0.102 A 
HETATM   26  C   UNL     1      43.376 -18.256   6.895  1.00  0.00     0.055 A 
HETATM   27  C   UNL     1      43.902 -20.812   6.978  1.00  0.00     0.014 A 
HETATM   28  C   UNL     1      44.330 -21.860   6.154  1.00  0.00     0.004 A 
HETATM   29  C   UNL     1      44.621 -21.645   4.800  1.00  0.00     0.040 A 
BRANCH  25  30
HETATM   30  O   UNL     1      44.755 -20.062   2.910  1.00  0.00    -0.353 OA
HETATM   31  C   UNL     1      44.349 -21.011   1.932  1.00  0.00     0.210 C 
ENDBRANCH  25  30
ENDBRANCH   6  21
TORSDOF 8
ENDMDL
MODEL 8
REMARK VINA RESULT:      -7.9      1.472      2.011
REMARK  8 active torsions:
REMARK  status: ('A' for Active; 'I' for Inactive)
REMARK    1  A    between atoms: C_3  and  S_4 
REMARK    2  A    between atoms: S_4  and  C_5 
REMARK    3  A    between atoms: C_5  and  C_6 
REMARK       I    between atoms: C_6  and  N_7 
REMARK    4  A    between atoms: N_7  and  C_8 
REMARK    5  A    between atoms: C_8  and  C_9 
REMARK    6  A    between atoms: C_9  and  C_10 
REMARK    7  A    between atoms: C_19  and  C_20 
REMARK    8  A    between atoms: C_25  and  O_26 
ROOT
HETATM    1  C   UNL     1      41.022 -13.426   3.259  1.00  0.00     0.160 C 
HETATM    2  N   UNL     1      41.042 -14.841   2.993  1.00  0.00    -0.310 N 
HETATM    3  C   UNL     1      40.974 -15.880   3.879  1.00  0.00     0.191 A 
HETATM    4  N   UNL     1      41.002 -17.022   3.230  1.00  0.00    -0.122 NA
HETATM    5  N   UNL     1      41.126 -16.743   1.896  1.00  0.00    -0.126 NA
HETATM    6  C   UNL     1      41.141 -15.431   1.752  1.00  0.00     0.188 A 
ENDROOT
BRANCH   3   7
HETATM    7  S   UNL     1      40.895 -15.709   5.597  1.00  0.00    -0.081 SA
BRANCH   7   8
HETATM    8  C   UNL     1      42.603 -15.239   5.994  1.00  0.00     0.185 C 
BRANCH   8   9
HETATM    9  C   UNL     1      43.481 -16.446   6.278  1.00  0.00     0.227 C 
HETATM   10  N   UNL     1      42.984 -17.647   5.829  1.00  0.00    -0.360 N 
HETATM   11  H   UNL     1      42.120 -17.647   5.286  1.00  0.00     0.162 HD
HETATM   12  O   UNL     1      44.529 -16.354   6.914  1.00  0.00    -0.273 OA
BRANCH  10  13
HETATM   13  C   UNL     1      43.611 -18.922   6.114  1.00  0.00     0.127 C 
BRANCH  13  14
HETATM   14  C   UNL     1      44.812 -19.163   5.198  1.00  0.00     0.058 C 
BRANCH  14  15
HETATM   15  C   UNL     1      44.462 -20.026   4.013  1.00  0.00    -0.057 A 
HETATM   16  C   UNL     1      43.801 -19.478   2.906  1.00  0.00     0.007 A 
HETATM   17  C   UNL     1      43.470 -20.281   1.814  1.00  0.00     0.001 A 
HETATM   18  C   UNL     1      43.788 -21.638   1.821  1.00  0.00     0.000 A 
HETATM   19  C   UNL     1      44.438 -22.195   2.922  1.00  0.00     0.001 A 
HETATM   20  C   UNL     1      44.772 -21.393   4.014  1.00  0.00     0.007 A 
ENDBRANCH  14  15
ENDBRANCH  13  14
ENDBRANCH  10  13
ENDBRANCH   8   9
ENDBRANCH   7   8
ENDBRANCH   3   7
BRANCH   6  21
HETATM   21  C   UNL     1      41.247 -14.766   0.491  1.00  0.00     0.125 A 
HETATM   22  O   UNL     1      40.374 -14.963  -0.547  1.00  0.00    -0.303 OA
HETATM   23  C   UNL     1      40.779 -14.188  -1.595  1.00  0.00     0.119 A 
HETATM   24  C   UNL     1      41.913 -13.470  -1.239  1.00  0.00     0.003 A 
HETATM   25  C   UNL     1      40.157 -14.123  -2.848  1.00  0.00     0.102 A 
HETATM   26  C   UNL     1      42.207 -13.850   0.095  1.00  0.00     0.055 A 
HETATM   27  C   UNL     1      42.485 -12.600  -2.180  1.00  0.00     0.014 A 
HETATM   28  C   UNL     1      41.889 -12.498  -3.442  1.00  0.00     0.004 A 
HETATM   29  C   UNL     1      40.749 -13.244  -3.769  1.00  0.00     0.040 A 
BRANCH  25  30
HETATM   30  O   UNL     1      39.050 -14.892  -3.066  1.00  0.00    -0.353 OA
HETATM   31  C   UNL     1      39.222 -16.043  -3.883  1.00  0.00     0.210 C 
ENDBRANCH  25  30
ENDBRANCH   6  21
TORSDOF 8
ENDMDL
MODEL 9
REMARK VINA RESULT:      -7.9      1.895      2.785
REMARK  8 active torsions:
REMARK  status: ('A' for Active; 'I' for Inactive)
REMARK    1  A    between atoms: C_3  and  S_4 
REMARK    2  A    between atoms: S_4  and  C_5 
REMARK    3  A    between atoms: C_5  and  C_6 
REMARK       I    between atoms: C_6  and  N_7 
REMARK    4  A    between atoms: N_7  and  C_8 
REMARK    5  A    between atoms: C_8  and  C_9 
REMARK    6  A    between atoms: C_9  and  C_10 
REMARK    7  A    between atoms: C_19  and  C_20 
REMARK    8  A    between atoms: C_25  and  O_26 
ROOT
HETATM    1  C   UNL     1      39.882 -12.189   2.783  1.00  0.00     0.160 C 
HETATM    2  N   UNL     1      41.205 -12.697   3.036  1.00  0.00    -0.310 N 
HETATM    3  C   UNL     1      41.796 -12.987   4.234  1.00  0.00     0.191 A 
HETATM    4  N   UNL     1      43.008 -13.450   4.032  1.00  0.00    -0.122 NA
HETATM    5  N   UNL     1      43.244 -13.435   2.683  1.00  0.00    -0.126 NA
HETATM    6  C   UNL     1      42.155 -12.991   2.083  1.00  0.00     0.188 A 
ENDROOT
BRANCH   3   7
HETATM    7  S   UNL     1      41.063 -12.750   5.781  1.00  0.00    -0.081 SA
BRANCH   7   8
HETATM    8  C   UNL     1      39.969 -14.196   5.890  1.00  0.00     0.185 C 
BRANCH   8   9
HETATM    9  C   UNL     1      40.715 -15.500   5.663  1.00  0.00     0.227 C 
HETATM   10  N   UNL     1      40.678 -15.976   4.373  1.00  0.00    -0.360 N 
HETATM   11  H   UNL     1      40.229 -15.407   3.654  1.00  0.00     0.162 HD
HETATM   12  O   UNL     1      41.260 -16.106   6.583  1.00  0.00    -0.273 OA
BRANCH  10  13
HETATM   13  C   UNL     1      41.219 -17.263   3.986  1.00  0.00     0.127 C 
BRANCH  13  14
HETATM   14  C   UNL     1      42.677 -17.138   3.542  1.00  0.00     0.058 C 
BRANCH  14  15
HETATM   15  C   UNL     1      43.309 -18.480   3.275  1.00  0.00    -0.057 A 
HETATM   16  C   UNL     1      42.993 -19.196   2.113  1.00  0.00     0.007 A 
HETATM   17  C   UNL     1      43.571 -20.442   1.872  1.00  0.00     0.001 A 
HETATM   18  C   UNL     1      44.464 -20.988   2.792  1.00  0.00     0.000 A 
HETATM   19  C   UNL     1      44.779 -20.288   3.956  1.00  0.00     0.001 A 
HETATM   20  C   UNL     1      44.202 -19.040   4.197  1.00  0.00     0.007 A 
ENDBRANCH  14  15
ENDBRANCH  13  14
ENDBRANCH  10  13
ENDBRANCH   8   9
ENDBRANCH   7   8
ENDBRANCH   3   7
BRANCH   6  21
HETATM   21  C   UNL     1      42.024 -12.848   0.667  1.00  0.00     0.125 A 
HETATM   22  O   UNL     1      41.408 -13.773  -0.135  1.00  0.00    -0.303 OA
HETATM   23  C   UNL     1      41.477 -13.330  -1.424  1.00  0.00     0.119 A 
HETATM   24  C   UNL     1      42.130 -12.105  -1.466  1.00  0.00     0.003 A 
HETATM   25  C   UNL     1      40.977 -14.003  -2.545  1.00  0.00     0.102 A 
HETATM   26  C   UNL     1      42.480 -11.808  -0.125  1.00  0.00     0.055 A 
HETATM   27  C   UNL     1      42.298 -11.471  -2.707  1.00  0.00     0.014 A 
HETATM   28  C   UNL     1      41.802 -12.106  -3.853  1.00  0.00     0.004 A 
HETATM   29  C   UNL     1      41.156 -13.346  -3.773  1.00  0.00     0.040 A 
BRANCH  25  30
HETATM   30  O   UNL     1      40.363 -15.209  -2.359  1.00  0.00    -0.353 OA
HETATM   31  C   UNL     1      39.880 -15.867  -3.524  1.00  0.00     0.210 C 
ENDBRANCH  25  30
ENDBRANCH   6  21
TORSDOF 8
ENDMDL
MODEL 10
REMARK VINA RESULT:      -7.9      2.160      8.185
REMARK  8 active torsions:
REMARK  status: ('A' for Active; 'I' for Inactive)
REMARK    1  A    between atoms: C_3  and  S_4 
REMARK    2  A    between atoms: S_4  and  C_5 
REMARK    3  A    between atoms: C_5  and  C_6 
REMARK       I    between atoms: C_6  and  N_7 
REMARK    4  A    between atoms: N_7  and  C_8 
REMARK    5  A    between atoms: C_8  and  C_9 
REMARK    6  A    between atoms: C_9  and  C_10 
REMARK    7  A    between atoms: C_19  and  C_20 
REMARK    8  A    between atoms: C_25  and  O_26 
ROOT
HETATM    1  C   UNL     1      43.363 -14.293   3.106  1.00  0.00     0.160 C 
HETATM    2  N   UNL     1      41.979 -14.617   2.881  1.00  0.00    -0.310 N 
HETATM    3  C   UNL     1      40.910 -13.771   2.764  1.00  0.00     0.191 A 
HETATM    4  N   UNL     1      39.817 -14.463   2.542  1.00  0.00    -0.122 NA
HETATM    5  N   UNL     1      40.152 -15.791   2.547  1.00  0.00    -0.126 NA
HETATM    6  C   UNL     1      41.455 -15.882   2.741  1.00  0.00     0.188 A 
ENDROOT
BRANCH   3   7
HETATM    7  S   UNL     1      40.990 -12.051   2.917  1.00  0.00    -0.081 SA
BRANCH   7   8
HETATM    8  C   UNL     1      40.599 -11.519   1.225  1.00  0.00     0.185 C 
BRANCH   8   9
HETATM    9  C   UNL     1      41.637 -11.989   0.219  1.00  0.00     0.227 C 
HETATM   10  N   UNL     1      41.145 -12.763  -0.806  1.00  0.00    -0.360 N 
HETATM   11  H   UNL     1      40.138 -12.909  -0.869  1.00  0.00     0.162 HD
HETATM   12  O   UNL     1      42.833 -11.739   0.353  1.00  0.00    -0.273 OA
BRANCH  10  13
HETATM   13  C   UNL     1      41.992 -13.408  -1.789  1.00  0.00     0.127 C 
BRANCH  13  14
HETATM   14  C   UNL     1      41.444 -13.213  -3.203  1.00  0.00     0.058 C 
BRANCH  14  15
HETATM   15  C   UNL     1      40.176 -13.994  -3.436  1.00  0.00    -0.057 A 
HETATM   16  C   UNL     1      38.928 -13.360  -3.370  1.00  0.00     0.007 A 
HETATM   17  C   UNL     1      37.755 -14.087  -3.577  1.00  0.00     0.001 A 
HETATM   18  C   UNL     1      37.818 -15.453  -3.844  1.00  0.00     0.000 A 
HETATM   19  C   UNL     1      39.054 -16.095  -3.904  1.00  0.00     0.001 A 
HETATM   20  C   UNL     1      40.228 -15.369  -3.699  1.00  0.00     0.007 A 
ENDBRANCH  14  15
ENDBRANCH  13  14
ENDBRANCH  10  13
ENDBRANCH   8   9
ENDBRANCH   7   8
ENDBRANCH   3   7
BRANCH   6  21
HETATM   21  C   UNL     1      42.170 -17.119   2.795  1.00  0.00     0.125 A 
HETATM   22  O   UNL     1      42.763 -17.604   3.932  1.00  0.00    -0.303 OA
HETATM   23  C   UNL     1      43.367 -18.787   3.623  1.00  0.00     0.119 A 
HETATM   24  C   UNL     1      43.159 -19.087   2.282  1.00  0.00     0.003 A 
HETATM   25  C   UNL     1      44.097 -19.587   4.512  1.00  0.00     0.102 A 
HETATM   26  C   UNL     1      42.397 -18.011   1.761  1.00  0.00     0.055 A 
HETATM   27  C   UNL     1      43.696 -20.276   1.764  1.00  0.00     0.014 A 
HETATM   28  C   UNL     1      44.423 -21.109   2.622  1.00  0.00     0.004 A 
HETATM   29  C   UNL     1      44.620 -20.771   3.968  1.00  0.00     0.040 A 
BRANCH  25  30
HETATM   30  O   UNL     1      44.230 -19.167   5.804  1.00  0.00    -0.353 OA
HETATM   31  C   UNL     1      43.914 -20.111   6.819  1.00  0.00     0.210 C 
ENDBRANCH  25  30
ENDBRANCH   6  21
TORSDOF 8
ENDMDL
