MODEL 1
REMARK VINA RESULT:      -8.4      0.000      0.000
REMARK  6 active torsions:
REMARK  status: ('A' for Active; 'I' for Inactive)
REMARK    1  A    between atoms: C_2  and  C_3 
REMARK       I    between atoms: C_3  and  N_4 
REMARK    2  A    between atoms: N_4  and  C_5 
REMARK    3  A    between atoms: C_8  and  N_9 
REMARK       I    between atoms: N_9  and  C_10 
REMARK    4  A    between atoms: C_10  and  C_11 
REMARK    5  A    between atoms: C_16  and  C_17 
REMARK    6  A    between atoms: C_23  and  C_24 
ROOT
HETATM    1  C   UNL     1      40.917 -15.297   0.956  1.00  0.00     0.148 A 
HETATM    2  N   UNL     1      42.011 -16.084   1.074  1.00  0.00    -0.165 NA
HETATM    3  N   UNL     1      41.984 -16.480   2.362  1.00  0.00    -0.240 N 
HETATM    4  C   UNL     1      40.934 -15.959   3.073  1.00  0.00     0.123 A 
HETATM    5  N   UNL     1      40.761 -16.229   4.385  1.00  0.00    -0.364 N 
HETATM    6  C   UNL     1      41.851 -16.810   5.174  1.00  0.00     0.143 C 
HETATM    7  C   UNL     1      42.605 -17.836   4.316  1.00  0.00     0.068 C 
HETATM    8  C   UNL     1      43.064 -17.240   2.970  1.00  0.00     0.221 C 
HETATM    9  C   UNL     1      40.221 -15.193   2.190  1.00  0.00     0.089 A 
HETATM   10  H   UNL     1      40.097 -15.679   4.930  1.00  0.00     0.162 HD
ENDROOT
BRANCH   1  11
HETATM   11  C   UNL     1      40.542 -14.651  -0.314  1.00  0.00     0.276 C 
HETATM   12  N   UNL     1      39.171 -14.592  -0.486  1.00  0.00    -0.322 N 
HETATM   13  H   UNL     1      38.646 -14.967   0.301  1.00  0.00     0.169 HD
HETATM   14  O   UNL     1      41.395 -14.209  -1.077  1.00  0.00    -0.266 OA
BRANCH  12  15
HETATM   15  C   UNL     1      38.457 -14.047  -1.567  1.00  0.00     0.035 A 
HETATM   16  C   UNL     1      37.886 -12.776  -1.557  1.00  0.00     0.032 A 
HETATM   17  C   UNL     1      37.193 -12.292  -2.677  1.00  0.00     0.032 A 
HETATM   18  C   UNL     1      37.056 -13.072  -3.823  1.00  0.00     0.034 A 
HETATM   19  C   UNL     1      37.628 -14.351  -3.832  1.00  0.00     0.032 A 
HETATM   20  C   UNL     1      38.326 -14.831  -2.716  1.00  0.00     0.032 A 
BRANCH  18  21
HETATM   21  N   UNL     1      36.383 -12.654  -4.991  1.00  0.00    -0.327 N 
HETATM   22  C   UNL     1      35.189 -13.138  -5.492  1.00  0.00     0.221 C 
HETATM   23  O   UNL     1      34.499 -14.027  -5.004  1.00  0.00    -0.273 OA
HETATM   24  H   UNL     1      36.836 -11.920  -5.517  1.00  0.00     0.169 HD
BRANCH  22  25
HETATM   25  C   UNL     1      34.720 -12.413  -6.745  1.00  0.00     0.098 C 
HETATM   26  C   UNL     1      33.350 -11.775  -6.602  1.00  0.00     0.014 C 
ENDBRANCH  22  25
ENDBRANCH  18  21
ENDBRANCH  12  15
ENDBRANCH   1  11
BRANCH   8  27
HETATM   27  C   UNL     1      43.563 -18.346   2.067  1.00  0.00     0.409 C 
HETATM   28  F   UNL     1      42.572 -19.169   1.658  1.00  0.00    -0.169 F 
HETATM   29  F   UNL     1      44.212 -17.892   0.973  1.00  0.00    -0.169 F 
HETATM   30  F   UNL     1      44.457 -19.121   2.739  1.00  0.00    -0.169 F 
ENDBRANCH   8  27
BRANCH   6  31
HETATM   31  C   UNL     1      42.779 -15.811   5.792  1.00  0.00     0.075 A 
HETATM   32  O   UNL     1      42.442 -14.497   5.635  1.00  0.00    -0.325 OA
HETATM   33  C   UNL     1      43.411 -13.761   6.235  1.00  0.00     0.142 A 
HETATM   34  C   UNL     1      44.367 -14.581   6.786  1.00  0.00     0.027 A 
HETATM   35  C   UNL     1      43.960 -15.907   6.502  1.00  0.00     0.037 A 
ENDBRANCH   6  31
TORSDOF 6
ENDMDL
MODEL 2
REMARK VINA RESULT:      -8.2      2.493      3.783
REMARK  6 active torsions:
REMARK  status: ('A' for Active; 'I' for Inactive)
REMARK    1  A    between atoms: C_2  and  C_3 
REMARK       I    between atoms: C_3  and  N_4 
REMARK    2  A    between atoms: N_4  and  C_5 
REMARK    3  A    between atoms: C_8  and  N_9 
REMARK       I    between atoms: N_9  and  C_10 
REMARK    4  A    between atoms: C_10  and  C_11 
REMARK    5  A    between atoms: C_16  and  C_17 
REMARK    6  A    between atoms: C_23  and  C_24 
ROOT
HETATM    1  C   UNL     1      40.843 -15.891   1.633  1.00  0.00     0.148 A 
HETATM    2  N   UNL     1      40.681 -16.440   2.858  1.00  0.00    -0.165 NA
HETATM    3  N   UNL     1      41.885 -16.982   3.128  1.00  0.00    -0.240 N 
HETATM    4  C   UNL     1      42.796 -16.822   2.117  1.00  0.00     0.123 A 
HETATM    5  N   UNL     1      44.049 -17.321   2.203  1.00  0.00    -0.364 N 
HETATM    6  C   UNL     1      44.380 -18.325   3.219  1.00  0.00     0.143 C 
HETATM    7  C   UNL     1      43.643 -17.986   4.523  1.00  0.00     0.068 C 
HETATM    8  C   UNL     1      42.128 -17.806   4.301  1.00  0.00     0.221 C 
HETATM    9  C   UNL     1      42.155 -16.114   1.136  1.00  0.00     0.089 A 
HETATM   10  H   UNL     1      44.635 -17.360   1.370  1.00  0.00     0.162 HD
ENDROOT
BRANCH   1  11
HETATM   11  C   UNL     1      39.761 -15.165   0.944  1.00  0.00     0.276 C 
HETATM   12  N   UNL     1      40.015 -15.007  -0.407  1.00  0.00    -0.322 N 
HETATM   13  H   UNL     1      40.882 -15.445  -0.711  1.00  0.00     0.169 HD
HETATM   14  O   UNL     1      38.760 -14.794   1.549  1.00  0.00    -0.266 OA
BRANCH  12  15
HETATM   15  C   UNL     1      39.212 -14.373  -1.369  1.00  0.00     0.035 A 
HETATM   16  C   UNL     1      38.448 -13.235  -1.115  1.00  0.00     0.032 A 
HETATM   17  C   UNL     1      37.674 -12.648  -2.127  1.00  0.00     0.032 A 
HETATM   18  C   UNL     1      37.648 -13.191  -3.410  1.00  0.00     0.034 A 
HETATM   19  C   UNL     1      38.413 -14.336  -3.665  1.00  0.00     0.032 A 
HETATM   20  C   UNL     1      39.191 -14.918  -2.656  1.00  0.00     0.032 A 
BRANCH  18  21
HETATM   21  N   UNL     1      36.904 -12.655  -4.482  1.00  0.00    -0.327 N 
HETATM   22  C   UNL     1      35.891 -13.271  -5.194  1.00  0.00     0.221 C 
HETATM   23  O   UNL     1      35.458 -14.405  -5.015  1.00  0.00    -0.273 OA
HETATM   24  H   UNL     1      37.150 -11.715  -4.758  1.00  0.00     0.169 HD
BRANCH  22  25
HETATM   25  C   UNL     1      35.262 -12.375  -6.250  1.00  0.00     0.098 C 
HETATM   26  C   UNL     1      35.155 -13.027  -7.617  1.00  0.00     0.014 C 
ENDBRANCH  22  25
ENDBRANCH  18  21
ENDBRANCH  12  15
ENDBRANCH   1  11
BRANCH   8  27
HETATM   27  C   UNL     1      41.496 -17.225   5.547  1.00  0.00     0.409 C 
HETATM   28  F   UNL     1      41.527 -15.874   5.563  1.00  0.00    -0.169 F 
HETATM   29  F   UNL     1      40.218 -17.619   5.733  1.00  0.00    -0.169 F 
HETATM   30  F   UNL     1      42.181 -17.641   6.647  1.00  0.00    -0.169 F 
ENDBRANCH   8  27
BRANCH   6  31
HETATM   31  C   UNL     1      44.148 -19.742   2.799  1.00  0.00     0.075 A 
HETATM   32  O   UNL     1      44.838 -20.696   3.490  1.00  0.00    -0.325 OA
HETATM   33  C   UNL     1      44.515 -21.897   2.946  1.00  0.00     0.142 A 
HETATM   34  C   UNL     1      43.617 -21.733   1.917  1.00  0.00     0.027 A 
HETATM   35  C   UNL     1      43.377 -20.341   1.821  1.00  0.00     0.037 A 
ENDBRANCH   6  31
TORSDOF 6
ENDMDL
MODEL 3
REMARK VINA RESULT:      -8.1      4.339     11.130
REMARK  6 active torsions:
REMARK  status: ('A' for Active; 'I' for Inactive)
REMARK    1  A    between atoms: C_2  and  C_3 
REMARK       I    between atoms: C_3  and  N_4 
REMARK    2  A    between atoms: N_4  and  C_5 
REMARK    3  A    between atoms: C_8  and  N_9 
REMARK       I    between atoms: N_9  and  C_10 
REMARK    4  A    between atoms: C_10  and  C_11 
REMARK    5  A    between atoms: C_16  and  C_17 
REMARK    6  A    between atoms: C_23  and  C_24 
ROOT
HETATM    1  C   UNL     1      43.280 -14.320   5.126  1.00  0.00     0.148 A 
HETATM    2  N   UNL     1      42.880 -15.574   4.818  1.00  0.00    -0.165 NA
HETATM    3  N   UNL     1      42.594 -15.505   3.503  1.00  0.00    -0.240 N 
HETATM    4  C   UNL     1      42.772 -14.256   2.969  1.00  0.00     0.123 A 
HETATM    5  N   UNL     1      42.511 -13.995   1.669  1.00  0.00    -0.364 N 
HETATM    6  C   UNL     1      41.725 -14.935   0.866  1.00  0.00     0.143 C 
HETATM    7  C   UNL     1      42.103 -16.372   1.255  1.00  0.00     0.068 C 
HETATM    8  C   UNL     1      41.989 -16.609   2.775  1.00  0.00     0.221 C 
HETATM    9  C   UNL     1      43.221 -13.465   3.992  1.00  0.00     0.089 A 
HETATM   10  H   UNL     1      42.462 -13.028   1.348  1.00  0.00     0.162 HD
ENDROOT
BRANCH   1  11
HETATM   11  C   UNL     1      43.710 -13.938   6.483  1.00  0.00     0.276 C 
HETATM   12  N   UNL     1      43.180 -12.724   6.879  1.00  0.00    -0.322 N 
HETATM   13  H   UNL     1      42.555 -12.310   6.190  1.00  0.00     0.169 HD
HETATM   14  O   UNL     1      44.434 -14.672   7.149  1.00  0.00    -0.266 OA
BRANCH  12  15
HETATM   15  C   UNL     1      43.369 -12.053   8.098  1.00  0.00     0.035 A 
HETATM   16  C   UNL     1      44.454 -12.275   8.945  1.00  0.00     0.032 A 
HETATM   17  C   UNL     1      44.585 -11.563  10.147  1.00  0.00     0.032 A 
HETATM   18  C   UNL     1      43.631 -10.619  10.524  1.00  0.00     0.034 A 
HETATM   19  C   UNL     1      42.540 -10.398   9.674  1.00  0.00     0.032 A 
HETATM   20  C   UNL     1      42.413 -11.105   8.471  1.00  0.00     0.032 A 
BRANCH  18  21
HETATM   21  N   UNL     1      43.696  -9.856  11.709  1.00  0.00    -0.327 N 
HETATM   22  C   UNL     1      43.102 -10.140  12.925  1.00  0.00     0.221 C 
HETATM   23  O   UNL     1      42.405 -11.115  13.188  1.00  0.00    -0.273 OA
HETATM   24  H   UNL     1      44.236  -9.004  11.651  1.00  0.00     0.169 HD
BRANCH  22  25
HETATM   25  C   UNL     1      43.433  -9.127  14.011  1.00  0.00     0.098 C 
HETATM   26  C   UNL     1      42.491  -9.180  15.201  1.00  0.00     0.014 C 
ENDBRANCH  22  25
ENDBRANCH  18  21
ENDBRANCH  12  15
ENDBRANCH   1  11
BRANCH   8  27
HETATM   27  C   UNL     1      42.613 -17.940   3.131  1.00  0.00     0.409 C 
HETATM   28  F   UNL     1      43.953 -17.858   3.288  1.00  0.00    -0.169 F 
HETATM   29  F   UNL     1      42.092 -18.494   4.246  1.00  0.00    -0.169 F 
HETATM   30  F   UNL     1      42.394 -18.834   2.129  1.00  0.00    -0.169 F 
ENDBRANCH   8  27
BRANCH   6  31
HETATM   31  C   UNL     1      40.245 -14.716   0.914  1.00  0.00     0.075 A 
HETATM   32  O   UNL     1      39.721 -13.928  -0.071  1.00  0.00    -0.325 OA
HETATM   33  C   UNL     1      38.387 -13.830   0.163  1.00  0.00     0.142 A 
HETATM   34  C   UNL     1      38.041 -14.552   1.280  1.00  0.00     0.027 A 
HETATM   35  C   UNL     1      39.239 -15.126   1.767  1.00  0.00     0.037 A 
ENDBRANCH   6  31
TORSDOF 6
ENDMDL
MODEL 4
REMARK VINA RESULT:      -8.0      8.482     10.745
REMARK  6 active torsions:
REMARK  status: ('A' for Active; 'I' for Inactive)
REMARK    1  A    between atoms: C_2  and  C_3 
REMARK       I    between atoms: C_3  and  N_4 
REMARK    2  A    between atoms: N_4  and  C_5 
REMARK    3  A    between atoms: C_8  and  N_9 
REMARK       I    between atoms: N_9  and  C_10 
REMARK    4  A    between atoms: C_10  and  C_11 
REMARK    5  A    between atoms: C_16  and  C_17 
REMARK    6  A    between atoms: C_23  and  C_24 
ROOT
HETATM    1  C   UNL     1      44.008 -12.853   7.667  1.00  0.00     0.148 A 
HETATM    2  N   UNL     1      42.818 -12.310   7.325  1.00  0.00    -0.165 NA
HETATM    3  N   UNL     1      42.639 -11.331   8.233  1.00  0.00    -0.240 N 
HETATM    4  C   UNL     1      43.652 -11.246   9.152  1.00  0.00     0.123 A 
HETATM    5  N   UNL     1      43.629 -10.336  10.151  1.00  0.00    -0.364 N 
HETATM    6  C   UNL     1      42.387  -9.636  10.491  1.00  0.00     0.143 C 
HETATM    7  C   UNL     1      41.620  -9.314   9.200  1.00  0.00     0.068 C 
HETATM    8  C   UNL     1      41.406 -10.566   8.326  1.00  0.00     0.221 C 
HETATM    9  C   UNL     1      44.558 -12.214   8.811  1.00  0.00     0.089 A 
HETATM   10  H   UNL     1      44.287 -10.422  10.927  1.00  0.00     0.162 HD
ENDROOT
BRANCH   1  11
HETATM   11  C   UNL     1      44.613 -13.969   6.918  1.00  0.00     0.276 C 
HETATM   12  N   UNL     1      43.755 -15.047   6.799  1.00  0.00    -0.322 N 
HETATM   13  H   UNL     1      42.839 -14.884   7.212  1.00  0.00     0.169 HD
HETATM   14  O   UNL     1      45.745 -13.879   6.452  1.00  0.00    -0.266 OA
BRANCH  12  15
HETATM   15  C   UNL     1      43.990 -16.272   6.153  1.00  0.00     0.035 A 
HETATM   16  C   UNL     1      44.829 -17.265   6.656  1.00  0.00     0.032 A 
HETATM   17  C   UNL     1      45.012 -18.471   5.961  1.00  0.00     0.032 A 
HETATM   18  C   UNL     1      44.361 -18.702   4.751  1.00  0.00     0.034 A 
HETATM   19  C   UNL     1      43.519 -17.703   4.245  1.00  0.00     0.032 A 
HETATM   20  C   UNL     1      43.332 -16.502   4.942  1.00  0.00     0.032 A 
BRANCH  18  21
HETATM   21  N   UNL     1      44.484 -19.889   3.999  1.00  0.00    -0.327 N 
HETATM   22  C   UNL     1      44.561 -21.184   4.478  1.00  0.00     0.221 C 
HETATM   23  O   UNL     1      44.537 -21.530   5.655  1.00  0.00    -0.273 OA
HETATM   24  H   UNL     1      44.525 -19.769   2.996  1.00  0.00     0.169 HD
BRANCH  22  25
HETATM   25  C   UNL     1      44.626 -22.233   3.378  1.00  0.00     0.098 C 
HETATM   26  C   UNL     1      44.258 -21.700   2.005  1.00  0.00     0.014 C 
ENDBRANCH  22  25
ENDBRANCH  18  21
ENDBRANCH  12  15
ENDBRANCH   1  11
BRANCH   8  27
HETATM   27  C   UNL     1      40.885 -10.155   6.967  1.00  0.00     0.409 C 
HETATM   28  F   UNL     1      41.842  -9.600   6.190  1.00  0.00    -0.169 F 
HETATM   29  F   UNL     1      40.323 -11.172   6.279  1.00  0.00    -0.169 F 
HETATM   30  F   UNL     1      39.911  -9.217   7.112  1.00  0.00    -0.169 F 
ENDBRANCH   8  27
BRANCH   6  31
HETATM   31  C   UNL     1      41.525 -10.339  11.491  1.00  0.00     0.075 A 
HETATM   32  O   UNL     1      41.928 -10.263  12.794  1.00  0.00    -0.325 OA
HETATM   33  C   UNL     1      41.040 -10.979  13.530  1.00  0.00     0.142 A 
HETATM   34  C   UNL     1      40.063 -11.509  12.722  1.00  0.00     0.027 A 
HETATM   35  C   UNL     1      40.373 -11.097  11.404  1.00  0.00     0.037 A 
ENDBRANCH   6  31
TORSDOF 6
ENDMDL
MODEL 5
REMARK VINA RESULT:      -7.8      2.904      3.448
REMARK  6 active torsions:
REMARK  status: ('A' for Active; 'I' for Inactive)
REMARK    1  A    between atoms: C_2  and  C_3 
REMARK       I    between atoms: C_3  and  N_4 
REMARK    2  A    between atoms: N_4  and  C_5 
REMARK    3  A    between atoms: C_8  and  N_9 
REMARK       I    between atoms: N_9  and  C_10 
REMARK    4  A    between atoms: C_10  and  C_11 
REMARK    5  A    between atoms: C_16  and  C_17 
REMARK    6  A    between atoms: C_23  and  C_24 
ROOT
HETATM    1  C   UNL     1      41.361 -15.791   0.661  1.00  0.00     0.148 A 
HETATM    2  N   UNL     1      42.337 -16.653   1.024  1.00  0.00    -0.165 NA
HETATM    3  N   UNL     1      42.101 -16.873   2.333  1.00  0.00    -0.240 N 
HETATM    4  C   UNL     1      41.032 -16.168   2.821  1.00  0.00     0.123 A 
HETATM    5  N   UNL     1      40.663 -16.247   4.119  1.00  0.00    -0.364 N 
HETATM    6  C   UNL     1      41.572 -16.818   5.117  1.00  0.00     0.143 C 
HETATM    7  C   UNL     1      42.313 -18.014   4.500  1.00  0.00     0.068 C 
HETATM    8  C   UNL     1      43.004 -17.644   3.172  1.00  0.00     0.221 C 
HETATM    9  C   UNL     1      40.527 -15.462   1.764  1.00  0.00     0.089 A 
HETATM   10  H   UNL     1      39.998 -15.572   4.496  1.00  0.00     0.162 HD
ENDROOT
BRANCH   1  11
HETATM   11  C   UNL     1      41.225 -15.284  -0.716  1.00  0.00     0.276 C 
HETATM   12  N   UNL     1      41.397 -13.914  -0.789  1.00  0.00    -0.322 N 
HETATM   13  H   UNL     1      41.624 -13.485   0.105  1.00  0.00     0.169 HD
HETATM   14  O   UNL     1      41.012 -16.047  -1.653  1.00  0.00    -0.266 OA
BRANCH  12  15
HETATM   15  C   UNL     1      41.340 -13.095  -1.929  1.00  0.00     0.035 A 
HETATM   16  C   UNL     1      42.466 -12.625  -2.604  1.00  0.00     0.032 A 
HETATM   17  C   UNL     1      42.335 -11.816  -3.743  1.00  0.00     0.032 A 
HETATM   18  C   UNL     1      41.077 -11.461  -4.224  1.00  0.00     0.034 A 
HETATM   19  C   UNL     1      39.946 -11.931  -3.545  1.00  0.00     0.032 A 
HETATM   20  C   UNL     1      40.076 -12.744  -2.412  1.00  0.00     0.032 A 
BRANCH  18  21
HETATM   21  N   UNL     1      40.862 -10.660  -5.366  1.00  0.00    -0.327 N 
HETATM   22  C   UNL     1      40.755  -9.283  -5.420  1.00  0.00     0.221 C 
HETATM   23  O   UNL     1      40.828  -8.507  -4.472  1.00  0.00    -0.273 OA
HETATM   24  H   UNL     1      40.773 -11.161  -6.240  1.00  0.00     0.169 HD
BRANCH  22  25
HETATM   25  C   UNL     1      40.586  -8.743  -6.832  1.00  0.00     0.098 C 
HETATM   26  C   UNL     1      39.966  -9.740  -7.794  1.00  0.00     0.014 C 
ENDBRANCH  22  25
ENDBRANCH  18  21
ENDBRANCH  12  15
ENDBRANCH   1  11
BRANCH   8  27
HETATM   27  C   UNL     1      43.492 -18.900   2.484  1.00  0.00     0.409 C 
HETATM   28  F   UNL     1      44.437 -18.646   1.552  1.00  0.00    -0.169 F 
HETATM   29  F   UNL     1      43.981 -19.823   3.340  1.00  0.00    -0.169 F 
HETATM   30  F   UNL     1      42.458 -19.500   1.835  1.00  0.00    -0.169 F 
ENDBRANCH   8  27
BRANCH   6  31
HETATM   31  C   UNL     1      42.516 -15.837   5.738  1.00  0.00     0.075 A 
HETATM   32  O   UNL     1      43.468 -16.359   6.567  1.00  0.00    -0.325 OA
HETATM   33  C   UNL     1      44.196 -15.318   7.045  1.00  0.00     0.142 A 
HETATM   34  C   UNL     1      43.734 -14.131   6.529  1.00  0.00     0.027 A 
HETATM   35  C   UNL     1      42.649 -14.463   5.683  1.00  0.00     0.037 A 
ENDBRANCH   6  31
TORSDOF 6
ENDMDL
MODEL 6
REMARK VINA RESULT:      -7.6      4.673     10.250
REMARK  6 active torsions:
REMARK  status: ('A' for Active; 'I' for Inactive)
REMARK    1  A    between atoms: C_2  and  C_3 
REMARK       I    between atoms: C_3  and  N_4 
REMARK    2  A    between atoms: N_4  and  C_5 
REMARK    3  A    between atoms: C_8  and  N_9 
REMARK       I    between atoms: N_9  and  C_10 
REMARK    4  A    between atoms: C_10  and  C_11 
REMARK    5  A    between atoms: C_16  and  C_17 
REMARK    6  A    between atoms: C_23  and  C_24 
ROOT
HETATM    1  C   UNL     1      41.285 -13.998  -0.563  1.00  0.00     0.148 A 
HETATM    2  N   UNL     1      40.198 -13.200  -0.466  1.00  0.00    -0.165 NA
HETATM    3  N   UNL     1      40.133 -12.599  -1.670  1.00  0.00    -0.240 N 
HETATM    4  C   UNL     1      41.146 -12.963  -2.519  1.00  0.00     0.123 A 
HETATM    5  N   UNL     1      41.253 -12.443  -3.761  1.00  0.00    -0.364 N 
HETATM    6  C   UNL     1      40.501 -11.241  -4.130  1.00  0.00     0.143 C 
HETATM    7  C   UNL     1      39.108 -11.299  -3.487  1.00  0.00     0.068 C 
HETATM    8  C   UNL     1      39.182 -11.540  -1.966  1.00  0.00     0.221 C 
HETATM    9  C   UNL     1      41.907 -13.873  -1.834  1.00  0.00     0.089 A 
HETATM   10  H   UNL     1      42.114 -12.578  -4.292  1.00  0.00     0.162 HD
ENDROOT
BRANCH   1  11
HETATM   11  C   UNL     1      41.729 -14.868   0.541  1.00  0.00     0.276 C 
HETATM   12  N   UNL     1      42.219 -16.080   0.090  1.00  0.00    -0.322 N 
HETATM   13  H   UNL     1      42.228 -16.161  -0.925  1.00  0.00     0.169 HD
HETATM   14  O   UNL     1      41.672 -14.491   1.708  1.00  0.00    -0.266 OA
BRANCH  12  15
HETATM   15  C   UNL     1      42.727 -17.146   0.851  1.00  0.00     0.035 A 
HETATM   16  C   UNL     1      44.069 -17.278   1.201  1.00  0.00     0.032 A 
HETATM   17  C   UNL     1      44.507 -18.365   1.972  1.00  0.00     0.032 A 
HETATM   18  C   UNL     1      43.610 -19.341   2.402  1.00  0.00     0.034 A 
HETATM   19  C   UNL     1      42.261 -19.210   2.048  1.00  0.00     0.032 A 
HETATM   20  C   UNL     1      41.824 -18.120   1.284  1.00  0.00     0.032 A 
BRANCH  18  21
HETATM   21  N   UNL     1      43.969 -20.457   3.187  1.00  0.00    -0.327 N 
HETATM   22  C   UNL     1      44.286 -21.729   2.745  1.00  0.00     0.221 C 
HETATM   23  O   UNL     1      44.309 -22.112   1.580  1.00  0.00    -0.273 OA
HETATM   24  H   UNL     1      43.990 -20.302   4.185  1.00  0.00     0.169 HD
BRANCH  22  25
HETATM   25  C   UNL     1      44.688 -22.676   3.865  1.00  0.00     0.098 C 
HETATM   26  C   UNL     1      44.921 -21.983   5.195  1.00  0.00     0.014 C 
ENDBRANCH  22  25
ENDBRANCH  18  21
ENDBRANCH  12  15
ENDBRANCH   1  11
BRANCH   8  27
HETATM   27  C   UNL     1      37.801 -11.845  -1.430  1.00  0.00     0.409 C 
HETATM   28  F   UNL     1      37.446 -13.136  -1.617  1.00  0.00    -0.169 F 
HETATM   29  F   UNL     1      37.659 -11.556  -0.119  1.00  0.00    -0.169 F 
HETATM   30  F   UNL     1      36.877 -11.091  -2.083  1.00  0.00    -0.169 F 
ENDBRANCH   8  27
BRANCH   6  31
HETATM   31  C   UNL     1      41.198  -9.950  -3.835  1.00  0.00     0.075 A 
HETATM   32  O   UNL     1      40.508  -8.810  -4.135  1.00  0.00    -0.325 OA
HETATM   33  C   UNL     1      41.312  -7.762  -3.824  1.00  0.00     0.142 A 
HETATM   34  C   UNL     1      42.510  -8.208  -3.318  1.00  0.00     0.027 A 
HETATM   35  C   UNL     1      42.439  -9.622  -3.323  1.00  0.00     0.037 A 
ENDBRANCH   6  31
TORSDOF 6
ENDMDL
MODEL 7
REMARK VINA RESULT:      -7.6      3.721     10.249
REMARK  6 active torsions:
REMARK  status: ('A' for Active; 'I' for Inactive)
REMARK    1  A    between atoms: C_2  and  C_3 
REMARK       I    between atoms: C_3  and  N_4 
REMARK    2  A    between atoms: N_4  and  C_5 
REMARK    3  A    between atoms: C_8  and  N_9 
REMARK       I    between atoms: N_9  and  C_10 
REMARK    4  A    between atoms: C_10  and  C_11 
REMARK    5  A    between atoms: C_16  and  C_17 
REMARK    6  A    between atoms: C_23  and  C_24 
ROOT
HETATM    1  C   UNL     1      41.088 -13.831   0.099  1.00  0.00     0.148 A 
HETATM    2  N   UNL     1      41.563 -13.573  -1.141  1.00  0.00    -0.165 NA
HETATM    3  N   UNL     1      40.586 -12.844  -1.714  1.00  0.00    -0.240 N 
HETATM    4  C   UNL     1      39.500 -12.648  -0.900  1.00  0.00     0.123 A 
HETATM    5  N   UNL     1      38.415 -11.959  -1.318  1.00  0.00    -0.364 N 
HETATM    6  C   UNL     1      38.215 -11.681  -2.742  1.00  0.00     0.143 C 
HETATM    7  C   UNL     1      39.569 -11.361  -3.391  1.00  0.00     0.068 C 
HETATM    8  C   UNL     1      40.616 -12.460  -3.116  1.00  0.00     0.221 C 
HETATM    9  C   UNL     1      39.795 -13.270   0.283  1.00  0.00     0.089 A 
HETATM   10  H   UNL     1      37.554 -11.996  -0.773  1.00  0.00     0.162 HD
ENDROOT
BRANCH   1  11
HETATM   11  C   UNL     1      41.852 -14.604   1.094  1.00  0.00     0.276 C 
HETATM   12  N   UNL     1      41.877 -15.955   0.802  1.00  0.00    -0.322 N 
HETATM   13  H   UNL     1      41.399 -16.192  -0.065  1.00  0.00     0.169 HD
HETATM   14  O   UNL     1      42.405 -14.049   2.038  1.00  0.00    -0.266 OA
BRANCH  12  15
HETATM   15  C   UNL     1      42.506 -16.984   1.521  1.00  0.00     0.035 A 
HETATM   16  C   UNL     1      43.713 -17.570   1.142  1.00  0.00     0.032 A 
HETATM   17  C   UNL     1      44.291 -18.590   1.913  1.00  0.00     0.032 A 
HETATM   18  C   UNL     1      43.669 -19.044   3.075  1.00  0.00     0.034 A 
HETATM   19  C   UNL     1      42.455 -18.457   3.455  1.00  0.00     0.032 A 
HETATM   20  C   UNL     1      41.883 -17.434   2.688  1.00  0.00     0.032 A 
BRANCH  18  21
HETATM   21  N   UNL     1      44.189 -20.056   3.909  1.00  0.00    -0.327 N 
HETATM   22  C   UNL     1      44.490 -21.360   3.560  1.00  0.00     0.221 C 
HETATM   23  O   UNL     1      44.354 -21.870   2.453  1.00  0.00    -0.273 OA
HETATM   24  H   UNL     1      44.353 -19.790   4.869  1.00  0.00     0.169 HD
BRANCH  22  25
HETATM   25  C   UNL     1      45.096 -22.166   4.699  1.00  0.00     0.098 C 
HETATM   26  C   UNL     1      44.515 -21.828   6.061  1.00  0.00     0.014 C 
ENDBRANCH  22  25
ENDBRANCH  18  21
ENDBRANCH  12  15
ENDBRANCH   1  11
BRANCH   8  27
HETATM   27  C   UNL     1      41.984 -11.980  -3.548  1.00  0.00     0.409 C 
HETATM   28  F   UNL     1      42.923 -12.949  -3.467  1.00  0.00    -0.169 F 
HETATM   29  F   UNL     1      42.004 -11.478  -4.801  1.00  0.00    -0.169 F 
HETATM   30  F   UNL     1      42.396 -10.972  -2.733  1.00  0.00    -0.169 F 
ENDBRANCH   8  27
BRANCH   6  31
HETATM   31  C   UNL     1      37.475 -12.745  -3.491  1.00  0.00     0.075 A 
HETATM   32  O   UNL     1      37.761 -14.035  -3.144  1.00  0.00    -0.325 OA
HETATM   33  C   UNL     1      37.018 -14.839  -3.947  1.00  0.00     0.142 A 
HETATM   34  C   UNL     1      36.248 -14.086  -4.801  1.00  0.00     0.027 A 
HETATM   35  C   UNL     1      36.541 -12.733  -4.508  1.00  0.00     0.037 A 
ENDBRANCH   6  31
TORSDOF 6
ENDMDL
MODEL 8
REMARK VINA RESULT:      -7.6      6.475      8.682
REMARK  6 active torsions:
REMARK  status: ('A' for Active; 'I' for Inactive)
REMARK    1  A    between atoms: C_2  and  C_3 
REMARK       I    between atoms: C_3  and  N_4 
REMARK    2  A    between atoms: N_4  and  C_5 
REMARK    3  A    between atoms: C_8  and  N_9 
REMARK       I    between atoms: N_9  and  C_10 
REMARK    4  A    between atoms: C_10  and  C_11 
REMARK    5  A    between atoms: C_16  and  C_17 
REMARK    6  A    between atoms: C_23  and  C_24 
ROOT
HETATM    1  C   UNL     1      41.558 -10.715   8.023  1.00  0.00     0.148 A 
HETATM    2  N   UNL     1      42.824 -10.655   8.492  1.00  0.00    -0.165 NA
HETATM    3  N   UNL     1      42.686 -10.860   9.817  1.00  0.00    -0.240 N 
HETATM    4  C   UNL     1      41.384 -11.023  10.212  1.00  0.00     0.123 A 
HETATM    5  N   UNL     1      41.054 -11.216  11.508  1.00  0.00    -0.364 N 
HETATM    6  C   UNL     1      42.021 -10.931  12.571  1.00  0.00     0.143 C 
HETATM    7  C   UNL     1      43.421 -11.360  12.109  1.00  0.00     0.068 C 
HETATM    8  C   UNL     1      43.796 -10.740  10.748  1.00  0.00     0.221 C 
HETATM    9  C   UNL     1      40.628 -10.941   9.074  1.00  0.00     0.089 A 
HETATM   10  H   UNL     1      40.079 -11.138  11.797  1.00  0.00     0.162 HD
ENDROOT
BRANCH   1  11
HETATM   11  C   UNL     1      41.236 -10.558   6.594  1.00  0.00     0.276 C 
HETATM   12  N   UNL     1      40.547 -11.646   6.089  1.00  0.00    -0.322 N 
HETATM   13  H   UNL     1      40.343 -12.357   6.788  1.00  0.00     0.169 HD
HETATM   14  O   UNL     1      41.545  -9.540   5.982  1.00  0.00    -0.266 OA
BRANCH  12  15
HETATM   15  C   UNL     1      40.079 -11.841   4.779  1.00  0.00     0.035 A 
HETATM   16  C   UNL     1      38.878 -11.322   4.299  1.00  0.00     0.032 A 
HETATM   17  C   UNL     1      38.474 -11.549   2.975  1.00  0.00     0.032 A 
HETATM   18  C   UNL     1      39.263 -12.304   2.109  1.00  0.00     0.034 A 
HETATM   19  C   UNL     1      40.469 -12.828   2.592  1.00  0.00     0.032 A 
HETATM   20  C   UNL     1      40.875 -12.595   3.912  1.00  0.00     0.032 A 
BRANCH  18  21
HETATM   21  N   UNL     1      38.933 -12.569   0.763  1.00  0.00    -0.327 N 
HETATM   22  C   UNL     1      38.099 -13.563   0.282  1.00  0.00     0.221 C 
HETATM   23  O   UNL     1      37.497 -14.397   0.950  1.00  0.00    -0.273 OA
HETATM   24  H   UNL     1      39.363 -11.962   0.080  1.00  0.00     0.169 HD
BRANCH  22  25
HETATM   25  C   UNL     1      37.918 -13.521  -1.228  1.00  0.00     0.098 C 
HETATM   26  C   UNL     1      39.111 -14.056  -2.000  1.00  0.00     0.014 C 
ENDBRANCH  22  25
ENDBRANCH  18  21
ENDBRANCH  12  15
ENDBRANCH   1  11
BRANCH   8  27
HETATM   27  C   UNL     1      45.056 -11.390  10.221  1.00  0.00     0.409 C 
HETATM   28  F   UNL     1      44.799 -12.471   9.451  1.00  0.00    -0.169 F 
HETATM   29  F   UNL     1      45.839 -10.547   9.515  1.00  0.00    -0.169 F 
HETATM   30  F   UNL     1      45.817 -11.828  11.260  1.00  0.00    -0.169 F 
ENDBRANCH   8  27
BRANCH   6  31
HETATM   31  C   UNL     1      42.007  -9.521  13.071  1.00  0.00     0.075 A 
HETATM   32  O   UNL     1      40.860  -8.814  12.848  1.00  0.00    -0.325 OA
HETATM   33  C   UNL     1      41.056  -7.566  13.344  1.00  0.00     0.142 A 
HETATM   34  C   UNL     1      42.311  -7.459  13.895  1.00  0.00     0.027 A 
HETATM   35  C   UNL     1      42.927  -8.721  13.721  1.00  0.00     0.037 A 
ENDBRANCH   6  31
TORSDOF 6
ENDMDL
MODEL 9
REMARK VINA RESULT:      -7.5      3.377     10.347
REMARK  6 active torsions:
REMARK  status: ('A' for Active; 'I' for Inactive)
REMARK    1  A    between atoms: C_2  and  C_3 
REMARK       I    between atoms: C_3  and  N_4 
REMARK    2  A    between atoms: N_4  and  C_5 
REMARK    3  A    between atoms: C_8  and  N_9 
REMARK       I    between atoms: N_9  and  C_10 
REMARK    4  A    between atoms: C_10  and  C_11 
REMARK    5  A    between atoms: C_16  and  C_17 
REMARK    6  A    between atoms: C_23  and  C_24 
ROOT
HETATM    1  C   UNL     1      41.309 -13.559   0.508  1.00  0.00     0.148 A 
HETATM    2  N   UNL     1      41.832 -13.444  -0.733  1.00  0.00    -0.165 NA
HETATM    3  N   UNL     1      40.883 -12.780  -1.422  1.00  0.00    -0.240 N 
HETATM    4  C   UNL     1      39.769 -12.490  -0.677  1.00  0.00     0.123 A 
HETATM    5  N   UNL     1      38.706 -11.848  -1.210  1.00  0.00    -0.364 N 
HETATM    6  C   UNL     1      38.561 -11.732  -2.664  1.00  0.00     0.143 C 
HETATM    7  C   UNL     1      39.941 -11.493  -3.293  1.00  0.00     0.068 C 
HETATM    8  C   UNL     1      40.968 -12.558  -2.856  1.00  0.00     0.221 C 
HETATM    9  C   UNL     1      40.015 -12.975   0.579  1.00  0.00     0.089 A 
HETATM   10  H   UNL     1      37.825 -11.820  -0.698  1.00  0.00     0.162 HD
ENDROOT
BRANCH   1  11
HETATM   11  C   UNL     1      42.029 -14.217   1.613  1.00  0.00     0.276 C 
HETATM   12  N   UNL     1      41.701 -15.555   1.728  1.00  0.00    -0.322 N 
HETATM   13  H   UNL     1      41.049 -15.876   1.016  1.00  0.00     0.169 HD
HETATM   14  O   UNL     1      42.838 -13.599   2.299  1.00  0.00    -0.266 OA
BRANCH  12  15
HETATM   15  C   UNL     1      42.190 -16.489   2.657  1.00  0.00     0.035 A 
HETATM   16  C   UNL     1      43.459 -17.060   2.589  1.00  0.00     0.032 A 
HETATM   17  C   UNL     1      43.886 -17.981   3.557  1.00  0.00     0.032 A 
HETATM   18  C   UNL     1      43.049 -18.349   4.608  1.00  0.00     0.034 A 
HETATM   19  C   UNL     1      41.772 -17.777   4.676  1.00  0.00     0.032 A 
HETATM   20  C   UNL     1      41.349 -16.852   3.713  1.00  0.00     0.032 A 
BRANCH  18  21
HETATM   21  N   UNL     1      43.407 -19.259   5.625  1.00  0.00    -0.327 N 
HETATM   22  C   UNL     1      43.656 -18.978   6.956  1.00  0.00     0.221 C 
HETATM   23  O   UNL     1      43.611 -17.875   7.490  1.00  0.00    -0.273 OA
HETATM   24  H   UNL     1      43.493 -20.224   5.337  1.00  0.00     0.169 HD
BRANCH  22  25
HETATM   25  C   UNL     1      43.957 -20.215   7.790  1.00  0.00     0.098 C 
HETATM   26  C   UNL     1      43.958 -21.504   6.989  1.00  0.00     0.014 C 
ENDBRANCH  22  25
ENDBRANCH  18  21
ENDBRANCH  12  15
ENDBRANCH   1  11
BRANCH   8  27
HETATM   27  C   UNL     1      42.355 -12.135  -3.287  1.00  0.00     0.409 C 
HETATM   28  F   UNL     1      42.406 -11.776  -4.589  1.00  0.00    -0.169 F 
HETATM   29  F   UNL     1      42.859 -11.121  -2.551  1.00  0.00    -0.169 F 
HETATM   30  F   UNL     1      43.220 -13.174  -3.138  1.00  0.00    -0.169 F 
ENDBRANCH   8  27
BRANCH   6  31
HETATM   31  C   UNL     1      37.841 -12.871  -3.315  1.00  0.00     0.075 A 
HETATM   32  O   UNL     1      36.839 -12.536  -4.180  1.00  0.00    -0.325 OA
HETATM   33  C   UNL     1      36.300 -13.695  -4.637  1.00  0.00     0.142 A 
HETATM   34  C   UNL     1      36.947 -14.776  -4.086  1.00  0.00     0.027 A 
HETATM   35  C   UNL     1      37.944 -14.247  -3.232  1.00  0.00     0.037 A 
ENDBRANCH   6  31
TORSDOF 6
ENDMDL
MODEL 10
REMARK VINA RESULT:      -7.5      5.387     10.236
REMARK  6 active torsions:
REMARK  status: ('A' for Active; 'I' for Inactive)
REMARK    1  A    between atoms: C_2  and  C_3 
REMARK       I    between atoms: C_3  and  N_4 
REMARK    2  A    between atoms: N_4  and  C_5 
REMARK    3  A    between atoms: C_8  and  N_9 
REMARK       I    between atoms: N_9  and  C_10 
REMARK    4  A    between atoms: C_10  and  C_11 
REMARK    5  A    between atoms: C_16  and  C_17 
REMARK    6  A    between atoms: C_23  and  C_24 
ROOT
HETATM    1  C   UNL     1      40.991 -13.002   4.353  1.00  0.00     0.148 A 
HETATM    2  N   UNL     1      41.496 -12.994   3.099  1.00  0.00    -0.165 NA
HETATM    3  N   UNL     1      41.204 -14.223   2.628  1.00  0.00    -0.240 N 
HETATM    4  C   UNL     1      40.558 -15.018   3.538  1.00  0.00     0.123 A 
HETATM    5  N   UNL     1      40.208 -16.290   3.247  1.00  0.00    -0.364 N 
HETATM    6  C   UNL     1      40.788 -16.973   2.087  1.00  0.00     0.143 C 
HETATM    7  C   UNL     1      40.923 -15.976   0.928  1.00  0.00     0.068 C 
HETATM    8  C   UNL     1      41.690 -14.704   1.345  1.00  0.00     0.221 C 
HETATM    9  C   UNL     1      40.399 -14.256   4.664  1.00  0.00     0.089 A 
HETATM   10  H   UNL     1      39.910 -16.916   3.995  1.00  0.00     0.162 HD
ENDROOT
BRANCH   1  11
HETATM   11  C   UNL     1      41.073 -11.833   5.246  1.00  0.00     0.276 C 
HETATM   12  N   UNL     1      40.733 -12.144   6.550  1.00  0.00    -0.322 N 
HETATM   13  H   UNL     1      40.518 -13.129   6.689  1.00  0.00     0.169 HD
HETATM   14  O   UNL     1      41.437 -10.739   4.826  1.00  0.00    -0.266 OA
BRANCH  12  15
HETATM   15  C   UNL     1      40.700 -11.288   7.663  1.00  0.00     0.035 A 
HETATM   16  C   UNL     1      41.833 -10.698   8.222  1.00  0.00     0.032 A 
HETATM   17  C   UNL     1      41.726  -9.845   9.331  1.00  0.00     0.032 A 
HETATM   18  C   UNL     1      40.485  -9.571   9.902  1.00  0.00     0.034 A 
HETATM   19  C   UNL     1      39.347 -10.166   9.343  1.00  0.00     0.032 A 
HETATM   20  C   UNL     1      39.454 -11.012   8.231  1.00  0.00     0.032 A 
BRANCH  18  21
HETATM   21  N   UNL     1      40.294  -8.719  11.010  1.00  0.00    -0.327 N 
HETATM   22  C   UNL     1      40.181  -9.080  12.340  1.00  0.00     0.221 C 
HETATM   23  O   UNL     1      40.226 -10.220  12.793  1.00  0.00    -0.273 OA
HETATM   24  H   UNL     1      40.228  -7.733  10.797  1.00  0.00     0.169 HD
BRANCH  22  25
HETATM   25  C   UNL     1      40.043  -7.893  13.281  1.00  0.00     0.098 C 
HETATM   26  C   UNL     1      38.625  -7.667  13.774  1.00  0.00     0.014 C 
ENDBRANCH  22  25
ENDBRANCH  18  21
ENDBRANCH  12  15
ENDBRANCH   1  11
BRANCH   8  27
HETATM   27  C   UNL     1      41.570 -13.658   0.259  1.00  0.00     0.409 C 
HETATM   28  F   UNL     1      40.326 -13.135   0.178  1.00  0.00    -0.169 F 
HETATM   29  F   UNL     1      42.446 -12.640   0.397  1.00  0.00    -0.169 F 
HETATM   30  F   UNL     1      41.834 -14.219  -0.952  1.00  0.00    -0.169 F 
ENDBRANCH   8  27
BRANCH   6  31
HETATM   31  C   UNL     1      42.074 -17.689   2.360  1.00  0.00     0.075 A 
HETATM   32  O   UNL     1      42.269 -18.109   3.645  1.00  0.00    -0.325 OA
HETATM   33  C   UNL     1      43.489 -18.702   3.691  1.00  0.00     0.142 A 
HETATM   34  C   UNL     1      44.081 -18.680   2.451  1.00  0.00     0.027 A 
HETATM   35  C   UNL     1      43.169 -18.027   1.588  1.00  0.00     0.037 A 
ENDBRANCH   6  31
TORSDOF 6
ENDMDL
