MODEL 1
REMARK VINA RESULT:      -9.0      0.000      0.000
REMARK  3 active torsions:
REMARK  status: ('A' for Active; 'I' for Inactive)
REMARK    1  A    between atoms: O_2  and  C_3 
REMARK    2  A    between atoms: C_9  and  C_10 
REMARK       I    between atoms: C_10  and  N_11 
REMARK    3  A    between atoms: N_11  and  C_12 
ROOT
HETATM    1  C   UNL     1      44.141 -21.067   2.867  1.00  0.00     0.068 A 
HETATM    2  C   UNL     1      44.554 -20.503   4.079  1.00  0.00     0.044 A 
HETATM    3  C   UNL     1      44.354 -19.141   4.340  1.00  0.00    -0.043 A 
HETATM    4  C   UNL     1      43.755 -18.328   3.352  1.00  0.00    -0.001 A 
HETATM    5  C   UNL     1      43.565 -16.929   3.694  1.00  0.00     0.069 A 
HETATM    6  C   UNL     1      43.726 -16.408   4.959  1.00  0.00     0.007 A 
HETATM    7  C   UNL     1      43.413 -15.031   4.849  1.00  0.00     0.153 A 
HETATM    8  N   UNL     1      43.106 -14.712   3.568  1.00  0.00    -0.168 NA
HETATM    9  N   UNL     1      43.210 -15.882   2.902  1.00  0.00    -0.276 N 
HETATM   10  H   UNL     1      43.024 -15.887   1.906  1.00  0.00     0.189 HD
HETATM   11  C   UNL     1      44.100 -17.271   6.113  1.00  0.00     0.048 C 
HETATM   12  C   UNL     1      44.867 -18.529   5.640  1.00  0.00     0.044 C 
HETATM   13  C   UNL     1      43.350 -18.889   2.141  1.00  0.00     0.017 A 
HETATM   14  C   UNL     1      43.542 -20.256   1.901  1.00  0.00     0.037 A 
ENDROOT
BRANCH   7  15
HETATM   15  C   UNL     1      43.378 -14.017   5.922  1.00  0.00     0.277 C 
HETATM   16  N   UNL     1      44.552 -14.014   6.654  1.00  0.00    -0.322 N 
HETATM   17  H   UNL     1      45.216 -14.716   6.332  1.00  0.00     0.169 HD
HETATM   18  O   UNL     1      42.410 -13.287   6.097  1.00  0.00    -0.266 OA
BRANCH  16  19
HETATM   19  C   UNL     1      44.920 -13.181   7.722  1.00  0.00     0.036 A 
HETATM   20  C   UNL     1      44.134 -12.978   8.859  1.00  0.00     0.056 A 
HETATM   21  C   UNL     1      44.574 -12.121   9.872  1.00  0.00     0.074 A 
HETATM   22 CL   UNL     1      43.590 -11.879  11.266  1.00  0.00    -0.081 Cl
HETATM   23  C   UNL     1      45.797 -11.468   9.751  1.00  0.00     0.138 A 
HETATM   24  F   UNL     1      46.235 -10.640  10.711  1.00  0.00    -0.204 F 
HETATM   25  C   UNL     1      46.590 -11.661   8.626  1.00  0.00     0.046 A 
HETATM   26  C   UNL     1      46.151 -12.517   7.612  1.00  0.00     0.032 A 
ENDBRANCH  16  19
ENDBRANCH   7  15
BRANCH   1  27
HETATM   27  O   UNL     1      44.386 -22.408   2.751  1.00  0.00    -0.356 OA
HETATM   28  C   UNL     1      44.784 -23.095   3.931  1.00  0.00     0.210 C 
ENDBRANCH   1  27
TORSDOF 3
ENDMDL
MODEL 2
REMARK VINA RESULT:      -9.0      6.017      7.732
REMARK  3 active torsions:
REMARK  status: ('A' for Active; 'I' for Inactive)
REMARK    1  A    between atoms: O_2  and  C_3 
REMARK    2  A    between atoms: C_9  and  C_10 
REMARK       I    between atoms: C_10  and  N_11 
REMARK    3  A    between atoms: N_11  and  C_12 
ROOT
HETATM    1  C   UNL     1      44.390 -19.969   4.742  1.00  0.00     0.068 A 
HETATM    2  C   UNL     1      44.351 -19.682   3.374  1.00  0.00     0.044 A 
HETATM    3  C   UNL     1      43.483 -18.703   2.872  1.00  0.00    -0.043 A 
HETATM    4  C   UNL     1      42.619 -18.023   3.761  1.00  0.00    -0.001 A 
HETATM    5  C   UNL     1      41.756 -17.011   3.177  1.00  0.00     0.069 A 
HETATM    6  C   UNL     1      41.876 -16.535   1.890  1.00  0.00     0.007 A 
HETATM    7  C   UNL     1      40.867 -15.551   1.751  1.00  0.00     0.153 A 
HETATM    8  N   UNL     1      40.137 -15.450   2.888  1.00  0.00    -0.168 NA
HETATM    9  N   UNL     1      40.703 -16.347   3.724  1.00  0.00    -0.276 N 
HETATM   10  H   UNL     1      40.314 -16.450   4.654  1.00  0.00     0.189 HD
HETATM   11  C   UNL     1      42.946 -17.021   0.977  1.00  0.00     0.048 C 
HETATM   12  C   UNL     1      43.405 -18.446   1.371  1.00  0.00     0.044 C 
HETATM   13  C   UNL     1      42.654 -18.315   5.125  1.00  0.00     0.017 A 
HETATM   14  C   UNL     1      43.539 -19.285   5.613  1.00  0.00     0.037 A 
ENDROOT
BRANCH   7  15
HETATM   15  C   UNL     1      40.587 -14.693   0.581  1.00  0.00     0.277 C 
HETATM   16  N   UNL     1      41.755 -14.252  -0.013  1.00  0.00    -0.322 N 
HETATM   17  H   UNL     1      42.590 -14.584   0.467  1.00  0.00     0.169 HD
HETATM   18  O   UNL     1      39.445 -14.438   0.219  1.00  0.00    -0.266 OA
BRANCH  16  19
HETATM   19  C   UNL     1      41.912 -13.457  -1.160  1.00  0.00     0.036 A 
HETATM   20  C   UNL     1      42.463 -12.172  -1.147  1.00  0.00     0.056 A 
HETATM   21  C   UNL     1      42.572 -11.445  -2.336  1.00  0.00     0.074 A 
HETATM   22 CL   UNL     1      43.249  -9.860  -2.302  1.00  0.00    -0.081 Cl
HETATM   23  C   UNL     1      42.133 -11.998  -3.536  1.00  0.00     0.138 A 
HETATM   24  F   UNL     1      42.228 -11.314  -4.685  1.00  0.00    -0.204 F 
HETATM   25  C   UNL     1      41.585 -13.275  -3.563  1.00  0.00     0.046 A 
HETATM   26  C   UNL     1      41.475 -14.003  -2.375  1.00  0.00     0.032 A 
ENDBRANCH  16  19
ENDBRANCH   7  15
BRANCH   1  27
HETATM   27  O   UNL     1      45.292 -20.935   5.094  1.00  0.00    -0.356 OA
HETATM   28  C   UNL     1      44.824 -22.278   5.112  1.00  0.00     0.210 C 
ENDBRANCH   1  27
TORSDOF 3
ENDMDL
MODEL 3
REMARK VINA RESULT:      -8.9      5.872      7.690
REMARK  3 active torsions:
REMARK  status: ('A' for Active; 'I' for Inactive)
REMARK    1  A    between atoms: O_2  and  C_3 
REMARK    2  A    between atoms: C_9  and  C_10 
REMARK       I    between atoms: C_10  and  N_11 
REMARK    3  A    between atoms: N_11  and  C_12 
ROOT
HETATM    1  C   UNL     1      44.734 -20.563   4.728  1.00  0.00     0.068 A 
HETATM    2  C   UNL     1      44.498 -20.171   3.406  1.00  0.00     0.044 A 
HETATM    3  C   UNL     1      43.936 -18.920   3.120  1.00  0.00    -0.043 A 
HETATM    4  C   UNL     1      43.579 -18.062   4.185  1.00  0.00    -0.001 A 
HETATM    5  C   UNL     1      43.015 -16.775   3.817  1.00  0.00     0.069 A 
HETATM    6  C   UNL     1      43.008 -16.265   2.537  1.00  0.00     0.007 A 
HETATM    7  C   UNL     1      42.399 -14.990   2.636  1.00  0.00     0.153 A 
HETATM    8  N   UNL     1      42.018 -14.740   3.912  1.00  0.00    -0.168 NA
HETATM    9  N   UNL     1      42.406 -15.839   4.594  1.00  0.00    -0.276 N 
HETATM   10  H   UNL     1      42.219 -15.879   5.590  1.00  0.00     0.189 HD
HETATM   11  C   UNL     1      43.615 -17.010   1.400  1.00  0.00     0.048 C 
HETATM   12  C   UNL     1      43.624 -18.533   1.678  1.00  0.00     0.044 C 
HETATM   13  C   UNL     1      43.809 -18.456   5.503  1.00  0.00     0.017 A 
HETATM   14  C   UNL     1      44.387 -19.704   5.772  1.00  0.00     0.037 A 
ENDROOT
BRANCH   7  15
HETATM   15  C   UNL     1      42.185 -13.998   1.563  1.00  0.00     0.277 C 
HETATM   16  N   UNL     1      41.474 -14.539   0.508  1.00  0.00    -0.322 N 
HETATM   17  H   UNL     1      41.242 -15.520   0.654  1.00  0.00     0.169 HD
HETATM   18  O   UNL     1      42.598 -12.847   1.648  1.00  0.00    -0.266 OA
BRANCH  16  19
HETATM   19  C   UNL     1      41.041 -13.915  -0.672  1.00  0.00     0.036 A 
HETATM   20  C   UNL     1      41.898 -13.300  -1.589  1.00  0.00     0.056 A 
HETATM   21  C   UNL     1      41.378 -12.691  -2.735  1.00  0.00     0.074 A 
HETATM   22 CL   UNL     1      42.449 -11.932  -3.852  1.00  0.00    -0.081 Cl
HETATM   23  C   UNL     1      40.006 -12.698  -2.968  1.00  0.00     0.138 A 
HETATM   24  F   UNL     1      39.490 -12.117  -4.061  1.00  0.00    -0.204 F 
HETATM   25  C   UNL     1      39.142 -13.308  -2.066  1.00  0.00     0.046 A 
HETATM   26  C   UNL     1      39.660 -13.916  -0.920  1.00  0.00     0.032 A 
ENDBRANCH  16  19
ENDBRANCH   7  15
BRANCH   1  27
HETATM   27  O   UNL     1      45.298 -21.802   4.861  1.00  0.00    -0.356 OA
HETATM   28  C   UNL     1      44.718 -22.859   4.106  1.00  0.00     0.210 C 
ENDBRANCH   1  27
TORSDOF 3
ENDMDL
MODEL 4
REMARK VINA RESULT:      -8.8      4.503     10.204
REMARK  3 active torsions:
REMARK  status: ('A' for Active; 'I' for Inactive)
REMARK    1  A    between atoms: O_2  and  C_3 
REMARK    2  A    between atoms: C_9  and  C_10 
REMARK       I    between atoms: C_10  and  N_11 
REMARK    3  A    between atoms: N_11  and  C_12 
ROOT
HETATM    1  C   UNL     1      41.740  -8.401  12.598  1.00  0.00     0.068 A 
HETATM    2  C   UNL     1      41.547  -8.663  11.238  1.00  0.00     0.044 A 
HETATM    3  C   UNL     1      42.361  -9.582  10.562  1.00  0.00    -0.043 A 
HETATM    4  C   UNL     1      43.407 -10.225  11.263  1.00  0.00    -0.001 A 
HETATM    5  C   UNL     1      44.203 -11.176  10.507  1.00  0.00     0.069 A 
HETATM    6  C   UNL     1      43.878 -11.638   9.250  1.00  0.00     0.007 A 
HETATM    7  C   UNL     1      44.896 -12.560   8.905  1.00  0.00     0.153 A 
HETATM    8  N   UNL     1      45.824 -12.637   9.890  1.00  0.00    -0.168 NA
HETATM    9  N   UNL     1      45.371 -11.788  10.838  1.00  0.00    -0.276 N 
HETATM   10  H   UNL     1      45.917 -11.678  11.685  1.00  0.00     0.189 HD
HETATM   11  C   UNL     1      42.635 -11.198   8.558  1.00  0.00     0.048 C 
HETATM   12  C   UNL     1      42.180  -9.809   9.065  1.00  0.00     0.044 C 
HETATM   13  C   UNL     1      43.603  -9.959  12.618  1.00  0.00     0.017 A 
HETATM   14  C   UNL     1      42.770  -9.049  13.283  1.00  0.00     0.037 A 
ENDROOT
BRANCH   7  15
HETATM   15  C   UNL     1      45.006 -13.381   7.682  1.00  0.00     0.277 C 
HETATM   16  N   UNL     1      44.048 -14.378   7.656  1.00  0.00    -0.322 N 
HETATM   17  H   UNL     1      43.455 -14.374   8.484  1.00  0.00     0.169 HD
HETATM   18  O   UNL     1      45.852 -13.161   6.824  1.00  0.00    -0.266 OA
BRANCH  16  19
HETATM   19  C   UNL     1      43.800 -15.332   6.656  1.00  0.00     0.036 A 
HETATM   20  C   UNL     1      44.342 -16.621   6.657  1.00  0.00     0.056 A 
HETATM   21  C   UNL     1      44.049 -17.504   5.614  1.00  0.00     0.074 A 
HETATM   22 CL   UNL     1      44.729 -19.088   5.628  1.00  0.00    -0.081 Cl
HETATM   23  C   UNL     1      43.218 -17.104   4.572  1.00  0.00     0.138 A 
HETATM   24  F   UNL     1      42.929 -17.937   3.562  1.00  0.00    -0.204 F 
HETATM   25  C   UNL     1      42.671 -15.826   4.559  1.00  0.00     0.046 A 
HETATM   26  C   UNL     1      42.963 -14.941   5.601  1.00  0.00     0.032 A 
ENDBRANCH  16  19
ENDBRANCH   7  15
BRANCH   1  27
HETATM   27  O   UNL     1      40.867  -7.494  13.132  1.00  0.00    -0.356 OA
HETATM   28  C   UNL     1      39.536  -7.940  13.364  1.00  0.00     0.210 C 
ENDBRANCH   1  27
TORSDOF 3
ENDMDL
MODEL 5
REMARK VINA RESULT:      -8.7      7.123      8.937
REMARK  3 active torsions:
REMARK  status: ('A' for Active; 'I' for Inactive)
REMARK    1  A    between atoms: O_2  and  C_3 
REMARK    2  A    between atoms: C_9  and  C_10 
REMARK       I    between atoms: C_10  and  N_11 
REMARK    3  A    between atoms: N_11  and  C_12 
ROOT
HETATM    1  C   UNL     1      43.918 -19.430   5.062  1.00  0.00     0.068 A 
HETATM    2  C   UNL     1      44.039 -19.313   3.674  1.00  0.00     0.044 A 
HETATM    3  C   UNL     1      43.210 -18.443   2.953  1.00  0.00    -0.043 A 
HETATM    4  C   UNL     1      42.224 -17.700   3.640  1.00  0.00    -0.001 A 
HETATM    5  C   UNL     1      41.410 -16.807   2.834  1.00  0.00     0.069 A 
HETATM    6  C   UNL     1      41.673 -16.485   1.520  1.00  0.00     0.007 A 
HETATM    7  C   UNL     1      40.660 -15.572   1.139  1.00  0.00     0.153 A 
HETATM    8  N   UNL     1      39.793 -15.367   2.160  1.00  0.00    -0.168 NA
HETATM    9  N   UNL     1      40.278 -16.129   3.164  1.00  0.00    -0.276 N 
HETATM   10  H   UNL     1      39.779 -16.136   4.046  1.00  0.00     0.189 HD
HETATM   11  C   UNL     1      42.862 -17.031   0.810  1.00  0.00     0.048 C 
HETATM   12  C   UNL     1      43.311 -18.375   1.432  1.00  0.00     0.044 C 
HETATM   13  C   UNL     1      42.098 -17.822   5.024  1.00  0.00     0.017 A 
HETATM   14  C   UNL     1      42.945 -18.684   5.732  1.00  0.00     0.037 A 
ENDROOT
BRANCH   7  15
HETATM   15  C   UNL     1      40.501 -14.876  -0.154  1.00  0.00     0.277 C 
HETATM   16  N   UNL     1      39.190 -14.491  -0.363  1.00  0.00    -0.322 N 
HETATM   17  H   UNL     1      38.574 -14.767   0.400  1.00  0.00     0.169 HD
HETATM   18  O   UNL     1      41.446 -14.682  -0.910  1.00  0.00    -0.266 OA
BRANCH  16  19
HETATM   19  C   UNL     1      38.644 -13.779  -1.443  1.00  0.00     0.036 A 
HETATM   20  C   UNL     1      37.883 -14.366  -2.458  1.00  0.00     0.056 A 
HETATM   21  C   UNL     1      37.387 -13.582  -3.504  1.00  0.00     0.074 A 
HETATM   22 CL   UNL     1      36.454 -14.322  -4.750  1.00  0.00    -0.081 Cl
HETATM   23  C   UNL     1      37.648 -12.215  -3.536  1.00  0.00     0.138 A 
HETATM   24  F   UNL     1      37.181 -11.448  -4.533  1.00  0.00    -0.204 F 
HETATM   25  C   UNL     1      38.401 -11.618  -2.532  1.00  0.00     0.046 A 
HETATM   26  C   UNL     1      38.899 -12.401  -1.487  1.00  0.00     0.032 A 
ENDBRANCH  16  19
ENDBRANCH   7  15
BRANCH   1  27
HETATM   27  O   UNL     1      44.797 -20.305   5.638  1.00  0.00    -0.356 OA
HETATM   28  C   UNL     1      44.815 -21.632   5.127  1.00  0.00     0.210 C 
ENDBRANCH   1  27
TORSDOF 3
ENDMDL
MODEL 6
REMARK VINA RESULT:      -8.6      4.395      5.040
REMARK  3 active torsions:
REMARK  status: ('A' for Active; 'I' for Inactive)
REMARK    1  A    between atoms: O_2  and  C_3 
REMARK    2  A    between atoms: C_9  and  C_10 
REMARK       I    between atoms: C_10  and  N_11 
REMARK    3  A    between atoms: N_11  and  C_12 
ROOT
HETATM    1  C   UNL     1      44.391 -21.542   3.343  1.00  0.00     0.068 A 
HETATM    2  C   UNL     1      44.419 -20.424   4.183  1.00  0.00     0.044 A 
HETATM    3  C   UNL     1      44.019 -19.165   3.714  1.00  0.00    -0.043 A 
HETATM    4  C   UNL     1      43.613 -19.027   2.367  1.00  0.00    -0.001 A 
HETATM    5  C   UNL     1      43.198 -17.698   1.951  1.00  0.00     0.069 A 
HETATM    6  C   UNL     1      42.975 -16.647   2.813  1.00  0.00     0.007 A 
HETATM    7  C   UNL     1      42.560 -15.565   1.998  1.00  0.00     0.153 A 
HETATM    8  N   UNL     1      42.560 -15.924   0.691  1.00  0.00    -0.168 NA
HETATM    9  N   UNL     1      42.951 -17.216   0.703  1.00  0.00    -0.276 N 
HETATM   10  H   UNL     1      43.028 -17.704  -0.182  1.00  0.00     0.189 HD
HETATM   11  C   UNL     1      43.127 -16.802   4.285  1.00  0.00     0.048 C 
HETATM   12  C   UNL     1      44.116 -17.944   4.623  1.00  0.00     0.044 C 
HETATM   13  C   UNL     1      43.592 -20.141   1.528  1.00  0.00     0.017 A 
HETATM   14  C   UNL     1      43.979 -21.395   2.017  1.00  0.00     0.037 A 
ENDROOT
BRANCH   7  15
HETATM   15  C   UNL     1      42.147 -14.212   2.422  1.00  0.00     0.277 C 
HETATM   16  N   UNL     1      40.804 -14.172   2.748  1.00  0.00    -0.322 N 
HETATM   17  H   UNL     1      40.343 -15.073   2.624  1.00  0.00     0.169 HD
HETATM   18  O   UNL     1      42.935 -13.275   2.469  1.00  0.00    -0.266 OA
BRANCH  16  19
HETATM   19  C   UNL     1      40.047 -13.091   3.226  1.00  0.00     0.036 A 
HETATM   20  C   UNL     1      40.167 -12.566   4.516  1.00  0.00     0.056 A 
HETATM   21  C   UNL     1      39.364 -11.493   4.913  1.00  0.00     0.074 A 
HETATM   22 CL   UNL     1      39.521 -10.861   6.509  1.00  0.00    -0.081 Cl
HETATM   23  C   UNL     1      38.443 -10.944   4.026  1.00  0.00     0.138 A 
HETATM   24  F   UNL     1      37.662  -9.916   4.390  1.00  0.00    -0.204 F 
HETATM   25  C   UNL     1      38.314 -11.455   2.740  1.00  0.00     0.046 A 
HETATM   26  C   UNL     1      39.116 -12.528   2.341  1.00  0.00     0.032 A 
ENDBRANCH  16  19
ENDBRANCH   7  15
BRANCH   1  27
HETATM   27  O   UNL     1      44.795 -22.707   3.935  1.00  0.00    -0.356 OA
HETATM   28  C   UNL     1      45.319 -22.613   5.253  1.00  0.00     0.210 C 
ENDBRANCH   1  27
TORSDOF 3
ENDMDL
MODEL 7
REMARK VINA RESULT:      -8.5      4.812      5.423
REMARK  3 active torsions:
REMARK  status: ('A' for Active; 'I' for Inactive)
REMARK    1  A    between atoms: O_2  and  C_3 
REMARK    2  A    between atoms: C_9  and  C_10 
REMARK       I    between atoms: C_10  and  N_11 
REMARK    3  A    between atoms: N_11  and  C_12 
ROOT
HETATM    1  C   UNL     1      44.447 -21.469   3.370  1.00  0.00     0.068 A 
HETATM    2  C   UNL     1      44.463 -20.333   4.185  1.00  0.00     0.044 A 
HETATM    3  C   UNL     1      44.035 -19.093   3.694  1.00  0.00    -0.043 A 
HETATM    4  C   UNL     1      43.611 -18.991   2.350  1.00  0.00    -0.001 A 
HETATM    5  C   UNL     1      43.166 -17.679   1.910  1.00  0.00     0.069 A 
HETATM    6  C   UNL     1      42.933 -16.614   2.752  1.00  0.00     0.007 A 
HETATM    7  C   UNL     1      42.489 -15.558   1.919  1.00  0.00     0.153 A 
HETATM    8  N   UNL     1      42.482 -15.944   0.620  1.00  0.00    -0.168 NA
HETATM    9  N   UNL     1      42.897 -17.229   0.655  1.00  0.00    -0.276 N 
HETATM   10  H   UNL     1      42.973 -17.734  -0.220  1.00  0.00     0.189 HD
HETATM   11  C   UNL     1      43.105 -16.735   4.226  1.00  0.00     0.048 C 
HETATM   12  C   UNL     1      44.119 -17.851   4.576  1.00  0.00     0.044 C 
HETATM   13  C   UNL     1      43.602 -20.122   1.535  1.00  0.00     0.017 A 
HETATM   14  C   UNL     1      44.018 -21.359   2.045  1.00  0.00     0.037 A 
ENDROOT
BRANCH   7  15
HETATM   15  C   UNL     1      42.055 -14.204   2.319  1.00  0.00     0.277 C 
HETATM   16  N   UNL     1      40.702 -14.169   2.600  1.00  0.00    -0.322 N 
HETATM   17  H   UNL     1      40.250 -15.073   2.468  1.00  0.00     0.169 HD
HETATM   18  O   UNL     1      42.836 -13.262   2.385  1.00  0.00    -0.266 OA
BRANCH  16  19
HETATM   19  C   UNL     1      39.924 -13.089   3.045  1.00  0.00     0.036 A 
HETATM   20  C   UNL     1      39.056 -12.362   2.224  1.00  0.00     0.056 A 
HETATM   21  C   UNL     1      38.326 -11.292   2.750  1.00  0.00     0.074 A 
HETATM   22 CL   UNL     1      37.265 -10.404   1.723  1.00  0.00    -0.081 Cl
HETATM   23  C   UNL     1      38.460 -10.948   4.092  1.00  0.00     0.138 A 
HETATM   24  F   UNL     1      37.769  -9.923   4.612  1.00  0.00    -0.204 F 
HETATM   25  C   UNL     1      39.318 -11.662   4.920  1.00  0.00     0.046 A 
HETATM   26  C   UNL     1      40.049 -12.732   4.396  1.00  0.00     0.032 A 
ENDBRANCH  16  19
ENDBRANCH   7  15
BRANCH   1  27
HETATM   27  O   UNL     1      44.879 -22.614   3.981  1.00  0.00    -0.356 OA
HETATM   28  C   UNL     1      45.224 -22.519   5.358  1.00  0.00     0.210 C 
ENDBRANCH   1  27
TORSDOF 3
ENDMDL
MODEL 8
REMARK VINA RESULT:      -8.3      4.938      9.286
REMARK  3 active torsions:
REMARK  status: ('A' for Active; 'I' for Inactive)
REMARK    1  A    between atoms: O_2  and  C_3 
REMARK    2  A    between atoms: C_9  and  C_10 
REMARK       I    between atoms: C_10  and  N_11 
REMARK    3  A    between atoms: N_11  and  C_12 
ROOT
HETATM    1  C   UNL     1      39.933  -9.702   6.205  1.00  0.00     0.068 A 
HETATM    2  C   UNL     1      39.519 -10.697   5.315  1.00  0.00     0.044 A 
HETATM    3  C   UNL     1      40.195 -11.922   5.245  1.00  0.00    -0.043 A 
HETATM    4  C   UNL     1      41.326 -12.135   6.066  1.00  0.00    -0.001 A 
HETATM    5  C   UNL     1      41.971 -13.432   5.954  1.00  0.00     0.069 A 
HETATM    6  C   UNL     1      41.439 -14.510   5.280  1.00  0.00     0.007 A 
HETATM    7  C   UNL     1      42.370 -15.564   5.450  1.00  0.00     0.153 A 
HETATM    8  N   UNL     1      43.441 -15.145   6.166  1.00  0.00    -0.168 NA
HETATM    9  N   UNL     1      43.164 -13.855   6.451  1.00  0.00    -0.276 N 
HETATM   10  H   UNL     1      43.840 -13.324   6.989  1.00  0.00     0.189 HD
HETATM   11  C   UNL     1      40.111 -14.432   4.612  1.00  0.00     0.048 C 
HETATM   12  C   UNL     1      39.772 -12.973   4.223  1.00  0.00     0.044 C 
HETATM   13  C   UNL     1      41.742 -11.139   6.950  1.00  0.00     0.017 A 
HETATM   14  C   UNL     1      41.045  -9.926   7.019  1.00  0.00     0.037 A 
ENDROOT
BRANCH   7  15
HETATM   15  C   UNL     1      42.265 -16.957   4.970  1.00  0.00     0.277 C 
HETATM   16  N   UNL     1      43.464 -17.403   4.446  1.00  0.00    -0.322 N 
HETATM   17  H   UNL     1      44.193 -16.691   4.472  1.00  0.00     0.169 HD
HETATM   18  O   UNL     1      41.225 -17.599   5.056  1.00  0.00    -0.266 OA
BRANCH  16  19
HETATM   19  C   UNL     1      43.781 -18.669   3.928  1.00  0.00     0.036 A 
HETATM   20  C   UNL     1      44.323 -19.709   4.689  1.00  0.00     0.056 A 
HETATM   21  C   UNL     1      44.618 -20.936   4.088  1.00  0.00     0.074 A 
HETATM   22 CL   UNL     1      45.290 -22.206   5.040  1.00  0.00    -0.081 Cl
HETATM   23  C   UNL     1      44.374 -21.126   2.731  1.00  0.00     0.138 A 
HETATM   24  F   UNL     1      44.654 -22.296   2.138  1.00  0.00    -0.204 F 
HETATM   25  C   UNL     1      43.834 -20.101   1.963  1.00  0.00     0.046 A 
HETATM   26  C   UNL     1      43.539 -18.874   2.562  1.00  0.00     0.032 A 
ENDBRANCH  16  19
ENDBRANCH   7  15
BRANCH   1  27
HETATM   27  O   UNL     1      39.175  -8.563   6.178  1.00  0.00    -0.356 OA
HETATM   28  C   UNL     1      38.634  -8.118   7.415  1.00  0.00     0.210 C 
ENDBRANCH   1  27
TORSDOF 3
ENDMDL
MODEL 9
REMARK VINA RESULT:      -8.2      6.675      9.095
REMARK  3 active torsions:
REMARK  status: ('A' for Active; 'I' for Inactive)
REMARK    1  A    between atoms: O_2  and  C_3 
REMARK    2  A    between atoms: C_9  and  C_10 
REMARK       I    between atoms: C_10  and  N_11 
REMARK    3  A    between atoms: N_11  and  C_12 
ROOT
HETATM    1  C   UNL     1      37.785 -13.371  -2.905  1.00  0.00     0.068 A 
HETATM    2  C   UNL     1      38.928 -14.170  -3.009  1.00  0.00     0.044 A 
HETATM    3  C   UNL     1      39.730 -14.422  -1.888  1.00  0.00    -0.043 A 
HETATM    4  C   UNL     1      39.389 -13.836  -0.648  1.00  0.00    -0.001 A 
HETATM    5  C   UNL     1      40.255 -14.151   0.476  1.00  0.00     0.069 A 
HETATM    6  C   UNL     1      41.227 -15.126   0.460  1.00  0.00     0.007 A 
HETATM    7  C   UNL     1      41.800 -15.117   1.755  1.00  0.00     0.153 A 
HETATM    8  N   UNL     1      41.230 -14.157   2.523  1.00  0.00    -0.168 NA
HETATM    9  N   UNL     1      40.303 -13.596   1.717  1.00  0.00    -0.276 N 
HETATM   10  H   UNL     1      39.742 -12.836   2.084  1.00  0.00     0.189 HD
HETATM   11  C   UNL     1      41.460 -15.972  -0.743  1.00  0.00     0.048 C 
HETATM   12  C   UNL     1      41.009 -15.242  -2.030  1.00  0.00     0.044 C 
HETATM   13  C   UNL     1      38.253 -13.033  -0.546  1.00  0.00     0.017 A 
HETATM   14  C   UNL     1      37.452 -12.804  -1.673  1.00  0.00     0.037 A 
ENDROOT
BRANCH   7  15
HETATM   15  C   UNL     1      42.856 -16.001   2.290  1.00  0.00     0.277 C 
HETATM   16  N   UNL     1      42.398 -17.295   2.452  1.00  0.00    -0.322 N 
HETATM   17  H   UNL     1      41.419 -17.400   2.189  1.00  0.00     0.169 HD
HETATM   18  O   UNL     1      43.985 -15.592   2.536  1.00  0.00    -0.266 OA
BRANCH  16  19
HETATM   19  C   UNL     1      43.100 -18.427   2.896  1.00  0.00     0.036 A 
HETATM   20  C   UNL     1      43.384 -19.533   2.089  1.00  0.00     0.056 A 
HETATM   21  C   UNL     1      44.080 -20.624   2.617  1.00  0.00     0.074 A 
HETATM   22 CL   UNL     1      44.418 -21.982   1.611  1.00  0.00    -0.081 Cl
HETATM   23  C   UNL     1      44.493 -20.612   3.946  1.00  0.00     0.138 A 
HETATM   24  F   UNL     1      45.160 -21.651   4.470  1.00  0.00    -0.204 F 
HETATM   25  C   UNL     1      44.219 -19.518   4.759  1.00  0.00     0.046 A 
HETATM   26  C   UNL     1      43.523 -18.427   4.233  1.00  0.00     0.032 A 
ENDBRANCH  16  19
ENDBRANCH   7  15
BRANCH   1  27
HETATM   27  O   UNL     1      37.090 -13.219  -4.073  1.00  0.00    -0.356 OA
HETATM   28  C   UNL     1      36.321 -14.330  -4.515  1.00  0.00     0.210 C 
ENDBRANCH   1  27
TORSDOF 3
ENDMDL
MODEL 10
REMARK VINA RESULT:      -8.2      5.789      8.872
REMARK  3 active torsions:
REMARK  status: ('A' for Active; 'I' for Inactive)
REMARK    1  A    between atoms: O_2  and  C_3 
REMARK    2  A    between atoms: C_9  and  C_10 
REMARK       I    between atoms: C_10  and  N_11 
REMARK    3  A    between atoms: N_11  and  C_12 
ROOT
HETATM    1  C   UNL     1      37.643 -11.563   1.696  1.00  0.00     0.068 A 
HETATM    2  C   UNL     1      37.952 -12.795   1.112  1.00  0.00     0.044 A 
HETATM    3  C   UNL     1      39.188 -13.411   1.350  1.00  0.00    -0.043 A 
HETATM    4  C   UNL     1      40.139 -12.758   2.167  1.00  0.00    -0.001 A 
HETATM    5  C   UNL     1      41.394 -13.459   2.384  1.00  0.00     0.069 A 
HETATM    6  C   UNL     1      41.623 -14.771   2.034  1.00  0.00     0.007 A 
HETATM    7  C   UNL     1      42.947 -15.053   2.450  1.00  0.00     0.153 A 
HETATM    8  N   UNL     1      43.519 -13.954   3.001  1.00  0.00    -0.168 NA
HETATM    9  N   UNL     1      42.551 -13.014   2.942  1.00  0.00    -0.276 N 
HETATM   10  H   UNL     1      42.757 -12.089   3.302  1.00  0.00     0.189 HD
HETATM   11  C   UNL     1      40.562 -15.605   1.405  1.00  0.00     0.048 C 
HETATM   12  C   UNL     1      39.536 -14.723   0.654  1.00  0.00     0.044 C 
HETATM   13  C   UNL     1      39.833 -11.526   2.744  1.00  0.00     0.017 A 
HETATM   14  C   UNL     1      38.586 -10.931   2.510  1.00  0.00     0.037 A 
ENDROOT
BRANCH   7  15
HETATM   15  C   UNL     1      43.677 -16.333   2.359  1.00  0.00     0.277 C 
HETATM   16  N   UNL     1      43.430 -17.136   3.458  1.00  0.00    -0.322 N 
HETATM   17  H   UNL     1      42.805 -16.696   4.132  1.00  0.00     0.169 HD
HETATM   18  O   UNL     1      44.396 -16.607   1.405  1.00  0.00    -0.266 OA
BRANCH  16  19
HETATM   19  C   UNL     1      43.901 -18.431   3.724  1.00  0.00     0.036 A 
HETATM   20  C   UNL     1      43.929 -19.460   2.779  1.00  0.00     0.056 A 
HETATM   21  C   UNL     1      44.406 -20.725   3.135  1.00  0.00     0.074 A 
HETATM   22 CL   UNL     1      44.429 -21.985   1.959  1.00  0.00    -0.081 Cl
HETATM   23  C   UNL     1      44.855 -20.963   4.431  1.00  0.00     0.138 A 
HETATM   24  F   UNL     1      45.314 -22.171   4.790  1.00  0.00    -0.204 F 
HETATM   25  C   UNL     1      44.835 -19.948   5.380  1.00  0.00     0.046 A 
HETATM   26  C   UNL     1      44.358 -18.684   5.026  1.00  0.00     0.032 A 
ENDBRANCH  16  19
ENDBRANCH   7  15
BRANCH   1  27
HETATM   27  O   UNL     1      36.398 -11.085   1.390  1.00  0.00    -0.356 OA
HETATM   28  C   UNL     1      35.918 -11.335   0.075  1.00  0.00     0.210 C 
ENDBRANCH   1  27
TORSDOF 3
ENDMDL
