MODEL 1
REMARK VINA RESULT:      -7.9      0.000      0.000
REMARK  6 active torsions:
REMARK  status: ('A' for Active; 'I' for Inactive)
REMARK    1  A    between atoms: C_2  and  O_3 
REMARK    2  A    between atoms: O_3  and  C_4 
REMARK    3  A    between atoms: C_7  and  N_8 
REMARK    4  A    between atoms: C_9  and  C_11 
REMARK    5  A    between atoms: C_9  and  O_10 
REMARK       I    between atoms: C_11  and  N_12 
REMARK    6  A    between atoms: N_12  and  C_13 
ROOT
HETATM    1  N   UNL     1      43.256 -15.922   4.958  1.00  0.00    -0.254 N 
HETATM    2  C   UNL     1      43.212 -16.741   3.734  1.00  0.00     0.256 C 
HETATM    3  C   UNL     1      43.743 -18.152   3.888  1.00  0.00     0.035 A 
HETATM    4  C   UNL     1      44.400 -18.502   5.059  1.00  0.00     0.048 A 
HETATM    5  N   UNL     1      44.519 -17.565   6.071  1.00  0.00    -0.308 N 
HETATM    6  C   UNL     1      43.952 -16.329   6.083  1.00  0.00     0.330 C 
HETATM    7  O   UNL     1      44.124 -15.645   7.092  1.00  0.00    -0.246 OA
HETATM    8  C   UNL     1      43.628 -19.119   2.871  1.00  0.00     0.034 A 
HETATM    9  C   UNL     1      44.143 -20.402   3.057  1.00  0.00     0.011 A 
HETATM   10 BR   UNL     1      43.945 -21.699   1.696  1.00  0.00    -0.051 Br
HETATM   11  C   UNL     1      44.801 -20.736   4.237  1.00  0.00     0.021 A 
HETATM   12  C   UNL     1      44.937 -19.778   5.240  1.00  0.00     0.031 A 
HETATM   13  H   UNL     1      45.000 -17.804   6.929  1.00  0.00     0.170 HD
ENDROOT
BRANCH   1  14
HETATM   14  C   UNL     1      42.455 -14.725   5.024  1.00  0.00     0.043 A 
HETATM   15  C   UNL     1      42.826 -13.542   4.373  1.00  0.00     0.032 A 
HETATM   16  C   UNL     1      41.985 -12.422   4.390  1.00  0.00     0.039 A 
HETATM   17  C   UNL     1      40.743 -12.474   5.020  1.00  0.00     0.068 A 
HETATM   18  C   UNL     1      40.370 -13.636   5.688  1.00  0.00     0.039 A 
HETATM   19  C   UNL     1      41.225 -14.746   5.696  1.00  0.00     0.032 A 
BRANCH  17  20
HETATM   20  O   UNL     1      39.999 -11.332   4.930  1.00  0.00    -0.352 OA
BRANCH  20  21
HETATM   21  C   UNL     1      38.648 -11.495   4.495  1.00  0.00     0.171 C 
HETATM   22  C   UNL     1      38.624 -11.360   2.983  1.00  0.00     0.034 C 
ENDBRANCH  20  21
ENDBRANCH  17  20
ENDBRANCH   1  14
BRANCH   2  23
HETATM   23  C   UNL     1      41.710 -16.830   3.219  1.00  0.00     0.279 C 
HETATM   24  N   UNL     1      41.483 -16.050   2.089  1.00  0.00    -0.352 N 
HETATM   25  H   UNL     1      42.281 -15.541   1.718  1.00  0.00     0.163 HD
HETATM   26  O   UNL     1      40.838 -17.501   3.766  1.00  0.00    -0.268 OA
BRANCH  24  27
HETATM   27  C   UNL     1      40.194 -15.865   1.514  1.00  0.00     0.084 A 
HETATM   28  C   UNL     1      39.202 -14.903   2.109  1.00  0.00     0.027 A 
HETATM   29  C   UNL     1      39.864 -14.579   0.804  1.00  0.00     0.027 A 
ENDBRANCH  24  27
ENDBRANCH   2  23
BRANCH   2  30
HETATM   30  O   UNL     1      44.085 -16.119   2.789  1.00  0.00    -0.359 OA
HETATM   31  H   UNL     1      43.627 -15.286   2.579  1.00  0.00     0.213 HD
ENDBRANCH   2  30
TORSDOF 6
ENDMDL
MODEL 2
REMARK VINA RESULT:      -7.5      3.079      7.417
REMARK  6 active torsions:
REMARK  status: ('A' for Active; 'I' for Inactive)
REMARK    1  A    between atoms: C_2  and  O_3 
REMARK    2  A    between atoms: O_3  and  C_4 
REMARK    3  A    between atoms: C_7  and  N_8 
REMARK    4  A    between atoms: C_9  and  C_11 
REMARK    5  A    between atoms: C_9  and  O_10 
REMARK       I    between atoms: C_11  and  N_12 
REMARK    6  A    between atoms: N_12  and  C_13 
ROOT
HETATM    1  N   UNL     1      41.343 -15.942   2.849  1.00  0.00    -0.254 N 
HETATM    2  C   UNL     1      41.528 -14.509   3.140  1.00  0.00     0.256 C 
HETATM    3  C   UNL     1      40.380 -13.616   2.713  1.00  0.00     0.035 A 
HETATM    4  C   UNL     1      39.369 -14.146   1.924  1.00  0.00     0.048 A 
HETATM    5  N   UNL     1      39.416 -15.487   1.581  1.00  0.00    -0.308 N 
HETATM    6  C   UNL     1      40.320 -16.395   2.034  1.00  0.00     0.330 C 
HETATM    7  O   UNL     1      40.180 -17.559   1.660  1.00  0.00    -0.246 OA
HETATM    8  C   UNL     1      40.315 -12.252   3.056  1.00  0.00     0.034 A 
HETATM    9  C   UNL     1      39.242 -11.468   2.629  1.00  0.00     0.011 A 
HETATM   10 BR   UNL     1      39.150  -9.649   3.133  1.00  0.00    -0.051 Br
HETATM   11  C   UNL     1      38.237 -12.016   1.838  1.00  0.00     0.021 A 
HETATM   12  C   UNL     1      38.305 -13.361   1.476  1.00  0.00     0.031 A 
HETATM   13  H   UNL     1      38.688 -15.887   1.002  1.00  0.00     0.170 HD
ENDROOT
BRANCH   1  14
HETATM   14  C   UNL     1      42.176 -16.902   3.528  1.00  0.00     0.043 A 
HETATM   15  C   UNL     1      41.771 -17.541   4.707  1.00  0.00     0.032 A 
HETATM   16  C   UNL     1      42.570 -18.528   5.296  1.00  0.00     0.039 A 
HETATM   17  C   UNL     1      43.767 -18.925   4.702  1.00  0.00     0.068 A 
HETATM   18  C   UNL     1      44.191 -18.285   3.542  1.00  0.00     0.039 A 
HETATM   19  C   UNL     1      43.406 -17.277   2.969  1.00  0.00     0.032 A 
BRANCH  17  20
HETATM   20  O   UNL     1      44.433 -19.927   5.351  1.00  0.00    -0.352 OA
BRANCH  20  21
HETATM   21  C   UNL     1      45.064 -20.902   4.520  1.00  0.00     0.171 C 
HETATM   22  C   UNL     1      44.915 -22.256   5.191  1.00  0.00     0.034 C 
ENDBRANCH  20  21
ENDBRANCH  17  20
ENDBRANCH   1  14
BRANCH   2  23
HETATM   23  C   UNL     1      41.750 -14.318   4.703  1.00  0.00     0.279 C 
HETATM   24  N   UNL     1      43.082 -14.083   5.030  1.00  0.00    -0.352 N 
HETATM   25  H   UNL     1      43.742 -14.040   4.258  1.00  0.00     0.163 HD
HETATM   26  O   UNL     1      40.848 -14.385   5.535  1.00  0.00    -0.268 OA
BRANCH  24  27
HETATM   27  C   UNL     1      43.554 -14.002   6.371  1.00  0.00     0.084 A 
HETATM   28  C   UNL     1      44.141 -15.200   7.068  1.00  0.00     0.027 A 
HETATM   29  C   UNL     1      45.031 -14.067   6.654  1.00  0.00     0.027 A 
ENDBRANCH  24  27
ENDBRANCH   2  23
BRANCH   2  30
HETATM   30  O   UNL     1      42.645 -14.070   2.364  1.00  0.00    -0.359 OA
HETATM   31  H   UNL     1      42.227 -13.595   1.625  1.00  0.00     0.213 HD
ENDBRANCH   2  30
TORSDOF 6
ENDMDL
MODEL 3
REMARK VINA RESULT:      -7.4      1.992      4.035
REMARK  6 active torsions:
REMARK  status: ('A' for Active; 'I' for Inactive)
REMARK    1  A    between atoms: C_2  and  O_3 
REMARK    2  A    between atoms: O_3  and  C_4 
REMARK    3  A    between atoms: C_7  and  N_8 
REMARK    4  A    between atoms: C_9  and  C_11 
REMARK    5  A    between atoms: C_9  and  O_10 
REMARK       I    between atoms: C_11  and  N_12 
REMARK    6  A    between atoms: N_12  and  C_13 
ROOT
HETATM    1  N   UNL     1      41.585 -15.423   3.861  1.00  0.00    -0.254 N 
HETATM    2  C   UNL     1      41.898 -16.632   4.643  1.00  0.00     0.256 C 
HETATM    3  C   UNL     1      42.795 -17.633   3.942  1.00  0.00     0.035 A 
HETATM    4  C   UNL     1      43.081 -17.457   2.595  1.00  0.00     0.048 A 
HETATM    5  N   UNL     1      42.571 -16.350   1.938  1.00  0.00    -0.308 N 
HETATM    6  C   UNL     1      41.883 -15.328   2.513  1.00  0.00     0.330 C 
HETATM    7  O   UNL     1      41.547 -14.398   1.780  1.00  0.00    -0.246 OA
HETATM    8  C   UNL     1      43.325 -18.762   4.595  1.00  0.00     0.034 A 
HETATM    9  C   UNL     1      44.138 -19.661   3.903  1.00  0.00     0.011 A 
HETATM   10 BR   UNL     1      44.873 -21.149   4.807  1.00  0.00    -0.051 Br
HETATM   11  C   UNL     1      44.413 -19.470   2.553  1.00  0.00     0.021 A 
HETATM   12  C   UNL     1      43.875 -18.366   1.893  1.00  0.00     0.031 A 
HETATM   13  H   UNL     1      42.767 -16.210   0.955  1.00  0.00     0.170 HD
ENDROOT
BRANCH   1  14
HETATM   14  C   UNL     1      41.066 -14.267   4.548  1.00  0.00     0.043 A 
HETATM   15  C   UNL     1      39.808 -14.266   5.164  1.00  0.00     0.032 A 
HETATM   16  C   UNL     1      39.368 -13.154   5.891  1.00  0.00     0.039 A 
HETATM   17  C   UNL     1      40.188 -12.038   6.052  1.00  0.00     0.068 A 
HETATM   18  C   UNL     1      41.432 -12.016   5.429  1.00  0.00     0.039 A 
HETATM   19  C   UNL     1      41.859 -13.118   4.677  1.00  0.00     0.032 A 
BRANCH  17  20
HETATM   20  O   UNL     1      39.662 -11.037   6.819  1.00  0.00    -0.352 OA
BRANCH  20  21
HETATM   21  C   UNL     1      40.351 -10.750   8.037  1.00  0.00     0.171 C 
HETATM   22  C   UNL     1      39.407 -11.045   9.189  1.00  0.00     0.034 C 
ENDBRANCH  20  21
ENDBRANCH  17  20
ENDBRANCH   1  14
BRANCH   2  23
HETATM   23  C   UNL     1      42.599 -16.207   6.005  1.00  0.00     0.279 C 
HETATM   24  N   UNL     1      43.722 -15.411   5.804  1.00  0.00    -0.352 N 
HETATM   25  H   UNL     1      43.953 -15.180   4.842  1.00  0.00     0.163 HD
HETATM   26  O   UNL     1      42.203 -16.555   7.116  1.00  0.00    -0.268 OA
BRANCH  24  27
HETATM   27  C   UNL     1      44.591 -15.006   6.858  1.00  0.00     0.084 A 
HETATM   28  C   UNL     1      45.536 -13.848   6.692  1.00  0.00     0.027 A 
HETATM   29  C   UNL     1      44.340 -13.712   7.584  1.00  0.00     0.027 A 
ENDBRANCH  24  27
ENDBRANCH   2  23
BRANCH   2  30
HETATM   30  O   UNL     1      40.664 -17.324   4.847  1.00  0.00    -0.359 OA
HETATM   31  H   UNL     1      40.062 -16.618   5.144  1.00  0.00     0.213 HD
ENDBRANCH   2  30
TORSDOF 6
ENDMDL
MODEL 4
REMARK VINA RESULT:      -7.4      3.155      6.731
REMARK  6 active torsions:
REMARK  status: ('A' for Active; 'I' for Inactive)
REMARK    1  A    between atoms: C_2  and  O_3 
REMARK    2  A    between atoms: O_3  and  C_4 
REMARK    3  A    between atoms: C_7  and  N_8 
REMARK    4  A    between atoms: C_9  and  C_11 
REMARK    5  A    between atoms: C_9  and  O_10 
REMARK       I    between atoms: C_11  and  N_12 
REMARK    6  A    between atoms: N_12  and  C_13 
ROOT
HETATM    1  N   UNL     1      42.149 -15.011   5.391  1.00  0.00    -0.254 N 
HETATM    2  C   UNL     1      40.885 -14.493   4.840  1.00  0.00     0.256 C 
HETATM    3  C   UNL     1      40.645 -13.014   5.071  1.00  0.00     0.035 A 
HETATM    4  C   UNL     1      41.487 -12.318   5.926  1.00  0.00     0.048 A 
HETATM    5  N   UNL     1      42.548 -12.984   6.515  1.00  0.00    -0.308 N 
HETATM    6  C   UNL     1      42.928 -14.264   6.257  1.00  0.00     0.330 C 
HETATM    7  O   UNL     1      43.931 -14.678   6.840  1.00  0.00    -0.246 OA
HETATM    8  C   UNL     1      39.573 -12.320   4.477  1.00  0.00     0.034 A 
HETATM    9  C   UNL     1      39.388 -10.959   4.729  1.00  0.00     0.011 A 
HETATM   10 BR   UNL     1      37.967 -10.035   3.892  1.00  0.00    -0.051 Br
HETATM   11  C   UNL     1      40.242 -10.277   5.590  1.00  0.00     0.021 A 
HETATM   12  C   UNL     1      41.293 -10.962   6.198  1.00  0.00     0.031 A 
HETATM   13  H   UNL     1      43.169 -12.491   7.144  1.00  0.00     0.170 HD
ENDROOT
BRANCH   1  14
HETATM   14  C   UNL     1      42.644 -16.280   4.920  1.00  0.00     0.043 A 
HETATM   15  C   UNL     1      42.236 -17.496   5.482  1.00  0.00     0.032 A 
HETATM   16  C   UNL     1      42.673 -18.714   4.947  1.00  0.00     0.039 A 
HETATM   17  C   UNL     1      43.493 -18.744   3.820  1.00  0.00     0.068 A 
HETATM   18  C   UNL     1      43.923 -17.543   3.264  1.00  0.00     0.039 A 
HETATM   19  C   UNL     1      43.509 -16.325   3.817  1.00  0.00     0.032 A 
BRANCH  17  20
HETATM   20  O   UNL     1      43.816 -19.993   3.370  1.00  0.00    -0.352 OA
BRANCH  20  21
HETATM   21  C   UNL     1      43.528 -20.260   1.996  1.00  0.00     0.171 C 
HETATM   22  C   UNL     1      43.894 -21.706   1.714  1.00  0.00     0.034 C 
ENDBRANCH  20  21
ENDBRANCH  17  20
ENDBRANCH   1  14
BRANCH   2  23
HETATM   23  C   UNL     1      40.847 -14.763   3.273  1.00  0.00     0.279 C 
HETATM   24  N   UNL     1      40.186 -15.943   2.949  1.00  0.00    -0.352 N 
HETATM   25  H   UNL     1      39.795 -16.475   3.721  1.00  0.00     0.163 HD
HETATM   26  O   UNL     1      41.359 -14.020   2.439  1.00  0.00    -0.268 OA
BRANCH  24  27
HETATM   27  C   UNL     1      40.127 -16.466   1.626  1.00  0.00     0.084 A 
HETATM   28  C   UNL     1      41.355 -16.547   0.760  1.00  0.00     0.027 A 
HETATM   29  C   UNL     1      40.751 -17.801   1.316  1.00  0.00     0.027 A 
ENDBRANCH  24  27
ENDBRANCH   2  23
BRANCH   2  30
HETATM   30  O   UNL     1      39.827 -15.151   5.541  1.00  0.00    -0.359 OA
HETATM   31  H   UNL     1      39.490 -15.787   4.886  1.00  0.00     0.213 HD
ENDBRANCH   2  30
TORSDOF 6
ENDMDL
MODEL 5
REMARK VINA RESULT:      -7.4      3.241      6.913
REMARK  6 active torsions:
REMARK  status: ('A' for Active; 'I' for Inactive)
REMARK    1  A    between atoms: C_2  and  O_3 
REMARK    2  A    between atoms: O_3  and  C_4 
REMARK    3  A    between atoms: C_7  and  N_8 
REMARK    4  A    between atoms: C_9  and  C_11 
REMARK    5  A    between atoms: C_9  and  O_10 
REMARK       I    between atoms: C_11  and  N_12 
REMARK    6  A    between atoms: N_12  and  C_13 
ROOT
HETATM    1  N   UNL     1      42.102 -14.632   3.583  1.00  0.00    -0.254 N 
HETATM    2  C   UNL     1      40.701 -14.464   3.159  1.00  0.00     0.256 C 
HETATM    3  C   UNL     1      40.259 -13.027   2.965  1.00  0.00     0.035 A 
HETATM    4  C   UNL     1      41.095 -12.001   3.381  1.00  0.00     0.048 A 
HETATM    5  N   UNL     1      42.328 -12.316   3.926  1.00  0.00    -0.308 N 
HETATM    6  C   UNL     1      42.869 -13.561   4.006  1.00  0.00     0.330 C 
HETATM    7  O   UNL     1      44.003 -13.649   4.480  1.00  0.00    -0.246 OA
HETATM    8  C   UNL     1      39.011 -12.687   2.409  1.00  0.00     0.034 A 
HETATM    9  C   UNL     1      38.645 -11.349   2.261  1.00  0.00     0.011 A 
HETATM   10 BR   UNL     1      36.981 -10.912   1.476  1.00  0.00    -0.051 Br
HETATM   11  C   UNL     1      39.495 -10.333   2.685  1.00  0.00     0.021 A 
HETATM   12  C   UNL     1      40.724 -10.660   3.256  1.00  0.00     0.031 A 
HETATM   13  H   UNL     1      42.947 -11.579   4.239  1.00  0.00     0.170 HD
ENDROOT
BRANCH   1  14
HETATM   14  C   UNL     1      42.721 -15.925   3.438  1.00  0.00     0.043 A 
HETATM   15  C   UNL     1      42.500 -16.966   4.349  1.00  0.00     0.032 A 
HETATM   16  C   UNL     1      43.053 -18.234   4.135  1.00  0.00     0.039 A 
HETATM   17  C   UNL     1      43.802 -18.500   2.990  1.00  0.00     0.068 A 
HETATM   18  C   UNL     1      44.047 -17.471   2.086  1.00  0.00     0.039 A 
HETATM   19  C   UNL     1      43.518 -16.194   2.316  1.00  0.00     0.032 A 
BRANCH  17  20
HETATM   20  O   UNL     1      44.250 -19.786   2.875  1.00  0.00    -0.352 OA
BRANCH  20  21
HETATM   21  C   UNL     1      43.582 -20.600   1.910  1.00  0.00     0.171 C 
HETATM   22  C   UNL     1      44.310 -21.930   1.835  1.00  0.00     0.034 C 
ENDBRANCH  20  21
ENDBRANCH  17  20
ENDBRANCH   1  14
BRANCH   2  23
HETATM   23  C   UNL     1      40.472 -15.242   1.791  1.00  0.00     0.279 C 
HETATM   24  N   UNL     1      41.011 -14.573   0.697  1.00  0.00    -0.352 N 
HETATM   25  H   UNL     1      41.494 -13.699   0.888  1.00  0.00     0.163 HD
HETATM   26  O   UNL     1      39.870 -16.311   1.704  1.00  0.00    -0.268 OA
BRANCH  24  27
HETATM   27  C   UNL     1      40.830 -15.003  -0.648  1.00  0.00     0.084 A 
HETATM   28  C   UNL     1      39.871 -14.302  -1.572  1.00  0.00     0.027 A 
HETATM   29  C   UNL     1      41.348 -14.161  -1.784  1.00  0.00     0.027 A 
ENDBRANCH  24  27
ENDBRANCH   2  23
BRANCH   2  30
HETATM   30  O   UNL     1      39.884 -14.960   4.222  1.00  0.00    -0.359 OA
HETATM   31  H   UNL     1      40.329 -14.622   5.018  1.00  0.00     0.213 HD
ENDBRANCH   2  30
TORSDOF 6
ENDMDL
MODEL 6
REMARK VINA RESULT:      -7.3      2.588      4.857
REMARK  6 active torsions:
REMARK  status: ('A' for Active; 'I' for Inactive)
REMARK    1  A    between atoms: C_2  and  O_3 
REMARK    2  A    between atoms: O_3  and  C_4 
REMARK    3  A    between atoms: C_7  and  N_8 
REMARK    4  A    between atoms: C_9  and  C_11 
REMARK    5  A    between atoms: C_9  and  O_10 
REMARK       I    between atoms: C_11  and  N_12 
REMARK    6  A    between atoms: N_12  and  C_13 
ROOT
HETATM    1  N   UNL     1      40.404 -15.175   0.914  1.00  0.00    -0.254 N 
HETATM    2  C   UNL     1      40.599 -15.971   2.139  1.00  0.00     0.256 C 
HETATM    3  C   UNL     1      41.828 -16.858   2.136  1.00  0.00     0.035 A 
HETATM    4  C   UNL     1      42.543 -17.019   0.958  1.00  0.00     0.048 A 
HETATM    5  N   UNL     1      42.137 -16.332  -0.174  1.00  0.00    -0.308 N 
HETATM    6  C   UNL     1      41.143 -15.408  -0.232  1.00  0.00     0.330 C 
HETATM    7  O   UNL     1      40.951 -14.859  -1.318  1.00  0.00    -0.246 OA
HETATM    8  C   UNL     1      42.256 -17.560   3.279  1.00  0.00     0.034 A 
HETATM    9  C   UNL     1      43.389 -18.374   3.223  1.00  0.00     0.011 A 
HETATM   10 BR   UNL     1      43.972 -19.278   4.777  1.00  0.00    -0.051 Br
HETATM   11  C   UNL     1      44.093 -18.525   2.033  1.00  0.00     0.021 A 
HETATM   12  C   UNL     1      43.663 -17.849   0.892  1.00  0.00     0.031 A 
HETATM   13  H   UNL     1      42.646 -16.443  -1.043  1.00  0.00     0.170 HD
ENDROOT
BRANCH   1  14
HETATM   14  C   UNL     1      39.505 -14.049   0.953  1.00  0.00     0.043 A 
HETATM   15  C   UNL     1      39.964 -12.730   1.058  1.00  0.00     0.032 A 
HETATM   16  C   UNL     1      39.069 -11.654   1.011  1.00  0.00     0.039 A 
HETATM   17  C   UNL     1      37.705 -11.870   0.819  1.00  0.00     0.068 A 
HETATM   18  C   UNL     1      37.232 -13.176   0.734  1.00  0.00     0.039 A 
HETATM   19  C   UNL     1      38.125 -14.253   0.810  1.00  0.00     0.032 A 
BRANCH  17  20
HETATM   20  O   UNL     1      36.943 -10.739   0.749  1.00  0.00    -0.352 OA
BRANCH  20  21
HETATM   21  C   UNL     1      35.665 -10.880   0.126  1.00  0.00     0.171 C 
HETATM   22  C   UNL     1      34.603 -10.527   1.151  1.00  0.00     0.034 C 
ENDBRANCH  20  21
ENDBRANCH  17  20
ENDBRANCH   1  14
BRANCH   2  23
HETATM   23  C   UNL     1      40.697 -14.992   3.388  1.00  0.00     0.279 C 
HETATM   24  N   UNL     1      41.968 -14.449   3.545  1.00  0.00    -0.352 N 
HETATM   25  H   UNL     1      42.666 -14.713   2.856  1.00  0.00     0.163 HD
HETATM   26  O   UNL     1      39.757 -14.751   4.144  1.00  0.00    -0.268 OA
BRANCH  24  27
HETATM   27  C   UNL     1      42.340 -13.643   4.659  1.00  0.00     0.084 A 
HETATM   28  C   UNL     1      42.556 -14.242   6.022  1.00  0.00     0.027 A 
HETATM   29  C   UNL     1      43.729 -13.747   5.232  1.00  0.00     0.027 A 
ENDBRANCH  24  27
ENDBRANCH   2  23
BRANCH   2  30
HETATM   30  O   UNL     1      39.493 -16.872   2.227  1.00  0.00    -0.359 OA
HETATM   31  H   UNL     1      39.685 -17.378   3.036  1.00  0.00     0.213 HD
ENDBRANCH   2  30
TORSDOF 6
ENDMDL
MODEL 7
REMARK VINA RESULT:      -7.2      2.951      6.774
REMARK  6 active torsions:
REMARK  status: ('A' for Active; 'I' for Inactive)
REMARK    1  A    between atoms: C_2  and  O_3 
REMARK    2  A    between atoms: O_3  and  C_4 
REMARK    3  A    between atoms: C_7  and  N_8 
REMARK    4  A    between atoms: C_9  and  C_11 
REMARK    5  A    between atoms: C_9  and  O_10 
REMARK       I    between atoms: C_11  and  N_12 
REMARK    6  A    between atoms: N_12  and  C_13 
ROOT
HETATM    1  N   UNL     1      40.361 -14.978   3.577  1.00  0.00    -0.254 N 
HETATM    2  C   UNL     1      40.116 -15.237   2.148  1.00  0.00     0.256 C 
HETATM    3  C   UNL     1      39.475 -14.091   1.390  1.00  0.00     0.035 A 
HETATM    4  C   UNL     1      38.989 -13.001   2.099  1.00  0.00     0.048 A 
HETATM    5  N   UNL     1      39.138 -12.972   3.475  1.00  0.00    -0.308 N 
HETATM    6  C   UNL     1      39.824 -13.877   4.222  1.00  0.00     0.330 C 
HETATM    7  O   UNL     1      39.894 -13.666   5.433  1.00  0.00    -0.246 OA
HETATM    8  C   UNL     1      39.318 -14.102  -0.009  1.00  0.00     0.034 A 
HETATM    9  C   UNL     1      38.712 -13.026  -0.659  1.00  0.00     0.011 A 
HETATM   10 BR   UNL     1      38.546 -13.041  -2.542  1.00  0.00    -0.051 Br
HETATM   11  C   UNL     1      38.229 -11.942   0.067  1.00  0.00     0.021 A 
HETATM   12  C   UNL     1      38.361 -11.933   1.454  1.00  0.00     0.031 A 
HETATM   13  H   UNL     1      38.785 -12.186   4.006  1.00  0.00     0.170 HD
ENDROOT
BRANCH   1  14
HETATM   14  C   UNL     1      41.280 -15.829   4.290  1.00  0.00     0.043 A 
HETATM   15  C   UNL     1      40.942 -17.130   4.684  1.00  0.00     0.032 A 
HETATM   16  C   UNL     1      41.886 -17.958   5.303  1.00  0.00     0.039 A 
HETATM   17  C   UNL     1      43.194 -17.521   5.505  1.00  0.00     0.068 A 
HETATM   18  C   UNL     1      43.538 -16.224   5.137  1.00  0.00     0.039 A 
HETATM   19  C   UNL     1      42.586 -15.385   4.545  1.00  0.00     0.032 A 
BRANCH  17  20
HETATM   20  O   UNL     1      44.030 -18.437   6.078  1.00  0.00    -0.352 OA
BRANCH  20  21
HETATM   21  C   UNL     1      45.016 -19.012   5.219  1.00  0.00     0.171 C 
HETATM   22  C   UNL     1      44.619 -20.451   4.948  1.00  0.00     0.034 C 
ENDBRANCH  20  21
ENDBRANCH  17  20
ENDBRANCH   1  14
BRANCH   2  23
HETATM   23  C   UNL     1      41.494 -15.592   1.437  1.00  0.00     0.279 C 
HETATM   24  N   UNL     1      41.721 -16.962   1.363  1.00  0.00    -0.352 N 
HETATM   25  H   UNL     1      40.997 -17.567   1.741  1.00  0.00     0.163 HD
HETATM   26  O   UNL     1      42.281 -14.749   1.012  1.00  0.00    -0.268 OA
BRANCH  24  27
HETATM   27  C   UNL     1      42.938 -17.527   0.885  1.00  0.00     0.084 A 
HETATM   28  C   UNL     1      44.232 -17.345   1.631  1.00  0.00     0.027 A 
HETATM   29  C   UNL     1      43.565 -18.687   1.610  1.00  0.00     0.027 A 
ENDBRANCH  24  27
ENDBRANCH   2  23
BRANCH   2  30
HETATM   30  O   UNL     1      39.165 -16.302   2.076  1.00  0.00    -0.359 OA
HETATM   31  H   UNL     1      39.415 -16.871   2.826  1.00  0.00     0.213 HD
ENDBRANCH   2  30
TORSDOF 6
ENDMDL
MODEL 8
REMARK VINA RESULT:      -7.1      3.188      6.692
REMARK  6 active torsions:
REMARK  status: ('A' for Active; 'I' for Inactive)
REMARK    1  A    between atoms: C_2  and  O_3 
REMARK    2  A    between atoms: O_3  and  C_4 
REMARK    3  A    between atoms: C_7  and  N_8 
REMARK    4  A    between atoms: C_9  and  C_11 
REMARK    5  A    between atoms: C_9  and  O_10 
REMARK       I    between atoms: C_11  and  N_12 
REMARK    6  A    between atoms: N_12  and  C_13 
ROOT
HETATM    1  N   UNL     1      42.025 -15.089   5.187  1.00  0.00    -0.254 N 
HETATM    2  C   UNL     1      40.752 -14.518   4.711  1.00  0.00     0.256 C 
HETATM    3  C   UNL     1      40.577 -13.035   4.975  1.00  0.00     0.035 A 
HETATM    4  C   UNL     1      41.487 -12.383   5.795  1.00  0.00     0.048 A 
HETATM    5  N   UNL     1      42.553 -13.095   6.318  1.00  0.00    -0.308 N 
HETATM    6  C   UNL     1      42.873 -14.383   6.022  1.00  0.00     0.330 C 
HETATM    7  O   UNL     1      43.889 -14.841   6.546  1.00  0.00    -0.246 OA
HETATM    8  C   UNL     1      39.501 -12.295   4.449  1.00  0.00     0.034 A 
HETATM    9  C   UNL     1      39.377 -10.934   4.730  1.00  0.00     0.011 A 
HETATM   10 BR   UNL     1      37.949  -9.947   3.982  1.00  0.00    -0.051 Br
HETATM   11  C   UNL     1      40.298 -10.296   5.555  1.00  0.00     0.021 A 
HETATM   12  C   UNL     1      41.354 -11.026   6.097  1.00  0.00     0.031 A 
HETATM   13  H   UNL     1      43.222 -12.634   6.922  1.00  0.00     0.170 HD
ENDROOT
BRANCH   1  14
HETATM   14  C   UNL     1      42.450 -16.366   4.672  1.00  0.00     0.043 A 
HETATM   15  C   UNL     1      43.285 -16.479   3.553  1.00  0.00     0.032 A 
HETATM   16  C   UNL     1      43.745 -17.732   3.128  1.00  0.00     0.039 A 
HETATM   17  C   UNL     1      43.414 -18.888   3.831  1.00  0.00     0.068 A 
HETATM   18  C   UNL     1      42.569 -18.793   4.932  1.00  0.00     0.039 A 
HETATM   19  C   UNL     1      42.085 -17.543   5.340  1.00  0.00     0.032 A 
BRANCH  17  20
HETATM   20  O   UNL     1      43.959 -20.042   3.341  1.00  0.00    -0.352 OA
BRANCH  20  21
HETATM   21  C   UNL     1      43.682 -20.335   1.971  1.00  0.00     0.171 C 
HETATM   22  C   UNL     1      43.972 -21.807   1.739  1.00  0.00     0.034 C 
ENDBRANCH  20  21
ENDBRANCH  17  20
ENDBRANCH   1  14
BRANCH   2  23
HETATM   23  C   UNL     1      40.625 -14.761   3.144  1.00  0.00     0.279 C 
HETATM   24  N   UNL     1      41.450 -13.921   2.403  1.00  0.00    -0.352 N 
HETATM   25  H   UNL     1      42.038 -13.280   2.927  1.00  0.00     0.163 HD
HETATM   26  O   UNL     1      39.869 -15.589   2.640  1.00  0.00    -0.268 OA
BRANCH  24  27
HETATM   27  C   UNL     1      41.425 -13.860   0.980  1.00  0.00     0.084 A 
HETATM   28  C   UNL     1      40.412 -13.020   0.250  1.00  0.00     0.027 A 
HETATM   29  C   UNL     1      41.850 -12.600   0.274  1.00  0.00     0.027 A 
ENDBRANCH  24  27
ENDBRANCH   2  23
BRANCH   2  30
HETATM   30  O   UNL     1      39.710 -15.151   5.456  1.00  0.00    -0.359 OA
HETATM   31  H   UNL     1      39.410 -14.447   6.058  1.00  0.00     0.213 HD
ENDBRANCH   2  30
TORSDOF 6
ENDMDL
MODEL 9
REMARK VINA RESULT:      -6.6      3.345      6.356
REMARK  6 active torsions:
REMARK  status: ('A' for Active; 'I' for Inactive)
REMARK    1  A    between atoms: C_2  and  O_3 
REMARK    2  A    between atoms: O_3  and  C_4 
REMARK    3  A    between atoms: C_7  and  N_8 
REMARK    4  A    between atoms: C_9  and  C_11 
REMARK    5  A    between atoms: C_9  and  O_10 
REMARK       I    between atoms: C_11  and  N_12 
REMARK    6  A    between atoms: N_12  and  C_13 
ROOT
HETATM    1  N   UNL     1      41.950 -15.833   2.116  1.00  0.00    -0.254 N 
HETATM    2  C   UNL     1      41.401 -14.526   1.714  1.00  0.00     0.256 C 
HETATM    3  C   UNL     1      40.980 -14.427   0.261  1.00  0.00     0.035 A 
HETATM    4  C   UNL     1      41.316 -15.454  -0.610  1.00  0.00     0.048 A 
HETATM    5  N   UNL     1      41.992 -16.558  -0.121  1.00  0.00    -0.308 N 
HETATM    6  C   UNL     1      42.281 -16.802   1.185  1.00  0.00     0.330 C 
HETATM    7  O   UNL     1      42.848 -17.864   1.444  1.00  0.00    -0.246 OA
HETATM    8  C   UNL     1      40.289 -13.314  -0.253  1.00  0.00     0.034 A 
HETATM    9  C   UNL     1      39.933 -13.265  -1.601  1.00  0.00     0.011 A 
HETATM   10 BR   UNL     1      38.971 -11.780  -2.265  1.00  0.00    -0.051 Br
HETATM   11  C   UNL     1      40.279 -14.302  -2.461  1.00  0.00     0.021 A 
HETATM   12  C   UNL     1      40.981 -15.399  -1.965  1.00  0.00     0.031 A 
HETATM   13  H   UNL     1      42.248 -17.313  -0.745  1.00  0.00     0.170 HD
ENDROOT
BRANCH   1  14
HETATM   14  C   UNL     1      42.030 -16.152   3.519  1.00  0.00     0.043 A 
HETATM   15  C   UNL     1      41.119 -17.015   4.142  1.00  0.00     0.032 A 
HETATM   16  C   UNL     1      41.274 -17.367   5.488  1.00  0.00     0.039 A 
HETATM   17  C   UNL     1      42.358 -16.899   6.227  1.00  0.00     0.068 A 
HETATM   18  C   UNL     1      43.259 -16.025   5.628  1.00  0.00     0.039 A 
HETATM   19  C   UNL     1      43.088 -15.649   4.289  1.00  0.00     0.032 A 
BRANCH  17  20
HETATM   20  O   UNL     1      42.420 -17.348   7.516  1.00  0.00    -0.352 OA
BRANCH  20  21
HETATM   21  C   UNL     1      43.689 -17.841   7.950  1.00  0.00     0.171 C 
HETATM   22  C   UNL     1      43.820 -19.277   7.476  1.00  0.00     0.034 C 
ENDBRANCH  20  21
ENDBRANCH  17  20
ENDBRANCH   1  14
BRANCH   2  23
HETATM   23  C   UNL     1      40.138 -14.189   2.620  1.00  0.00     0.279 C 
HETATM   24  N   UNL     1      40.375 -13.139   3.501  1.00  0.00    -0.352 N 
HETATM   25  H   UNL     1      41.292 -12.704   3.457  1.00  0.00     0.163 HD
HETATM   26  O   UNL     1      39.072 -14.798   2.561  1.00  0.00    -0.268 OA
BRANCH  24  27
HETATM   27  C   UNL     1      39.444 -12.733   4.499  1.00  0.00     0.084 A 
HETATM   28  C   UNL     1      39.752 -11.602   5.443  1.00  0.00     0.027 A 
HETATM   29  C   UNL     1      38.726 -11.416   4.367  1.00  0.00     0.027 A 
ENDBRANCH  24  27
ENDBRANCH   2  23
BRANCH   2  30
HETATM   30  O   UNL     1      42.455 -13.572   1.858  1.00  0.00    -0.359 OA
HETATM   31  H   UNL     1      42.672 -13.624   2.805  1.00  0.00     0.213 HD
ENDBRANCH   2  30
TORSDOF 6
ENDMDL
MODEL 10
REMARK VINA RESULT:      -6.6      2.324      4.228
REMARK  6 active torsions:
REMARK  status: ('A' for Active; 'I' for Inactive)
REMARK    1  A    between atoms: C_2  and  O_3 
REMARK    2  A    between atoms: O_3  and  C_4 
REMARK    3  A    between atoms: C_7  and  N_8 
REMARK    4  A    between atoms: C_9  and  C_11 
REMARK    5  A    between atoms: C_9  and  O_10 
REMARK       I    between atoms: C_11  and  N_12 
REMARK    6  A    between atoms: N_12  and  C_13 
ROOT
HETATM    1  N   UNL     1      41.077 -16.061   1.973  1.00  0.00    -0.254 N 
HETATM    2  C   UNL     1      41.301 -16.376   3.395  1.00  0.00     0.256 C 
HETATM    3  C   UNL     1      42.444 -17.333   3.667  1.00  0.00     0.035 A 
HETATM    4  C   UNL     1      43.045 -17.988   2.601  1.00  0.00     0.048 A 
HETATM    5  N   UNL     1      42.611 -17.718   1.314  1.00  0.00    -0.308 N 
HETATM    6  C   UNL     1      41.699 -16.774   0.962  1.00  0.00     0.330 C 
HETATM    7  O   UNL     1      41.469 -16.639  -0.240  1.00  0.00    -0.246 OA
HETATM    8  C   UNL     1      42.901 -17.616   4.968  1.00  0.00     0.034 A 
HETATM    9  C   UNL     1      43.950 -18.514   5.168  1.00  0.00     0.011 A 
HETATM   10 BR   UNL     1      44.577 -18.852   6.919  1.00  0.00    -0.051 Br
HETATM   11  C   UNL     1      44.541 -19.163   4.088  1.00  0.00     0.021 A 
HETATM   12  C   UNL     1      44.080 -18.904   2.797  1.00  0.00     0.031 A 
HETATM   13  H   UNL     1      43.037 -18.191   0.527  1.00  0.00     0.170 HD
ENDROOT
BRANCH   1  14
HETATM   14  C   UNL     1      40.286 -14.906   1.632  1.00  0.00     0.043 A 
HETATM   15  C   UNL     1      40.864 -13.704   1.205  1.00  0.00     0.032 A 
HETATM   16  C   UNL     1      40.063 -12.628   0.804  1.00  0.00     0.039 A 
HETATM   17  C   UNL     1      38.674 -12.742   0.784  1.00  0.00     0.068 A 
HETATM   18  C   UNL     1      38.086 -13.923   1.225  1.00  0.00     0.039 A 
HETATM   19  C   UNL     1      38.886 -14.989   1.653  1.00  0.00     0.032 A 
BRANCH  17  20
HETATM   20  O   UNL     1      38.008 -11.637   0.333  1.00  0.00    -0.352 OA
BRANCH  20  21
HETATM   21  C   UNL     1      36.584 -11.740   0.283  1.00  0.00     0.171 C 
HETATM   22  C   UNL     1      36.004 -10.620   1.128  1.00  0.00     0.034 C 
ENDBRANCH  20  21
ENDBRANCH  17  20
ENDBRANCH   1  14
BRANCH   2  23
HETATM   23  C   UNL     1      41.584 -15.027   4.190  1.00  0.00     0.279 C 
HETATM   24  N   UNL     1      40.505 -14.631   4.974  1.00  0.00    -0.352 N 
HETATM   25  H   UNL     1      39.689 -15.237   4.968  1.00  0.00     0.163 HD
HETATM   26  O   UNL     1      42.634 -14.394   4.110  1.00  0.00    -0.268 OA
BRANCH  24  27
HETATM   27  C   UNL     1      40.466 -13.396   5.681  1.00  0.00     0.084 A 
HETATM   28  C   UNL     1      40.049 -12.119   5.004  1.00  0.00     0.027 A 
HETATM   29  C   UNL     1      39.143 -12.759   6.011  1.00  0.00     0.027 A 
ENDBRANCH  24  27
ENDBRANCH   2  23
BRANCH   2  30
HETATM   30  O   UNL     1      40.132 -17.056   3.857  1.00  0.00    -0.359 OA
HETATM   31  H   UNL     1      40.233 -17.948   3.481  1.00  0.00     0.213 HD
ENDBRANCH   2  30
TORSDOF 6
ENDMDL
