MODEL 1
REMARK VINA RESULT:     -10.0      0.000      0.000
REMARK  3 active torsions:
REMARK  status: ('A' for Active; 'I' for Inactive)
REMARK    1  A    between atoms: C_6  and  C_7 
REMARK       I    between atoms: C_7  and  N_8 
REMARK    2  A    between atoms: N_8  and  C_9 
REMARK    3  A    between atoms: C_16  and  C_17 
REMARK       I    between atoms: C_17  and  N_18 
ROOT
HETATM    1  C   UNL     1      42.806 -16.401   3.026  1.00  0.00     0.257 C 
HETATM    2  N   UNL     1      41.493 -16.554   2.619  1.00  0.00    -0.323 N 
HETATM    3  O   UNL     1      43.561 -15.479   2.742  1.00  0.00    -0.267 OA
HETATM    4  H   UNL     1      40.975 -17.336   2.998  1.00  0.00     0.169 HD
ENDROOT
BRANCH   2   5
HETATM    5  C   UNL     1      40.784 -15.724   1.726  1.00  0.00     0.036 A 
HETATM    6  C   UNL     1      41.214 -15.459   0.419  1.00  0.00     0.046 A 
HETATM    7  C   UNL     1      40.409 -14.666  -0.428  1.00  0.00     0.030 A 
HETATM    8  C   UNL     1      39.232 -14.127   0.076  1.00  0.00     0.063 A 
HETATM    9  C   UNL     1      40.451 -14.247  -1.793  1.00  0.00     0.156 A 
HETATM   10  N   UNL     1      38.698 -13.398  -0.950  1.00  0.00    -0.277 N 
HETATM   11  C   UNL     1      38.783 -14.358   1.378  1.00  0.00     0.034 A 
HETATM   12  H   UNL     1      37.845 -12.851  -0.936  1.00  0.00     0.189 HD
HETATM   13  N   UNL     1      39.394 -13.460  -2.097  1.00  0.00    -0.168 NA
HETATM   14  C   UNL     1      39.573 -15.188   2.182  1.00  0.00     0.032 A 
BRANCH   9  15
HETATM   15  C   UNL     1      41.449 -14.606  -2.810  1.00  0.00     0.270 C 
HETATM   16  N   UNL     1      42.516 -13.751  -2.873  1.00  0.00    -0.365 N 
HETATM   17  H   UNL     1      42.525 -12.944  -2.261  1.00  0.00     0.159 HD
HETATM   18  H   UNL     1      43.222 -13.885  -3.580  1.00  0.00     0.159 HD
HETATM   19  O   UNL     1      41.359 -15.563  -3.572  1.00  0.00    -0.266 OA
ENDBRANCH   9  15
ENDBRANCH   2   5
BRANCH   1  20
HETATM   20  C   UNL     1      43.346 -17.510   3.857  1.00  0.00     0.046 A 
HETATM   21  C   UNL     1      43.662 -18.799   3.359  1.00  0.00     0.009 A 
HETATM   22  C   UNL     1      44.284 -19.676   4.275  1.00  0.00     0.071 A 
HETATM   23  C   UNL     1      43.386 -19.270   2.048  1.00  0.00     0.018 A 
HETATM   24  N   UNL     1      44.515 -19.355   5.557  1.00  0.00    -0.253 NA
HETATM   25  C   UNL     1      44.675 -20.935   3.849  1.00  0.00     0.074 A 
HETATM   26  C   UNL     1      44.129 -18.146   6.020  1.00  0.00     0.032 A 
HETATM   27  C   UNL     1      44.351 -17.858   7.475  1.00  0.00     0.070 C 
HETATM   28  C   UNL     1      43.554 -17.195   5.203  1.00  0.00     0.044 A 
HETATM   29  C   UNL     1      44.439 -21.359   2.549  1.00  0.00     0.118 A 
HETATM   30  F   UNL     1      44.835 -22.580   2.169  1.00  0.00    -0.206 F 
HETATM   31  C   UNL     1      43.785 -20.542   1.643  1.00  0.00     0.043 A 
ENDBRANCH   1  20
TORSDOF 3
ENDMDL
MODEL 2
REMARK VINA RESULT:      -9.9      1.611      2.889
REMARK  3 active torsions:
REMARK  status: ('A' for Active; 'I' for Inactive)
REMARK    1  A    between atoms: C_6  and  C_7 
REMARK       I    between atoms: C_7  and  N_8 
REMARK    2  A    between atoms: N_8  and  C_9 
REMARK    3  A    between atoms: C_16  and  C_17 
REMARK       I    between atoms: C_17  and  N_18 
ROOT
HETATM    1  C   UNL     1      43.116 -17.184   2.298  1.00  0.00     0.257 C 
HETATM    2  N   UNL     1      41.741 -17.076   2.202  1.00  0.00    -0.323 N 
HETATM    3  O   UNL     1      43.948 -16.407   1.846  1.00  0.00    -0.267 OA
HETATM    4  H   UNL     1      41.183 -17.763   2.691  1.00  0.00     0.169 HD
ENDROOT
BRANCH   2   5
HETATM    5  C   UNL     1      41.020 -16.095   1.490  1.00  0.00     0.036 A 
HETATM    6  C   UNL     1      41.306 -15.742   0.164  1.00  0.00     0.046 A 
HETATM    7  C   UNL     1      40.492 -14.793  -0.492  1.00  0.00     0.030 A 
HETATM    8  C   UNL     1      39.454 -14.196   0.214  1.00  0.00     0.063 A 
HETATM    9  C   UNL     1      40.406 -14.244  -1.807  1.00  0.00     0.156 A 
HETATM   10  N   UNL     1      38.878 -13.319  -0.662  1.00  0.00    -0.277 N 
HETATM   11  C   UNL     1      39.152 -14.513   1.540  1.00  0.00     0.034 A 
HETATM   12  H   UNL     1      38.098 -12.696  -0.483  1.00  0.00     0.189 HD
HETATM   13  N   UNL     1      39.411 -13.332  -1.894  1.00  0.00    -0.168 NA
HETATM   14  C   UNL     1      39.942 -15.493   2.153  1.00  0.00     0.032 A 
BRANCH   9  15
HETATM   15  C   UNL     1      41.221 -14.594  -2.980  1.00  0.00     0.270 C 
HETATM   16  N   UNL     1      42.436 -13.966  -3.023  1.00  0.00    -0.365 N 
HETATM   17  H   UNL     1      42.664 -13.306  -2.290  1.00  0.00     0.159 HD
HETATM   18  H   UNL     1      43.039 -14.101  -3.819  1.00  0.00     0.159 HD
HETATM   19  O   UNL     1      40.869 -15.355  -3.875  1.00  0.00    -0.266 OA
ENDBRANCH   9  15
ENDBRANCH   2   5
BRANCH   1  20
HETATM   20  C   UNL     1      43.609 -18.406   2.989  1.00  0.00     0.046 A 
HETATM   21  C   UNL     1      43.789 -18.512   4.390  1.00  0.00     0.009 A 
HETATM   22  C   UNL     1      44.142 -19.793   4.870  1.00  0.00     0.071 A 
HETATM   23  C   UNL     1      43.664 -17.448   5.323  1.00  0.00     0.018 A 
HETATM   24  N   UNL     1      44.361 -20.843   4.063  1.00  0.00    -0.253 NA
HETATM   25  C   UNL     1      44.281 -19.992   6.233  1.00  0.00     0.074 A 
HETATM   26  C   UNL     1      44.259 -20.687   2.725  1.00  0.00     0.032 A 
HETATM   27  C   UNL     1      44.576 -21.873   1.863  1.00  0.00     0.070 C 
HETATM   28  C   UNL     1      43.876 -19.492   2.151  1.00  0.00     0.044 A 
HETATM   29  C   UNL     1      44.109 -18.949   7.133  1.00  0.00     0.118 A 
HETATM   30  F   UNL     1      44.245 -19.178   8.445  1.00  0.00    -0.206 F 
HETATM   31  C   UNL     1      43.813 -17.672   6.691  1.00  0.00     0.043 A 
ENDBRANCH   1  20
TORSDOF 3
ENDMDL
MODEL 3
REMARK VINA RESULT:      -9.9      2.166      3.366
REMARK  3 active torsions:
REMARK  status: ('A' for Active; 'I' for Inactive)
REMARK    1  A    between atoms: C_6  and  C_7 
REMARK       I    between atoms: C_7  and  N_8 
REMARK    2  A    between atoms: N_8  and  C_9 
REMARK    3  A    between atoms: C_16  and  C_17 
REMARK       I    between atoms: C_17  and  N_18 
ROOT
HETATM    1  C   UNL     1      41.949 -17.483   1.870  1.00  0.00     0.257 C 
HETATM    2  N   UNL     1      42.486 -16.689   0.874  1.00  0.00    -0.323 N 
HETATM    3  O   UNL     1      40.811 -17.427   2.320  1.00  0.00    -0.267 OA
HETATM    4  H   UNL     1      43.424 -16.904   0.560  1.00  0.00     0.169 HD
ENDROOT
BRANCH   2   5
HETATM    5  C   UNL     1      41.861 -15.599   0.234  1.00  0.00     0.036 A 
HETATM    6  C   UNL     1      41.087 -15.730  -0.927  1.00  0.00     0.046 A 
HETATM    7  C   UNL     1      40.446 -14.594  -1.466  1.00  0.00     0.030 A 
HETATM    8  C   UNL     1      40.640 -13.361  -0.856  1.00  0.00     0.063 A 
HETATM    9  C   UNL     1      39.546 -14.334  -2.543  1.00  0.00     0.156 A 
HETATM   10  N   UNL     1      39.930 -12.468  -1.608  1.00  0.00    -0.277 N 
HETATM   11  C   UNL     1      41.417 -13.192   0.292  1.00  0.00     0.034 A 
HETATM   12  H   UNL     1      39.857 -11.467  -1.466  1.00  0.00     0.189 HD
HETATM   13  N   UNL     1      39.243 -13.017  -2.623  1.00  0.00    -0.168 NA
HETATM   14  C   UNL     1      42.002 -14.342   0.837  1.00  0.00     0.032 A 
BRANCH   9  15
HETATM   15  C   UNL     1      38.947 -15.308  -3.467  1.00  0.00     0.270 C 
HETATM   16  N   UNL     1      37.623 -15.561  -3.231  1.00  0.00    -0.365 N 
HETATM   17  H   UNL     1      37.176 -15.102  -2.446  1.00  0.00     0.159 HD
HETATM   18  H   UNL     1      37.143 -16.258  -3.778  1.00  0.00     0.159 HD
HETATM   19  O   UNL     1      39.551 -15.884  -4.365  1.00  0.00    -0.266 OA
ENDBRANCH   9  15
ENDBRANCH   2   5
BRANCH   1  20
HETATM   20  C   UNL     1      42.887 -18.468   2.472  1.00  0.00     0.046 A 
HETATM   21  C   UNL     1      43.532 -18.294   3.721  1.00  0.00     0.009 A 
HETATM   22  C   UNL     1      44.285 -19.396   4.183  1.00  0.00     0.071 A 
HETATM   23  C   UNL     1      43.498 -17.115   4.513  1.00  0.00     0.018 A 
HETATM   24  N   UNL     1      44.445 -20.524   3.474  1.00  0.00    -0.253 NA
HETATM   25  C   UNL     1      44.901 -19.326   5.422  1.00  0.00     0.074 A 
HETATM   26  C   UNL     1      43.881 -20.626   2.250  1.00  0.00     0.032 A 
HETATM   27  C   UNL     1      44.141 -21.880   1.470  1.00  0.00     0.070 C 
HETATM   28  C   UNL     1      43.088 -19.629   1.721  1.00  0.00     0.044 A 
HETATM   29  C   UNL     1      44.816 -18.181   6.202  1.00  0.00     0.118 A 
HETATM   30  F   UNL     1      45.418 -18.148   7.397  1.00  0.00    -0.206 F 
HETATM   31  C   UNL     1      44.129 -17.066   5.755  1.00  0.00     0.043 A 
ENDBRANCH   1  20
TORSDOF 3
ENDMDL
MODEL 4
REMARK VINA RESULT:      -9.5      1.413      1.578
REMARK  3 active torsions:
REMARK  status: ('A' for Active; 'I' for Inactive)
REMARK    1  A    between atoms: C_6  and  C_7 
REMARK       I    between atoms: C_7  and  N_8 
REMARK    2  A    between atoms: N_8  and  C_9 
REMARK    3  A    between atoms: C_16  and  C_17 
REMARK       I    between atoms: C_17  and  N_18 
ROOT
HETATM    1  C   UNL     1      42.045 -16.878   2.869  1.00  0.00     0.257 C 
HETATM    2  N   UNL     1      42.669 -16.049   1.956  1.00  0.00    -0.323 N 
HETATM    3  O   UNL     1      40.847 -16.923   3.121  1.00  0.00    -0.267 OA
HETATM    4  H   UNL     1      43.662 -16.180   1.809  1.00  0.00     0.169 HD
ENDROOT
BRANCH   2   5
HETATM    5  C   UNL     1      42.066 -15.029   1.191  1.00  0.00     0.036 A 
HETATM    6  C   UNL     1      41.517 -15.245  -0.080  1.00  0.00     0.046 A 
HETATM    7  C   UNL     1      40.877 -14.180  -0.749  1.00  0.00     0.030 A 
HETATM    8  C   UNL     1      40.850 -12.927  -0.147  1.00  0.00     0.063 A 
HETATM    9  C   UNL     1      40.154 -14.016  -1.970  1.00  0.00     0.156 A 
HETATM   10  N   UNL     1      40.201 -12.113  -1.032  1.00  0.00    -0.277 N 
HETATM   11  C   UNL     1      41.401 -12.674   1.111  1.00  0.00     0.034 A 
HETATM   12  H   UNL     1      40.014 -11.122  -0.931  1.00  0.00     0.189 HD
HETATM   13  N   UNL     1      39.751 -12.735  -2.134  1.00  0.00    -0.168 NA
HETATM   14  C   UNL     1      41.986 -13.758   1.776  1.00  0.00     0.032 A 
BRANCH   9  15
HETATM   15  C   UNL     1      39.814 -15.052  -2.956  1.00  0.00     0.270 C 
HETATM   16  N   UNL     1      38.473 -15.305  -3.060  1.00  0.00    -0.365 N 
HETATM   17  H   UNL     1      37.838 -14.805  -2.450  1.00  0.00     0.159 HD
HETATM   18  H   UNL     1      38.150 -16.040  -3.669  1.00  0.00     0.159 HD
HETATM   19  O   UNL     1      40.630 -15.675  -3.627  1.00  0.00    -0.266 OA
ENDBRANCH   9  15
ENDBRANCH   2   5
BRANCH   1  20
HETATM   20  C   UNL     1      42.952 -17.764   3.646  1.00  0.00     0.046 A 
HETATM   21  C   UNL     1      43.393 -19.036   3.206  1.00  0.00     0.009 A 
HETATM   22  C   UNL     1      44.354 -19.672   4.024  1.00  0.00     0.071 A 
HETATM   23  C   UNL     1      42.937 -19.714   2.043  1.00  0.00     0.018 A 
HETATM   24  N   UNL     1      44.789 -19.151   5.182  1.00  0.00    -0.253 NA
HETATM   25  C   UNL     1      44.877 -20.893   3.634  1.00  0.00     0.074 A 
HETATM   26  C   UNL     1      44.288 -17.973   5.613  1.00  0.00     0.032 A 
HETATM   27  C   UNL     1      44.759 -17.465   6.942  1.00  0.00     0.070 C 
HETATM   28  C   UNL     1      43.381 -17.246   4.871  1.00  0.00     0.044 A 
HETATM   29  C   UNL     1      44.452 -21.517   2.468  1.00  0.00     0.118 A 
HETATM   30  F   UNL     1      44.982 -22.694   2.117  1.00  0.00    -0.206 F 
HETATM   31  C   UNL     1      43.475 -20.944   1.672  1.00  0.00     0.043 A 
ENDBRANCH   1  20
TORSDOF 3
ENDMDL
MODEL 5
REMARK VINA RESULT:      -9.2      3.615      8.577
REMARK  3 active torsions:
REMARK  status: ('A' for Active; 'I' for Inactive)
REMARK    1  A    between atoms: C_6  and  C_7 
REMARK       I    between atoms: C_7  and  N_8 
REMARK    2  A    between atoms: N_8  and  C_9 
REMARK    3  A    between atoms: C_16  and  C_17 
REMARK       I    between atoms: C_17  and  N_18 
ROOT
HETATM    1  C   UNL     1      41.353 -15.614   0.104  1.00  0.00     0.257 C 
HETATM    2  N   UNL     1      42.550 -16.295   0.221  1.00  0.00    -0.323 N 
HETATM    3  O   UNL     1      40.500 -15.473   0.972  1.00  0.00    -0.267 OA
HETATM    4  H   UNL     1      43.185 -16.262  -0.566  1.00  0.00     0.169 HD
ENDROOT
BRANCH   2   5
HETATM    5  C   UNL     1      42.994 -17.036   1.335  1.00  0.00     0.036 A 
HETATM    6  C   UNL     1      43.134 -18.431   1.324  1.00  0.00     0.046 A 
HETATM    7  C   UNL     1      43.645 -19.086   2.465  1.00  0.00     0.030 A 
HETATM    8  C   UNL     1      43.951 -18.332   3.591  1.00  0.00     0.063 A 
HETATM    9  C   UNL     1      43.997 -20.426   2.812  1.00  0.00     0.156 A 
HETATM   10  N   UNL     1      44.388 -19.232   4.523  1.00  0.00    -0.277 N 
HETATM   11  C   UNL     1      43.810 -16.944   3.642  1.00  0.00     0.034 A 
HETATM   12  H   UNL     1      44.681 -19.038   5.473  1.00  0.00     0.189 HD
HETATM   13  N   UNL     1      44.447 -20.501   4.086  1.00  0.00    -0.168 NA
HETATM   14  C   UNL     1      43.349 -16.311   2.481  1.00  0.00     0.032 A 
BRANCH   9  15
HETATM   15  C   UNL     1      43.949 -21.617   1.952  1.00  0.00     0.270 C 
HETATM   16  N   UNL     1      42.700 -21.914   1.478  1.00  0.00    -0.365 N 
HETATM   17  H   UNL     1      41.922 -21.334   1.770  1.00  0.00     0.159 HD
HETATM   18  H   UNL     1      42.561 -22.746   0.928  1.00  0.00     0.159 HD
HETATM   19  O   UNL     1      44.914 -22.324   1.680  1.00  0.00    -0.266 OA
ENDBRANCH   9  15
ENDBRANCH   2   5
BRANCH   1  20
HETATM   20  C   UNL     1      41.076 -15.043  -1.242  1.00  0.00     0.046 A 
HETATM   21  C   UNL     1      41.583 -13.803  -1.701  1.00  0.00     0.009 A 
HETATM   22  C   UNL     1      41.316 -13.491  -3.053  1.00  0.00     0.071 A 
HETATM   23  C   UNL     1      42.302 -12.861  -0.917  1.00  0.00     0.018 A 
HETATM   24  N   UNL     1      40.578 -14.276  -3.854  1.00  0.00    -0.253 NA
HETATM   25  C   UNL     1      41.825 -12.322  -3.593  1.00  0.00     0.074 A 
HETATM   26  C   UNL     1      40.043 -15.414  -3.361  1.00  0.00     0.032 A 
HETATM   27  C   UNL     1      39.174 -16.224  -4.276  1.00  0.00     0.070 C 
HETATM   28  C   UNL     1      40.277 -15.837  -2.069  1.00  0.00     0.044 A 
HETATM   29  C   UNL     1      42.566 -11.438  -2.822  1.00  0.00     0.118 A 
HETATM   30  F   UNL     1      43.049 -10.319  -3.377  1.00  0.00    -0.206 F 
HETATM   31  C   UNL     1      42.801 -11.689  -1.482  1.00  0.00     0.043 A 
ENDBRANCH   1  20
TORSDOF 3
ENDMDL
MODEL 6
REMARK VINA RESULT:      -9.2      2.100      2.500
REMARK  3 active torsions:
REMARK  status: ('A' for Active; 'I' for Inactive)
REMARK    1  A    between atoms: C_6  and  C_7 
REMARK       I    between atoms: C_7  and  N_8 
REMARK    2  A    between atoms: N_8  and  C_9 
REMARK    3  A    between atoms: C_16  and  C_17 
REMARK       I    between atoms: C_17  and  N_18 
ROOT
HETATM    1  C   UNL     1      42.002 -16.920   2.617  1.00  0.00     0.257 C 
HETATM    2  N   UNL     1      42.604 -16.403   1.485  1.00  0.00    -0.323 N 
HETATM    3  O   UNL     1      40.844 -16.744   2.978  1.00  0.00    -0.267 OA
HETATM    4  H   UNL     1      43.551 -16.698   1.284  1.00  0.00     0.169 HD
ENDROOT
BRANCH   2   5
HETATM    5  C   UNL     1      42.035 -15.502   0.562  1.00  0.00     0.036 A 
HETATM    6  C   UNL     1      42.176 -14.111   0.660  1.00  0.00     0.046 A 
HETATM    7  C   UNL     1      41.624 -13.285  -0.344  1.00  0.00     0.030 A 
HETATM    8  C   UNL     1      40.911 -13.874  -1.381  1.00  0.00     0.063 A 
HETATM    9  C   UNL     1      41.616 -11.888  -0.639  1.00  0.00     0.156 A 
HETATM   10  N   UNL     1      40.485 -12.838  -2.163  1.00  0.00    -0.277 N 
HETATM   11  C   UNL     1      40.739 -15.255  -1.501  1.00  0.00     0.034 A 
HETATM   12  H   UNL     1      39.919 -12.894  -3.002  1.00  0.00     0.189 HD
HETATM   13  N   UNL     1      40.904 -11.627  -1.759  1.00  0.00    -0.168 NA
HETATM   14  C   UNL     1      41.338 -16.056  -0.520  1.00  0.00     0.032 A 
BRANCH   9  15
HETATM   15  C   UNL     1      42.296 -10.813   0.097  1.00  0.00     0.270 C 
HETATM   16  N   UNL     1      41.659 -10.433   1.247  1.00  0.00    -0.365 N 
HETATM   17  H   UNL     1      40.780 -10.879   1.482  1.00  0.00     0.159 HD
HETATM   18  H   UNL     1      42.021  -9.663   1.786  1.00  0.00     0.159 HD
HETATM   19  O   UNL     1      43.330 -10.261  -0.266  1.00  0.00    -0.266 OA
ENDBRANCH   9  15
ENDBRANCH   2   5
BRANCH   1  20
HETATM   20  C   UNL     1      42.888 -17.731   3.493  1.00  0.00     0.046 A 
HETATM   21  C   UNL     1      43.364 -19.025   3.167  1.00  0.00     0.009 A 
HETATM   22  C   UNL     1      44.298 -19.582   4.069  1.00  0.00     0.071 A 
HETATM   23  C   UNL     1      42.965 -19.794   2.041  1.00  0.00     0.018 A 
HETATM   24  N   UNL     1      44.678 -18.971   5.202  1.00  0.00    -0.253 NA
HETATM   25  C   UNL     1      44.852 -20.821   3.792  1.00  0.00     0.074 A 
HETATM   26  C   UNL     1      44.144 -17.772   5.522  1.00  0.00     0.032 A 
HETATM   27  C   UNL     1      44.553 -17.160   6.829  1.00  0.00     0.070 C 
HETATM   28  C   UNL     1      43.259 -17.116   4.693  1.00  0.00     0.044 A 
HETATM   29  C   UNL     1      44.485 -21.536   2.660  1.00  0.00     0.118 A 
HETATM   30  F   UNL     1      45.045 -22.727   2.419  1.00  0.00    -0.206 F 
HETATM   31  C   UNL     1      43.534 -21.040   1.785  1.00  0.00     0.043 A 
ENDBRANCH   1  20
TORSDOF 3
ENDMDL
MODEL 7
REMARK VINA RESULT:      -9.1      1.619      2.618
REMARK  3 active torsions:
REMARK  status: ('A' for Active; 'I' for Inactive)
REMARK    1  A    between atoms: C_6  and  C_7 
REMARK       I    between atoms: C_7  and  N_8 
REMARK    2  A    between atoms: N_8  and  C_9 
REMARK    3  A    between atoms: C_16  and  C_17 
REMARK       I    between atoms: C_17  and  N_18 
ROOT
HETATM    1  C   UNL     1      43.102 -16.792   2.909  1.00  0.00     0.257 C 
HETATM    2  N   UNL     1      41.792 -16.861   2.474  1.00  0.00    -0.323 N 
HETATM    3  O   UNL     1      43.970 -16.025   2.508  1.00  0.00    -0.267 OA
HETATM    4  H   UNL     1      41.174 -17.502   2.955  1.00  0.00     0.169 HD
ENDROOT
BRANCH   2   5
HETATM    5  C   UNL     1      41.211 -16.122   1.423  1.00  0.00     0.036 A 
HETATM    6  C   UNL     1      40.200 -15.171   1.620  1.00  0.00     0.046 A 
HETATM    7  C   UNL     1      39.719 -14.432   0.518  1.00  0.00     0.030 A 
HETATM    8  C   UNL     1      40.228 -14.703  -0.747  1.00  0.00     0.063 A 
HETATM    9  C   UNL     1      38.793 -13.364   0.319  1.00  0.00     0.156 A 
HETATM   10  N   UNL     1      39.560 -13.865  -1.594  1.00  0.00    -0.277 N 
HETATM   11  C   UNL     1      41.223 -15.655  -0.980  1.00  0.00     0.034 A 
HETATM   12  H   UNL     1      39.662 -13.800  -2.601  1.00  0.00     0.189 HD
HETATM   13  N   UNL     1      38.700 -13.031  -0.989  1.00  0.00    -0.168 NA
HETATM   14  C   UNL     1      41.720 -16.339   0.136  1.00  0.00     0.032 A 
BRANCH   9  15
HETATM   15  C   UNL     1      38.029 -12.638   1.344  1.00  0.00     0.270 C 
HETATM   16  N   UNL     1      36.735 -12.367   0.990  1.00  0.00    -0.365 N 
HETATM   17  H   UNL     1      36.418 -12.646   0.068  1.00  0.00     0.159 HD
HETATM   18  H   UNL     1      36.152 -11.823   1.606  1.00  0.00     0.159 HD
HETATM   19  O   UNL     1      38.480 -12.267   2.423  1.00  0.00    -0.266 OA
ENDBRANCH   9  15
ENDBRANCH   2   5
BRANCH   1  20
HETATM   20  C   UNL     1      43.484 -17.795   3.938  1.00  0.00     0.046 A 
HETATM   21  C   UNL     1      43.842 -19.135   3.651  1.00  0.00     0.009 A 
HETATM   22  C   UNL     1      44.297 -19.899   4.749  1.00  0.00     0.071 A 
HETATM   23  C   UNL     1      43.759 -19.760   2.378  1.00  0.00     0.018 A 
HETATM   24  N   UNL     1      44.338 -19.427   6.004  1.00  0.00    -0.253 NA
HETATM   25  C   UNL     1      44.720 -21.202   4.540  1.00  0.00     0.074 A 
HETATM   26  C   UNL     1      43.913 -18.169   6.256  1.00  0.00     0.032 A 
HETATM   27  C   UNL     1      43.918 -17.710   7.683  1.00  0.00     0.070 C 
HETATM   28  C   UNL     1      43.492 -17.321   5.253  1.00  0.00     0.044 A 
HETATM   29  C   UNL     1      44.675 -21.778   3.278  1.00  0.00     0.118 A 
HETATM   30  F   UNL     1      45.096 -23.038   3.111  1.00  0.00    -0.206 F 
HETATM   31  C   UNL     1      44.186 -21.073   2.193  1.00  0.00     0.043 A 
ENDBRANCH   1  20
TORSDOF 3
ENDMDL
MODEL 8
REMARK VINA RESULT:      -9.0      3.367      8.647
REMARK  3 active torsions:
REMARK  status: ('A' for Active; 'I' for Inactive)
REMARK    1  A    between atoms: C_6  and  C_7 
REMARK       I    between atoms: C_7  and  N_8 
REMARK    2  A    between atoms: N_8  and  C_9 
REMARK    3  A    between atoms: C_16  and  C_17 
REMARK       I    between atoms: C_17  and  N_18 
ROOT
HETATM    1  C   UNL     1      41.367 -15.528   0.111  1.00  0.00     0.257 C 
HETATM    2  N   UNL     1      42.598 -16.142   0.254  1.00  0.00    -0.323 N 
HETATM    3  O   UNL     1      40.488 -15.438   0.959  1.00  0.00    -0.267 OA
HETATM    4  H   UNL     1      43.248 -16.071  -0.518  1.00  0.00     0.169 HD
ENDROOT
BRANCH   2   5
HETATM    5  C   UNL     1      43.057 -16.861   1.377  1.00  0.00     0.036 A 
HETATM    6  C   UNL     1      43.117 -16.316   2.666  1.00  0.00     0.046 A 
HETATM    7  C   UNL     1      43.531 -17.129   3.744  1.00  0.00     0.030 A 
HETATM    8  C   UNL     1      43.917 -18.439   3.488  1.00  0.00     0.063 A 
HETATM    9  C   UNL     1      43.649 -16.981   5.159  1.00  0.00     0.156 A 
HETATM   10  N   UNL     1      44.286 -18.952   4.699  1.00  0.00    -0.277 N 
HETATM   11  C   UNL     1      43.884 -19.008   2.213  1.00  0.00     0.034 A 
HETATM   12  H   UNL     1      44.640 -19.883   4.890  1.00  0.00     0.189 HD
HETATM   13  N   UNL     1      44.122 -18.111   5.733  1.00  0.00    -0.168 NA
HETATM   14  C   UNL     1      43.422 -18.198   1.169  1.00  0.00     0.032 A 
BRANCH   9  15
HETATM   15  C   UNL     1      43.290 -15.809   5.971  1.00  0.00     0.270 C 
HETATM   16  N   UNL     1      42.364 -16.067   6.946  1.00  0.00    -0.365 N 
HETATM   17  H   UNL     1      41.981 -17.003   7.013  1.00  0.00     0.159 HD
HETATM   18  H   UNL     1      42.015 -15.312   7.514  1.00  0.00     0.159 HD
HETATM   19  O   UNL     1      43.738 -14.679   5.807  1.00  0.00    -0.266 OA
ENDBRANCH   9  15
ENDBRANCH   2   5
BRANCH   1  20
HETATM   20  C   UNL     1      41.090 -14.968  -1.239  1.00  0.00     0.046 A 
HETATM   21  C   UNL     1      41.596 -13.731  -1.708  1.00  0.00     0.009 A 
HETATM   22  C   UNL     1      41.328 -13.431  -3.063  1.00  0.00     0.071 A 
HETATM   23  C   UNL     1      42.314 -12.782  -0.932  1.00  0.00     0.018 A 
HETATM   24  N   UNL     1      40.592 -14.223  -3.857  1.00  0.00    -0.253 NA
HETATM   25  C   UNL     1      41.836 -12.265  -3.612  1.00  0.00     0.074 A 
HETATM   26  C   UNL     1      40.057 -15.357  -3.355  1.00  0.00     0.032 A 
HETATM   27  C   UNL     1      39.190 -16.175  -4.264  1.00  0.00     0.070 C 
HETATM   28  C   UNL     1      40.292 -15.770  -2.060  1.00  0.00     0.044 A 
HETATM   29  C   UNL     1      42.577 -11.374  -2.848  1.00  0.00     0.118 A 
HETATM   30  F   UNL     1      43.058 -10.260  -3.412  1.00  0.00    -0.206 F 
HETATM   31  C   UNL     1      42.812 -11.614  -1.506  1.00  0.00     0.043 A 
ENDBRANCH   1  20
TORSDOF 3
ENDMDL
MODEL 9
REMARK VINA RESULT:      -9.0      2.529      3.787
REMARK  3 active torsions:
REMARK  status: ('A' for Active; 'I' for Inactive)
REMARK    1  A    between atoms: C_6  and  C_7 
REMARK       I    between atoms: C_7  and  N_8 
REMARK    2  A    between atoms: N_8  and  C_9 
REMARK    3  A    between atoms: C_16  and  C_17 
REMARK       I    between atoms: C_17  and  N_18 
ROOT
HETATM    1  C   UNL     1      41.974 -17.432   1.812  1.00  0.00     0.257 C 
HETATM    2  N   UNL     1      42.451 -16.853   0.652  1.00  0.00    -0.323 N 
HETATM    3  O   UNL     1      40.914 -17.185   2.376  1.00  0.00    -0.267 OA
HETATM    4  H   UNL     1      43.314 -17.216   0.269  1.00  0.00     0.169 HD
ENDROOT
BRANCH   2   5
HETATM    5  C   UNL     1      41.855 -15.799  -0.073  1.00  0.00     0.036 A 
HETATM    6  C   UNL     1      42.024 -14.448   0.259  1.00  0.00     0.046 A 
HETATM    7  C   UNL     1      41.441 -13.455  -0.559  1.00  0.00     0.030 A 
HETATM    8  C   UNL     1      40.672 -13.849  -1.647  1.00  0.00     0.063 A 
HETATM    9  C   UNL     1      41.444 -12.028  -0.607  1.00  0.00     0.156 A 
HETATM   10  N   UNL     1      40.228 -12.688  -2.216  1.00  0.00    -0.277 N 
HETATM   11  C   UNL     1      40.471 -15.186  -1.996  1.00  0.00     0.034 A 
HETATM   12  H   UNL     1      39.624 -12.592  -3.024  1.00  0.00     0.189 HD
HETATM   13  N   UNL     1      40.685 -11.570  -1.629  1.00  0.00    -0.168 NA
HETATM   14  C   UNL     1      41.100 -16.150  -1.199  1.00  0.00     0.032 A 
BRANCH   9  15
HETATM   15  C   UNL     1      42.175 -11.103   0.271  1.00  0.00     0.270 C 
HETATM   16  N   UNL     1      41.657 -11.004   1.534  1.00  0.00    -0.365 N 
HETATM   17  H   UNL     1      40.819 -11.529   1.755  1.00  0.00     0.159 HD
HETATM   18  H   UNL     1      42.058 -10.351   2.188  1.00  0.00     0.159 HD
HETATM   19  O   UNL     1      43.150 -10.441  -0.067  1.00  0.00    -0.266 OA
ENDBRANCH   9  15
ENDBRANCH   2   5
BRANCH   1  20
HETATM   20  C   UNL     1      42.883 -18.423   2.447  1.00  0.00     0.046 A 
HETATM   21  C   UNL     1      43.497 -18.247   3.712  1.00  0.00     0.009 A 
HETATM   22  C   UNL     1      44.224 -19.354   4.203  1.00  0.00     0.071 A 
HETATM   23  C   UNL     1      43.456 -17.061   4.493  1.00  0.00     0.018 A 
HETATM   24  N   UNL     1      44.389 -20.490   3.507  1.00  0.00    -0.253 NA
HETATM   25  C   UNL     1      44.807 -19.281   5.457  1.00  0.00     0.074 A 
HETATM   26  C   UNL     1      43.857 -20.595   2.269  1.00  0.00     0.032 A 
HETATM   27  C   UNL     1      44.122 -21.859   1.507  1.00  0.00     0.070 C 
HETATM   28  C   UNL     1      43.091 -19.594   1.711  1.00  0.00     0.044 A 
HETATM   29  C   UNL     1      44.715 -18.129   6.225  1.00  0.00     0.118 A 
HETATM   30  F   UNL     1      45.285 -18.093   7.436  1.00  0.00    -0.206 F 
HETATM   31  C   UNL     1      44.054 -17.009   5.751  1.00  0.00     0.043 A 
ENDBRANCH   1  20
TORSDOF 3
ENDMDL
MODEL 10
REMARK VINA RESULT:      -8.9      2.625      2.780
REMARK  3 active torsions:
REMARK  status: ('A' for Active; 'I' for Inactive)
REMARK    1  A    between atoms: C_6  and  C_7 
REMARK       I    between atoms: C_7  and  N_8 
REMARK    2  A    between atoms: N_8  and  C_9 
REMARK    3  A    between atoms: C_16  and  C_17 
REMARK       I    between atoms: C_17  and  N_18 
ROOT
HETATM    1  C   UNL     1      42.211 -16.693   4.106  1.00  0.00     0.257 C 
HETATM    2  N   UNL     1      42.946 -15.529   3.977  1.00  0.00    -0.323 N 
HETATM    3  O   UNL     1      41.024 -16.845   3.847  1.00  0.00    -0.267 OA
HETATM    4  H   UNL     1      43.939 -15.579   4.164  1.00  0.00     0.169 HD
ENDROOT
BRANCH   2   5
HETATM    5  C   UNL     1      42.458 -14.260   3.602  1.00  0.00     0.036 A 
HETATM    6  C   UNL     1      42.587 -13.739   2.307  1.00  0.00     0.046 A 
HETATM    7  C   UNL     1      42.013 -12.485   2.003  1.00  0.00     0.030 A 
HETATM    8  C   UNL     1      41.375 -11.776   3.014  1.00  0.00     0.063 A 
HETATM    9  C   UNL     1      41.863 -11.677   0.836  1.00  0.00     0.156 A 
HETATM   10  N   UNL     1      40.957 -10.612   2.432  1.00  0.00    -0.277 N 
HETATM   11  C   UNL     1      41.242 -12.259   4.318  1.00  0.00     0.034 A 
HETATM   12  H   UNL     1      40.468  -9.844   2.878  1.00  0.00     0.189 HD
HETATM   13  N   UNL     1      41.216 -10.523   1.118  1.00  0.00    -0.168 NA
HETATM   14  C   UNL     1      41.776 -13.526   4.582  1.00  0.00     0.032 A 
BRANCH   9  15
HETATM   15  C   UNL     1      42.286 -11.996  -0.536  1.00  0.00     0.270 C 
HETATM   16  N   UNL     1      41.466 -12.879  -1.183  1.00  0.00    -0.365 N 
HETATM   17  H   UNL     1      40.675 -13.262  -0.679  1.00  0.00     0.159 HD
HETATM   18  H   UNL     1      41.708 -13.199  -2.107  1.00  0.00     0.159 HD
HETATM   19  O   UNL     1      43.292 -11.551  -1.079  1.00  0.00    -0.266 OA
ENDBRANCH   9  15
ENDBRANCH   2   5
BRANCH   1  20
HETATM   20  C   UNL     1      42.955 -17.854   4.664  1.00  0.00     0.046 A 
HETATM   21  C   UNL     1      43.407 -18.955   3.896  1.00  0.00     0.009 A 
HETATM   22  C   UNL     1      44.207 -19.896   4.581  1.00  0.00     0.071 A 
HETATM   23  C   UNL     1      43.106 -19.189   2.527  1.00  0.00     0.018 A 
HETATM   24  N   UNL     1      44.483 -19.808   5.892  1.00  0.00    -0.253 NA
HETATM   25  C   UNL     1      44.734 -20.972   3.886  1.00  0.00     0.074 A 
HETATM   26  C   UNL     1      43.969 -18.787   6.612  1.00  0.00     0.032 A 
HETATM   27  C   UNL     1      44.253 -18.768   8.084  1.00  0.00     0.070 C 
HETATM   28  C   UNL     1      43.214 -17.787   6.036  1.00  0.00     0.044 A 
HETATM   29  C   UNL     1      44.466 -21.157   2.537  1.00  0.00     0.118 A 
HETATM   30  F   UNL     1      44.996 -22.204   1.894  1.00  0.00    -0.206 F 
HETATM   31  C   UNL     1      43.644 -20.280   1.850  1.00  0.00     0.043 A 
ENDBRANCH   1  20
TORSDOF 3
ENDMDL
