MODEL 1
REMARK VINA RESULT:      -9.1      0.000      0.000
REMARK  7 active torsions:
REMARK  status: ('A' for Active; 'I' for Inactive)
REMARK    1  A    between atoms: C_2  and  O_3 
REMARK    2  A    between atoms: O_3  and  C_4 
REMARK    3  A    between atoms: C_4  and  C_5 
REMARK    4  A    between atoms: C_8  and  N_9 
REMARK       I    between atoms: N_9  and  C_10 
REMARK    5  A    between atoms: C_10  and  C_11 
REMARK    6  A    between atoms: C_11  and  N_12 
REMARK    7  A    between atoms: C_18  and  C_19 
ROOT
HETATM    1  N   UNL     1      40.463 -12.352   5.389  1.00  0.00    -0.063 N 
HETATM    2  H   UNL     1      40.518 -11.464   4.854  1.00  0.00     0.280 HD
HETATM    3  C   UNL     1      41.885 -12.613   5.847  1.00  0.00     0.240 C 
HETATM    4  C   UNL     1      42.494 -13.796   5.119  1.00  0.00     0.083 C 
HETATM    5  C   UNL     1      41.618 -15.049   5.250  1.00  0.00     0.131 A 
HETATM    6  N   UNL     1      42.074 -16.003   4.207  1.00  0.00    -0.251 NA
HETATM    7  C   UNL     1      42.497 -17.075   4.828  1.00  0.00     0.132 A 
HETATM    8  C   UNL     1      42.321 -16.961   6.324  1.00  0.00     0.272 A 
HETATM    9  O   UNL     1      42.524 -17.796   7.171  1.00  0.00    -0.266 OA
HETATM   10  N   UNL     1      41.833 -15.704   6.504  1.00  0.00    -0.327 N 
HETATM   11  C   UNL     1      40.123 -14.772   5.028  1.00  0.00     0.083 C 
HETATM   12  C   UNL     1      39.893 -13.386   4.457  1.00  0.00     0.240 C 
HETATM   13  H   UNL     1      41.544 -15.412   7.429  1.00  0.00     0.165 HD
ENDROOT
BRANCH   1  14
HETATM   14  C   UNL     1      39.529 -11.977   6.565  1.00  0.00     0.337 C 
BRANCH  14  15
HETATM   15  C   UNL     1      39.472 -10.463   6.737  1.00  0.00     0.248 C 
HETATM   16  N   UNL     1      40.078  -9.814   7.767  1.00  0.00    -0.326 N 
HETATM   17  H   UNL     1      40.035  -8.804   7.643  1.00  0.00     0.169 HD
HETATM   18  O   UNL     1      38.899  -9.804   5.860  1.00  0.00    -0.271 OA
BRANCH  16  19
HETATM   19  C   UNL     1      40.744 -10.250   8.927  1.00  0.00     0.034 A 
HETATM   20  C   UNL     1      40.129 -10.626  10.120  1.00  0.00     0.030 A 
HETATM   21  C   UNL     1      40.900 -11.055  11.211  1.00  0.00     0.020 A 
HETATM   22  C   UNL     1      42.297 -11.102  11.133  1.00  0.00     0.039 A 
HETATM   23  C   UNL     1      42.918 -10.697   9.950  1.00  0.00     0.020 A 
HETATM   24  C   UNL     1      42.146 -10.270   8.862  1.00  0.00     0.030 A 
BRANCH  22  25
HETATM   25  C   UNL     1      43.056 -11.570  12.324  1.00  0.00     0.293 C 
HETATM   26  O   UNL     1      43.819 -12.521  12.290  1.00  0.00    -0.259 OA
BRANCH  25  27
HETATM   27  O   UNL     1      42.781 -10.794  13.399  1.00  0.00    -0.318 OA
BRANCH  27  28
HETATM   28  C   UNL     1      43.488  -9.545  13.470  1.00  0.00     0.174 C 
HETATM   29  C   UNL     1      42.503  -8.392  13.503  1.00  0.00     0.034 C 
ENDBRANCH  27  28
ENDBRANCH  25  27
ENDBRANCH  22  25
ENDBRANCH  16  19
ENDBRANCH  14  15
ENDBRANCH   1  14
BRANCH   7  30
HETATM   30  C   UNL     1      43.076 -18.248   4.142  1.00  0.00    -0.002 A 
HETATM   31  C   UNL     1      44.051 -19.057   4.739  1.00  0.00     0.016 A 
HETATM   32  C   UNL     1      44.587 -20.147   4.044  1.00  0.00     0.024 A 
HETATM   33  C   UNL     1      44.152 -20.432   2.752  1.00  0.00     0.034 A 
HETATM   34 CL   UNL     1      44.817 -21.768   1.901  1.00  0.00    -0.084 Cl
HETATM   35  C   UNL     1      43.185 -19.634   2.146  1.00  0.00     0.024 A 
HETATM   36  C   UNL     1      42.650 -18.542   2.838  1.00  0.00     0.016 A 
ENDBRANCH   7  30
TORSDOF 7
ENDMDL
MODEL 2
REMARK VINA RESULT:      -8.8      1.091      1.456
REMARK  7 active torsions:
REMARK  status: ('A' for Active; 'I' for Inactive)
REMARK    1  A    between atoms: C_2  and  O_3 
REMARK    2  A    between atoms: O_3  and  C_4 
REMARK    3  A    between atoms: C_4  and  C_5 
REMARK    4  A    between atoms: C_8  and  N_9 
REMARK       I    between atoms: N_9  and  C_10 
REMARK    5  A    between atoms: C_10  and  C_11 
REMARK    6  A    between atoms: C_11  and  N_12 
REMARK    7  A    between atoms: C_18  and  C_19 
ROOT
HETATM    1  N   UNL     1      40.894 -12.403   4.634  1.00  0.00    -0.063 N 
HETATM    2  H   UNL     1      40.674 -11.663   3.940  1.00  0.00     0.280 HD
HETATM    3  C   UNL     1      42.405 -12.529   4.595  1.00  0.00     0.240 C 
HETATM    4  C   UNL     1      42.836 -13.840   3.965  1.00  0.00     0.083 C 
HETATM    5  C   UNL     1      42.185 -15.041   4.663  1.00  0.00     0.131 A 
HETATM    6  N   UNL     1      42.342 -16.205   3.754  1.00  0.00    -0.251 NA
HETATM    7  C   UNL     1      43.056 -17.096   4.393  1.00  0.00     0.132 A 
HETATM    8  C   UNL     1      43.398 -16.640   5.792  1.00  0.00     0.272 A 
HETATM    9  O   UNL     1      43.961 -17.253   6.665  1.00  0.00    -0.266 OA
HETATM   10  N   UNL     1      42.883 -15.384   5.865  1.00  0.00    -0.327 N 
HETATM   11  C   UNL     1      40.686 -14.846   4.939  1.00  0.00     0.083 C 
HETATM   12  C   UNL     1      40.140 -13.634   4.210  1.00  0.00     0.240 C 
HETATM   13  H   UNL     1      42.905 -14.889   6.748  1.00  0.00     0.165 HD
ENDROOT
BRANCH   1  14
HETATM   14  C   UNL     1      40.392 -11.780   5.958  1.00  0.00     0.337 C 
BRANCH  14  15
HETATM   15  C   UNL     1      40.828 -10.321   6.058  1.00  0.00     0.248 C 
HETATM   16  N   UNL     1      41.246  -9.754   7.220  1.00  0.00    -0.326 N 
HETATM   17  H   UNL     1      41.612  -8.816   7.063  1.00  0.00     0.169 HD
HETATM   18  O   UNL     1      40.855  -9.655   5.016  1.00  0.00    -0.271 OA
BRANCH  16  19
HETATM   19  C   UNL     1      41.287 -10.199   8.554  1.00  0.00     0.034 A 
HETATM   20  C   UNL     1      42.440 -10.556   9.253  1.00  0.00     0.030 A 
HETATM   21  C   UNL     1      42.357 -10.975  10.590  1.00  0.00     0.020 A 
HETATM   22  C   UNL     1      41.122 -11.060  11.244  1.00  0.00     0.039 A 
HETATM   23  C   UNL     1      39.964 -10.732  10.538  1.00  0.00     0.020 A 
HETATM   24  C   UNL     1      40.049 -10.313   9.205  1.00  0.00     0.030 A 
BRANCH  22  25
HETATM   25  C   UNL     1      41.104 -11.509  12.663  1.00  0.00     0.293 C 
HETATM   26  O   UNL     1      40.117 -11.997  13.189  1.00  0.00    -0.259 OA
BRANCH  25  27
HETATM   27  O   UNL     1      42.311 -11.306  13.242  1.00  0.00    -0.318 OA
BRANCH  27  28
HETATM   28  C   UNL     1      42.351 -10.310  14.277  1.00  0.00     0.174 C 
HETATM   29  C   UNL     1      43.190  -9.129  13.829  1.00  0.00     0.034 C 
ENDBRANCH  27  28
ENDBRANCH  25  27
ENDBRANCH  22  25
ENDBRANCH  16  19
ENDBRANCH  14  15
ENDBRANCH   1  14
BRANCH   7  30
HETATM   30  C   UNL     1      43.473 -18.387   3.810  1.00  0.00    -0.002 A 
HETATM   31  C   UNL     1      44.377 -19.241   4.454  1.00  0.00     0.016 A 
HETATM   32  C   UNL     1      44.759 -20.447   3.855  1.00  0.00     0.024 A 
HETATM   33  C   UNL     1      44.243 -20.802   2.612  1.00  0.00     0.034 A 
HETATM   34 CL   UNL     1      44.719 -22.281   1.878  1.00  0.00    -0.084 Cl
HETATM   35  C   UNL     1      43.345 -19.961   1.959  1.00  0.00     0.024 A 
HETATM   36  C   UNL     1      42.963 -18.755   2.555  1.00  0.00     0.016 A 
ENDBRANCH   7  30
TORSDOF 7
ENDMDL
MODEL 3
REMARK VINA RESULT:      -8.8      1.612      2.174
REMARK  7 active torsions:
REMARK  status: ('A' for Active; 'I' for Inactive)
REMARK    1  A    between atoms: C_2  and  O_3 
REMARK    2  A    between atoms: O_3  and  C_4 
REMARK    3  A    between atoms: C_4  and  C_5 
REMARK    4  A    between atoms: C_8  and  N_9 
REMARK       I    between atoms: N_9  and  C_10 
REMARK    5  A    between atoms: C_10  and  C_11 
REMARK    6  A    between atoms: C_11  and  N_12 
REMARK    7  A    between atoms: C_18  and  C_19 
ROOT
HETATM    1  N   UNL     1      40.936 -12.790   6.274  1.00  0.00    -0.063 N 
HETATM    2  H   UNL     1      41.069 -12.484   7.257  1.00  0.00     0.280 HD
HETATM    3  C   UNL     1      40.026 -14.000   6.370  1.00  0.00     0.240 C 
HETATM    4  C   UNL     1      40.766 -15.279   6.030  1.00  0.00     0.083 C 
HETATM    5  C   UNL     1      41.446 -15.189   4.657  1.00  0.00     0.131 A 
HETATM    6  N   UNL     1      42.441 -16.290   4.597  1.00  0.00    -0.251 NA
HETATM    7  C   UNL     1      42.091 -17.068   3.605  1.00  0.00     0.132 A 
HETATM    8  C   UNL     1      40.872 -16.542   2.885  1.00  0.00     0.272 A 
HETATM    9  O   UNL     1      40.349 -16.966   1.884  1.00  0.00    -0.266 OA
HETATM   10  N   UNL     1      40.516 -15.441   3.599  1.00  0.00    -0.327 N 
HETATM   11  C   UNL     1      42.184 -13.860   4.430  1.00  0.00     0.083 C 
HETATM   12  C   UNL     1      42.306 -13.065   5.715  1.00  0.00     0.240 C 
HETATM   13  H   UNL     1      39.766 -14.851   3.261  1.00  0.00     0.165 HD
ENDROOT
BRANCH   1  14
HETATM   14  C   UNL     1      40.226 -11.572   5.636  1.00  0.00     0.337 C 
BRANCH  14  15
HETATM   15  C   UNL     1      41.112 -10.333   5.726  1.00  0.00     0.248 C 
HETATM   16  N   UNL     1      41.625  -9.876   6.898  1.00  0.00    -0.326 N 
HETATM   17  H   UNL     1      42.288  -9.119   6.741  1.00  0.00     0.169 HD
HETATM   18  O   UNL     1      41.418  -9.766   4.669  1.00  0.00    -0.271 OA
BRANCH  16  19
HETATM   19  C   UNL     1      41.438 -10.242   8.244  1.00  0.00     0.034 A 
HETATM   20  C   UNL     1      40.217 -10.250   8.918  1.00  0.00     0.030 A 
HETATM   21  C   UNL     1      40.153 -10.646  10.263  1.00  0.00     0.020 A 
HETATM   22  C   UNL     1      41.306 -11.024  10.960  1.00  0.00     0.039 A 
HETATM   23  C   UNL     1      42.534 -10.988  10.296  1.00  0.00     0.020 A 
HETATM   24  C   UNL     1      42.596 -10.594   8.954  1.00  0.00     0.030 A 
BRANCH  22  25
HETATM   25  C   UNL     1      41.169 -11.437  12.383  1.00  0.00     0.293 C 
HETATM   26  O   UNL     1      40.127 -11.869  12.848  1.00  0.00    -0.259 OA
BRANCH  25  27
HETATM   27  O   UNL     1      42.340 -11.272  13.042  1.00  0.00    -0.318 OA
BRANCH  27  28
HETATM   28  C   UNL     1      42.312 -10.360  14.153  1.00  0.00     0.174 C 
HETATM   29  C   UNL     1      43.292  -9.227  13.920  1.00  0.00     0.034 C 
ENDBRANCH  27  28
ENDBRANCH  25  27
ENDBRANCH  22  25
ENDBRANCH  16  19
ENDBRANCH  14  15
ENDBRANCH   1  14
BRANCH   7  30
HETATM   30  C   UNL     1      42.806 -18.308   3.242  1.00  0.00    -0.002 A 
HETATM   31  C   UNL     1      42.644 -18.926   1.995  1.00  0.00     0.016 A 
HETATM   32  C   UNL     1      43.326 -20.112   1.701  1.00  0.00     0.024 A 
HETATM   33  C   UNL     1      44.169 -20.685   2.649  1.00  0.00     0.034 A 
HETATM   34 CL   UNL     1      45.000 -22.144   2.285  1.00  0.00    -0.084 Cl
HETATM   35  C   UNL     1      44.337 -20.083   3.894  1.00  0.00     0.024 A 
HETATM   36  C   UNL     1      43.655 -18.898   4.191  1.00  0.00     0.016 A 
ENDBRANCH   7  30
TORSDOF 7
ENDMDL
MODEL 4
REMARK VINA RESULT:      -8.4      4.162     10.306
REMARK  7 active torsions:
REMARK  status: ('A' for Active; 'I' for Inactive)
REMARK    1  A    between atoms: C_2  and  O_3 
REMARK    2  A    between atoms: O_3  and  C_4 
REMARK    3  A    between atoms: C_4  and  C_5 
REMARK    4  A    between atoms: C_8  and  N_9 
REMARK       I    between atoms: N_9  and  C_10 
REMARK    5  A    between atoms: C_10  and  C_11 
REMARK    6  A    between atoms: C_11  and  N_12 
REMARK    7  A    between atoms: C_18  and  C_19 
ROOT
HETATM    1  N   UNL     1      40.037 -13.847   3.575  1.00  0.00    -0.063 N 
HETATM    2  H   UNL     1      39.363 -14.533   3.184  1.00  0.00     0.280 HD
HETATM    3  C   UNL     1      40.470 -14.447   4.899  1.00  0.00     0.240 C 
HETATM    4  C   UNL     1      39.919 -13.660   6.072  1.00  0.00     0.083 C 
HETATM    5  C   UNL     1      40.287 -12.174   5.977  1.00  0.00     0.131 A 
HETATM    6  N   UNL     1      39.395 -11.448   6.916  1.00  0.00    -0.251 NA
HETATM    7  C   UNL     1      40.162 -10.873   7.806  1.00  0.00     0.132 A 
HETATM    8  C   UNL     1      41.626 -11.115   7.522  1.00  0.00     0.272 A 
HETATM    9  O   UNL     1      42.587 -10.658   8.090  1.00  0.00    -0.266 OA
HETATM   10  N   UNL     1      41.621 -11.939   6.440  1.00  0.00    -0.327 N 
HETATM   11  C   UNL     1      40.087 -11.586   4.571  1.00  0.00     0.083 C 
HETATM   12  C   UNL     1      39.310 -12.534   3.678  1.00  0.00     0.240 C 
HETATM   13  H   UNL     1      42.498 -12.180   5.996  1.00  0.00     0.165 HD
ENDROOT
BRANCH   1  14
HETATM   14  C   UNL     1      41.175 -13.858   2.526  1.00  0.00     0.337 C 
BRANCH  14  15
HETATM   15  C   UNL     1      40.750 -14.644   1.290  1.00  0.00     0.248 C 
HETATM   16  N   UNL     1      41.116 -15.935   1.074  1.00  0.00    -0.326 N 
HETATM   17  H   UNL     1      40.636 -16.325   0.265  1.00  0.00     0.169 HD
HETATM   18  O   UNL     1      39.989 -14.089   0.487  1.00  0.00    -0.271 OA
BRANCH  16  19
HETATM   19  C   UNL     1      41.989 -16.816   1.737  1.00  0.00     0.034 A 
HETATM   20  C   UNL     1      43.250 -17.201   1.282  1.00  0.00     0.030 A 
HETATM   21  C   UNL     1      44.039 -18.082   2.038  1.00  0.00     0.020 A 
HETATM   22  C   UNL     1      43.576 -18.605   3.251  1.00  0.00     0.039 A 
HETATM   23  C   UNL     1      42.302 -18.246   3.694  1.00  0.00     0.020 A 
HETATM   24  C   UNL     1      41.517 -17.366   2.939  1.00  0.00     0.030 A 
BRANCH  22  25
HETATM   25  C   UNL     1      44.463 -19.531   4.005  1.00  0.00     0.293 C 
HETATM   26  O   UNL     1      44.588 -19.485   5.218  1.00  0.00    -0.259 OA
BRANCH  25  27
HETATM   27  O   UNL     1      45.071 -20.400   3.163  1.00  0.00    -0.318 OA
BRANCH  27  28
HETATM   28  C   UNL     1      44.430 -21.677   3.008  1.00  0.00     0.174 C 
HETATM   29  C   UNL     1      44.042 -21.890   1.558  1.00  0.00     0.034 C 
ENDBRANCH  27  28
ENDBRANCH  25  27
ENDBRANCH  22  25
ENDBRANCH  16  19
ENDBRANCH  14  15
ENDBRANCH   1  14
BRANCH   7  30
HETATM   30  C   UNL     1      39.651 -10.086   8.946  1.00  0.00    -0.002 A 
HETATM   31  C   UNL     1      39.019  -8.847   8.776  1.00  0.00     0.016 A 
HETATM   32  C   UNL     1      38.568  -8.127   9.888  1.00  0.00     0.024 A 
HETATM   33  C   UNL     1      38.748  -8.638  11.170  1.00  0.00     0.034 A 
HETATM   34 CL   UNL     1      38.198  -7.746  12.532  1.00  0.00    -0.084 Cl
HETATM   35  C   UNL     1      39.379  -9.866  11.353  1.00  0.00     0.024 A 
HETATM   36  C   UNL     1      39.832 -10.587  10.244  1.00  0.00     0.016 A 
ENDBRANCH   7  30
TORSDOF 7
ENDMDL
MODEL 5
REMARK VINA RESULT:      -8.3      5.682      9.674
REMARK  7 active torsions:
REMARK  status: ('A' for Active; 'I' for Inactive)
REMARK    1  A    between atoms: C_2  and  O_3 
REMARK    2  A    between atoms: O_3  and  C_4 
REMARK    3  A    between atoms: C_4  and  C_5 
REMARK    4  A    between atoms: C_8  and  N_9 
REMARK       I    between atoms: N_9  and  C_10 
REMARK    5  A    between atoms: C_10  and  C_11 
REMARK    6  A    between atoms: C_11  and  N_12 
REMARK    7  A    between atoms: C_18  and  C_19 
ROOT
HETATM    1  N   UNL     1      41.659 -13.398   3.048  1.00  0.00    -0.063 N 
HETATM    2  H   UNL     1      41.648 -12.672   3.790  1.00  0.00     0.280 HD
HETATM    3  C   UNL     1      42.196 -12.684   1.822  1.00  0.00     0.240 C 
HETATM    4  C   UNL     1      41.116 -12.494   0.774  1.00  0.00     0.083 C 
HETATM    5  C   UNL     1      40.446 -13.824   0.407  1.00  0.00     0.131 A 
HETATM    6  N   UNL     1      39.181 -13.490  -0.295  1.00  0.00    -0.251 NA
HETATM    7  C   UNL     1      39.267 -13.992  -1.500  1.00  0.00     0.132 A 
HETATM    8  C   UNL     1      40.563 -14.744  -1.701  1.00  0.00     0.272 A 
HETATM    9  O   UNL     1      40.914 -15.394  -2.654  1.00  0.00    -0.266 OA
HETATM   10  N   UNL     1      41.235 -14.561  -0.533  1.00  0.00    -0.327 N 
HETATM   11  C   UNL     1      40.104 -14.691   1.629  1.00  0.00     0.083 C 
HETATM   12  C   UNL     1      40.251 -13.912   2.921  1.00  0.00     0.240 C 
HETATM   13  H   UNL     1      42.110 -15.048  -0.382  1.00  0.00     0.165 HD
ENDROOT
BRANCH   1  14
HETATM   14  C   UNL     1      42.662 -14.435   3.608  1.00  0.00     0.337 C 
BRANCH  14  15
HETATM   15  C   UNL     1      42.654 -14.413   5.133  1.00  0.00     0.248 C 
HETATM   16  N   UNL     1      43.040 -15.474   5.889  1.00  0.00    -0.326 N 
HETATM   17  H   UNL     1      43.086 -15.227   6.876  1.00  0.00     0.169 HD
HETATM   18  O   UNL     1      42.338 -13.355   5.693  1.00  0.00    -0.271 OA
BRANCH  16  19
HETATM   19  C   UNL     1      43.394 -16.801   5.584  1.00  0.00     0.034 A 
HETATM   20  C   UNL     1      42.655 -17.672   4.785  1.00  0.00     0.030 A 
HETATM   21  C   UNL     1      43.115 -18.975   4.542  1.00  0.00     0.020 A 
HETATM   22  C   UNL     1      44.312 -19.434   5.105  1.00  0.00     0.039 A 
HETATM   23  C   UNL     1      45.039 -18.574   5.931  1.00  0.00     0.020 A 
HETATM   24  C   UNL     1      44.578 -17.274   6.170  1.00  0.00     0.030 A 
BRANCH  22  25
HETATM   25  C   UNL     1      44.746 -20.825   4.806  1.00  0.00     0.293 C 
HETATM   26  O   UNL     1      44.770 -21.706   5.649  1.00  0.00    -0.259 OA
BRANCH  25  27
HETATM   27  O   UNL     1      45.084 -20.948   3.500  1.00  0.00    -0.318 OA
BRANCH  27  28
HETATM   28  C   UNL     1      44.479 -22.045   2.795  1.00  0.00     0.174 C 
HETATM   29  C   UNL     1      43.529 -21.520   1.736  1.00  0.00     0.034 C 
ENDBRANCH  27  28
ENDBRANCH  25  27
ENDBRANCH  22  25
ENDBRANCH  16  19
ENDBRANCH  14  15
ENDBRANCH   1  14
BRANCH   7  30
HETATM   30  C   UNL     1      38.223 -13.837  -2.532  1.00  0.00    -0.002 A 
HETATM   31  C   UNL     1      37.698 -14.930  -3.234  1.00  0.00     0.016 A 
HETATM   32  C   UNL     1      36.723 -14.734  -4.219  1.00  0.00     0.024 A 
HETATM   33  C   UNL     1      36.271 -13.449  -4.507  1.00  0.00     0.034 A 
HETATM   34 CL   UNL     1      35.077 -13.213  -5.720  1.00  0.00    -0.084 Cl
HETATM   35  C   UNL     1      36.787 -12.354  -3.818  1.00  0.00     0.024 A 
HETATM   36  C   UNL     1      37.763 -12.547  -2.835  1.00  0.00     0.016 A 
ENDBRANCH   7  30
TORSDOF 7
ENDMDL
MODEL 6
REMARK VINA RESULT:      -8.1      4.698      8.628
REMARK  7 active torsions:
REMARK  status: ('A' for Active; 'I' for Inactive)
REMARK    1  A    between atoms: C_2  and  O_3 
REMARK    2  A    between atoms: O_3  and  C_4 
REMARK    3  A    between atoms: C_4  and  C_5 
REMARK    4  A    between atoms: C_8  and  N_9 
REMARK       I    between atoms: N_9  and  C_10 
REMARK    5  A    between atoms: C_10  and  C_11 
REMARK    6  A    between atoms: C_11  and  N_12 
REMARK    7  A    between atoms: C_18  and  C_19 
ROOT
HETATM    1  N   UNL     1      41.981 -12.194   3.688  1.00  0.00    -0.063 N 
HETATM    2  H   UNL     1      42.597 -11.358   3.695  1.00  0.00     0.280 HD
HETATM    3  C   UNL     1      41.998 -12.696   5.119  1.00  0.00     0.240 C 
HETATM    4  C   UNL     1      42.753 -14.005   5.238  1.00  0.00     0.083 C 
HETATM    5  C   UNL     1      42.202 -15.064   4.273  1.00  0.00     0.131 A 
HETATM    6  N   UNL     1      43.226 -16.135   4.178  1.00  0.00    -0.251 NA
HETATM    7  C   UNL     1      42.669 -17.236   4.613  1.00  0.00     0.132 A 
HETATM    8  C   UNL     1      41.222 -17.020   4.989  1.00  0.00     0.272 A 
HETATM    9  O   UNL     1      40.406 -17.837   5.337  1.00  0.00    -0.266 OA
HETATM   10  N   UNL     1      41.028 -15.687   4.803  1.00  0.00    -0.327 N 
HETATM   11  C   UNL     1      41.941 -14.521   2.859  1.00  0.00     0.083 C 
HETATM   12  C   UNL     1      42.550 -13.145   2.671  1.00  0.00     0.240 C 
HETATM   13  H   UNL     1      40.097 -15.302   4.905  1.00  0.00     0.165 HD
ENDROOT
BRANCH   1  14
HETATM   14  C   UNL     1      40.609 -11.595   3.294  1.00  0.00     0.337 C 
BRANCH  14  15
HETATM   15  C   UNL     1      40.797 -10.411   2.349  1.00  0.00     0.248 C 
HETATM   16  N   UNL     1      40.721 -10.527   0.998  1.00  0.00    -0.326 N 
HETATM   17  H   UNL     1      40.748  -9.615   0.546  1.00  0.00     0.169 HD
HETATM   18  O   UNL     1      40.964  -9.293   2.852  1.00  0.00    -0.271 OA
BRANCH  16  19
HETATM   19  C   UNL     1      40.601 -11.625   0.126  1.00  0.00     0.034 A 
HETATM   20  C   UNL     1      39.478 -12.442   0.004  1.00  0.00     0.030 A 
HETATM   21  C   UNL     1      39.471 -13.506  -0.912  1.00  0.00     0.020 A 
HETATM   22  C   UNL     1      40.589 -13.779  -1.709  1.00  0.00     0.039 A 
HETATM   23  C   UNL     1      41.726 -12.981  -1.568  1.00  0.00     0.020 A 
HETATM   24  C   UNL     1      41.730 -11.920  -0.654  1.00  0.00     0.030 A 
BRANCH  22  25
HETATM   25  C   UNL     1      40.515 -14.919  -2.663  1.00  0.00     0.293 C 
HETATM   26  O   UNL     1      41.113 -15.967  -2.487  1.00  0.00    -0.259 OA
BRANCH  25  27
HETATM   27  O   UNL     1      39.704 -14.617  -3.704  1.00  0.00    -0.318 OA
BRANCH  27  28
HETATM   28  C   UNL     1      38.734 -15.617  -4.055  1.00  0.00     0.174 C 
HETATM   29  C   UNL     1      37.364 -15.215  -3.542  1.00  0.00     0.034 C 
ENDBRANCH  27  28
ENDBRANCH  25  27
ENDBRANCH  22  25
ENDBRANCH  16  19
ENDBRANCH  14  15
ENDBRANCH   1  14
BRANCH   7  30
HETATM   30  C   UNL     1      43.376 -18.528   4.721  1.00  0.00    -0.002 A 
HETATM   31  C   UNL     1      43.944 -19.165   3.610  1.00  0.00     0.016 A 
HETATM   32  C   UNL     1      44.588 -20.399   3.755  1.00  0.00     0.024 A 
HETATM   33  C   UNL     1      44.666 -21.001   5.008  1.00  0.00     0.034 A 
HETATM   34 CL   UNL     1      45.453 -22.518   5.181  1.00  0.00    -0.084 Cl
HETATM   35  C   UNL     1      44.103 -20.380   6.121  1.00  0.00     0.024 A 
HETATM   36  C   UNL     1      43.457 -19.148   5.977  1.00  0.00     0.016 A 
ENDBRANCH   7  30
TORSDOF 7
ENDMDL
MODEL 7
REMARK VINA RESULT:      -8.1      4.739      8.516
REMARK  7 active torsions:
REMARK  status: ('A' for Active; 'I' for Inactive)
REMARK    1  A    between atoms: C_2  and  O_3 
REMARK    2  A    between atoms: O_3  and  C_4 
REMARK    3  A    between atoms: C_4  and  C_5 
REMARK    4  A    between atoms: C_8  and  N_9 
REMARK       I    between atoms: N_9  and  C_10 
REMARK    5  A    between atoms: C_10  and  C_11 
REMARK    6  A    between atoms: C_11  and  N_12 
REMARK    7  A    between atoms: C_18  and  C_19 
ROOT
HETATM    1  N   UNL     1      40.648 -12.509   4.691  1.00  0.00    -0.063 N 
HETATM    2  H   UNL     1      40.448 -11.928   5.528  1.00  0.00     0.280 HD
HETATM    3  C   UNL     1      39.725 -13.705   4.826  1.00  0.00     0.240 C 
HETATM    4  C   UNL     1      40.500 -14.970   5.139  1.00  0.00     0.083 C 
HETATM    5  C   UNL     1      41.607 -15.224   4.108  1.00  0.00     0.131 A 
HETATM    6  N   UNL     1      42.532 -16.221   4.705  1.00  0.00    -0.251 NA
HETATM    7  C   UNL     1      42.517 -17.271   3.925  1.00  0.00     0.132 A 
HETATM    8  C   UNL     1      41.629 -17.061   2.721  1.00  0.00     0.272 A 
HETATM    9  O   UNL     1      41.464 -17.788   1.773  1.00  0.00    -0.266 OA
HETATM   10  N   UNL     1      41.084 -15.832   2.923  1.00  0.00    -0.327 N 
HETATM   11  C   UNL     1      42.416 -13.963   3.763  1.00  0.00     0.083 C 
HETATM   12  C   UNL     1      42.117 -12.830   4.725  1.00  0.00     0.240 C 
HETATM   13  H   UNL     1      40.510 -15.418   2.199  1.00  0.00     0.165 HD
ENDROOT
BRANCH   1  14
HETATM   14  C   UNL     1      40.231 -11.576   3.528  1.00  0.00     0.337 C 
BRANCH  14  15
HETATM   15  C   UNL     1      38.767 -11.173   3.668  1.00  0.00     0.248 C 
HETATM   16  N   UNL     1      37.831 -11.452   2.723  1.00  0.00    -0.326 N 
HETATM   17  H   UNL     1      36.895 -11.217   3.049  1.00  0.00     0.169 HD
HETATM   18  O   UNL     1      38.418 -10.623   4.721  1.00  0.00    -0.271 OA
BRANCH  16  19
HETATM   19  C   UNL     1      37.896 -11.998   1.429  1.00  0.00     0.034 A 
HETATM   20  C   UNL     1      38.038 -13.353   1.128  1.00  0.00     0.030 A 
HETATM   21  C   UNL     1      38.080 -13.782  -0.207  1.00  0.00     0.020 A 
HETATM   22  C   UNL     1      37.997 -12.866  -1.263  1.00  0.00     0.039 A 
HETATM   23  C   UNL     1      37.885 -11.507  -0.965  1.00  0.00     0.020 A 
HETATM   24  C   UNL     1      37.843 -11.081   0.368  1.00  0.00     0.030 A 
BRANCH  22  25
HETATM   25  C   UNL     1      38.045 -13.387  -2.656  1.00  0.00     0.293 C 
HETATM   26  O   UNL     1      37.762 -12.705  -3.627  1.00  0.00    -0.259 OA
BRANCH  25  27
HETATM   27  O   UNL     1      38.445 -14.681  -2.667  1.00  0.00    -0.318 OA
BRANCH  27  28
HETATM   28  C   UNL     1      39.523 -14.996  -3.563  1.00  0.00     0.174 C 
HETATM   29  C   UNL     1      40.640 -15.690  -2.807  1.00  0.00     0.034 C 
ENDBRANCH  27  28
ENDBRANCH  25  27
ENDBRANCH  22  25
ENDBRANCH  16  19
ENDBRANCH  14  15
ENDBRANCH   1  14
BRANCH   7  30
HETATM   30  C   UNL     1      43.276 -18.508   4.198  1.00  0.00    -0.002 A 
HETATM   31  C   UNL     1      43.922 -19.228   3.184  1.00  0.00     0.016 A 
HETATM   32  C   UNL     1      44.614 -20.406   3.485  1.00  0.00     0.024 A 
HETATM   33  C   UNL     1      44.662 -20.871   4.797  1.00  0.00     0.034 A 
HETATM   34 CL   UNL     1      45.508 -22.321   5.161  1.00  0.00    -0.084 Cl
HETATM   35  C   UNL     1      44.021 -20.167   5.814  1.00  0.00     0.024 A 
HETATM   36  C   UNL     1      43.327 -18.990   5.515  1.00  0.00     0.016 A 
ENDBRANCH   7  30
TORSDOF 7
ENDMDL
MODEL 8
REMARK VINA RESULT:      -8.1      1.552      2.122
REMARK  7 active torsions:
REMARK  status: ('A' for Active; 'I' for Inactive)
REMARK    1  A    between atoms: C_2  and  O_3 
REMARK    2  A    between atoms: O_3  and  C_4 
REMARK    3  A    between atoms: C_4  and  C_5 
REMARK    4  A    between atoms: C_8  and  N_9 
REMARK       I    between atoms: N_9  and  C_10 
REMARK    5  A    between atoms: C_10  and  C_11 
REMARK    6  A    between atoms: C_11  and  N_12 
REMARK    7  A    between atoms: C_18  and  C_19 
ROOT
HETATM    1  N   UNL     1      40.537 -12.817   4.000  1.00  0.00    -0.063 N 
HETATM    2  H   UNL     1      40.464 -12.297   3.104  1.00  0.00     0.280 HD
HETATM    3  C   UNL     1      42.012 -12.771   4.350  1.00  0.00     0.240 C 
HETATM    4  C   UNL     1      42.658 -14.136   4.207  1.00  0.00     0.083 C 
HETATM    5  C   UNL     1      41.915 -15.200   5.025  1.00  0.00     0.131 A 
HETATM    6  N   UNL     1      42.360 -16.523   4.517  1.00  0.00    -0.251 NA
HETATM    7  C   UNL     1      42.932 -17.143   5.517  1.00  0.00     0.132 A 
HETATM    8  C   UNL     1      42.881 -16.325   6.786  1.00  0.00     0.272 A 
HETATM    9  O   UNL     1      43.233 -16.638   7.897  1.00  0.00    -0.266 OA
HETATM   10  N   UNL     1      42.299 -15.158   6.403  1.00  0.00    -0.327 N 
HETATM   11  C   UNL     1      40.386 -15.120   4.882  1.00  0.00     0.083 C 
HETATM   12  C   UNL     1      39.982 -14.193   3.752  1.00  0.00     0.240 C 
HETATM   13  H   UNL     1      42.068 -14.464   7.104  1.00  0.00     0.165 HD
ENDROOT
BRANCH   1  14
HETATM   14  C   UNL     1      39.681 -11.954   4.959  1.00  0.00     0.337 C 
BRANCH  14  15
HETATM   15  C   UNL     1      40.074 -10.484   4.845  1.00  0.00     0.248 C 
HETATM   16  N   UNL     1      40.406  -9.723   5.920  1.00  0.00    -0.326 N 
HETATM   17  H   UNL     1      40.757  -8.811   5.634  1.00  0.00     0.169 HD
HETATM   18  O   UNL     1      40.149  -9.994   3.711  1.00  0.00    -0.271 OA
BRANCH  16  19
HETATM   19  C   UNL     1      40.375  -9.945   7.309  1.00  0.00     0.034 A 
HETATM   20  C   UNL     1      39.335  -9.582   8.164  1.00  0.00     0.030 A 
HETATM   21  C   UNL     1      39.412  -9.867   9.536  1.00  0.00     0.020 A 
HETATM   22  C   UNL     1      40.534 -10.504  10.078  1.00  0.00     0.039 A 
HETATM   23  C   UNL     1      41.590 -10.843   9.230  1.00  0.00     0.020 A 
HETATM   24  C   UNL     1      41.510 -10.558   7.862  1.00  0.00     0.030 A 
BRANCH  22  25
HETATM   25  C   UNL     1      40.552 -10.781  11.540  1.00  0.00     0.293 C 
HETATM   26  O   UNL     1      39.614 -10.516  12.274  1.00  0.00    -0.259 OA
BRANCH  25  27
HETATM   27  O   UNL     1      41.722 -11.358  11.902  1.00  0.00    -0.318 OA
BRANCH  27  28
HETATM   28  C   UNL     1      42.530 -10.612  12.828  1.00  0.00     0.174 C 
HETATM   29  C   UNL     1      43.781 -10.106  12.134  1.00  0.00     0.034 C 
ENDBRANCH  27  28
ENDBRANCH  25  27
ENDBRANCH  22  25
ENDBRANCH  16  19
ENDBRANCH  14  15
ENDBRANCH   1  14
BRANCH   7  30
HETATM   30  C   UNL     1      43.551 -18.480   5.409  1.00  0.00    -0.002 A 
HETATM   31  C   UNL     1      44.248 -18.891   4.265  1.00  0.00     0.016 A 
HETATM   32  C   UNL     1      44.802 -20.174   4.199  1.00  0.00     0.024 A 
HETATM   33  C   UNL     1      44.661 -21.050   5.272  1.00  0.00     0.034 A 
HETATM   34 CL   UNL     1      45.338 -22.627   5.183  1.00  0.00    -0.084 Cl
HETATM   35  C   UNL     1      43.968 -20.656   6.413  1.00  0.00     0.024 A 
HETATM   36  C   UNL     1      43.412 -19.374   6.481  1.00  0.00     0.016 A 
ENDBRANCH   7  30
TORSDOF 7
ENDMDL
MODEL 9
REMARK VINA RESULT:      -8.0      4.910      8.311
REMARK  7 active torsions:
REMARK  status: ('A' for Active; 'I' for Inactive)
REMARK    1  A    between atoms: C_2  and  O_3 
REMARK    2  A    between atoms: O_3  and  C_4 
REMARK    3  A    between atoms: C_4  and  C_5 
REMARK    4  A    between atoms: C_8  and  N_9 
REMARK       I    between atoms: N_9  and  C_10 
REMARK    5  A    between atoms: C_10  and  C_11 
REMARK    6  A    between atoms: C_11  and  N_12 
REMARK    7  A    between atoms: C_18  and  C_19 
ROOT
HETATM    1  N   UNL     1      42.099 -12.171   3.128  1.00  0.00    -0.063 N 
HETATM    2  H   UNL     1      42.742 -11.377   2.945  1.00  0.00     0.280 HD
HETATM    3  C   UNL     1      42.584 -12.764   4.437  1.00  0.00     0.240 C 
HETATM    4  C   UNL     1      43.225 -14.122   4.227  1.00  0.00     0.083 C 
HETATM    5  C   UNL     1      42.284 -15.081   3.485  1.00  0.00     0.131 A 
HETATM    6  N   UNL     1      43.118 -16.204   2.988  1.00  0.00    -0.251 NA
HETATM    7  C   UNL     1      42.666 -17.295   3.552  1.00  0.00     0.132 A 
HETATM    8  C   UNL     1      41.470 -17.016   4.431  1.00  0.00     0.272 A 
HETATM    9  O   UNL     1      40.768 -17.803   5.018  1.00  0.00    -0.266 OA
HETATM   10  N   UNL     1      41.329 -15.664   4.378  1.00  0.00    -0.327 N 
HETATM   11  C   UNL     1      41.581 -14.434   2.281  1.00  0.00     0.083 C 
HETATM   12  C   UNL     1      42.191 -13.089   1.939  1.00  0.00     0.240 C 
HETATM   13  H   UNL     1      40.529 -15.231   4.822  1.00  0.00     0.165 HD
ENDROOT
BRANCH   1  14
HETATM   14  C   UNL     1      40.729 -11.466   3.276  1.00  0.00     0.337 C 
BRANCH  14  15
HETATM   15  C   UNL     1      40.858  -9.980   2.952  1.00  0.00     0.248 C 
HETATM   16  N   UNL     1      41.102  -9.518   1.698  1.00  0.00    -0.326 N 
HETATM   17  H   UNL     1      41.029  -8.503   1.658  1.00  0.00     0.169 HD
HETATM   18  O   UNL     1      40.668  -9.172   3.869  1.00  0.00    -0.271 OA
BRANCH  16  19
HETATM   19  C   UNL     1      41.411 -10.146   0.478  1.00  0.00     0.034 A 
HETATM   20  C   UNL     1      42.683 -10.231  -0.089  1.00  0.00     0.030 A 
HETATM   21  C   UNL     1      42.871 -10.895  -1.311  1.00  0.00     0.020 A 
HETATM   22  C   UNL     1      41.793 -11.471  -1.993  1.00  0.00     0.039 A 
HETATM   23  C   UNL     1      40.514 -11.362  -1.443  1.00  0.00     0.020 A 
HETATM   24  C   UNL     1      40.329 -10.700  -0.223  1.00  0.00     0.030 A 
BRANCH  22  25
HETATM   25  C   UNL     1      42.061 -12.164  -3.282  1.00  0.00     0.293 C 
HETATM   26  O   UNL     1      41.990 -11.601  -4.362  1.00  0.00    -0.259 OA
BRANCH  25  27
HETATM   27  O   UNL     1      42.392 -13.459  -3.067  1.00  0.00    -0.318 OA
BRANCH  27  28
HETATM   28  C   UNL     1      41.355 -14.423  -3.319  1.00  0.00     0.174 C 
HETATM   29  C   UNL     1      40.948 -15.098  -2.023  1.00  0.00     0.034 C 
ENDBRANCH  27  28
ENDBRANCH  25  27
ENDBRANCH  22  25
ENDBRANCH  16  19
ENDBRANCH  14  15
ENDBRANCH   1  14
BRANCH   7  30
HETATM   30  C   UNL     1      43.260 -18.632   3.349  1.00  0.00    -0.002 A 
HETATM   31  C   UNL     1      44.114 -19.221   4.290  1.00  0.00     0.016 A 
HETATM   32  C   UNL     1      44.670 -20.482   4.047  1.00  0.00     0.024 A 
HETATM   33  C   UNL     1      44.377 -21.157   2.866  1.00  0.00     0.034 A 
HETATM   34 CL   UNL     1      45.067 -22.703   2.570  1.00  0.00    -0.084 Cl
HETATM   35  C   UNL     1      43.532 -20.582   1.920  1.00  0.00     0.024 A 
HETATM   36  C   UNL     1      42.976 -19.321   2.160  1.00  0.00     0.016 A 
ENDBRANCH   7  30
TORSDOF 7
ENDMDL
MODEL 10
REMARK VINA RESULT:      -8.0      3.863      9.892
REMARK  7 active torsions:
REMARK  status: ('A' for Active; 'I' for Inactive)
REMARK    1  A    between atoms: C_2  and  O_3 
REMARK    2  A    between atoms: O_3  and  C_4 
REMARK    3  A    between atoms: C_4  and  C_5 
REMARK    4  A    between atoms: C_8  and  N_9 
REMARK       I    between atoms: N_9  and  C_10 
REMARK    5  A    between atoms: C_10  and  C_11 
REMARK    6  A    between atoms: C_11  and  N_12 
REMARK    7  A    between atoms: C_18  and  C_19 
ROOT
HETATM    1  N   UNL     1      41.334 -12.195   3.558  1.00  0.00    -0.063 N 
HETATM    2  H   UNL     1      41.940 -11.981   2.743  1.00  0.00     0.280 HD
HETATM    3  C   UNL     1      40.748 -10.856   3.962  1.00  0.00     0.240 C 
HETATM    4  C   UNL     1      41.320 -10.377   5.283  1.00  0.00     0.083 C 
HETATM    5  C   UNL     1      41.145 -11.428   6.387  1.00  0.00     0.131 A 
HETATM    6  N   UNL     1      42.061 -11.048   7.492  1.00  0.00    -0.251 NA
HETATM    7  C   UNL     1      41.317 -10.821   8.545  1.00  0.00     0.132 A 
HETATM    8  C   UNL     1      39.855 -11.072   8.261  1.00  0.00     0.272 A 
HETATM    9  O   UNL     1      38.924 -11.044   9.028  1.00  0.00    -0.266 OA
HETATM   10  N   UNL     1      39.825 -11.388   6.938  1.00  0.00    -0.327 N 
HETATM   11  C   UNL     1      41.504 -12.852   5.934  1.00  0.00     0.083 C 
HETATM   12  C   UNL     1      42.211 -12.847   4.593  1.00  0.00     0.240 C 
HETATM   13  H   UNL     1      38.954 -11.690   6.520  1.00  0.00     0.165 HD
ENDROOT
BRANCH   1  14
HETATM   14  C   UNL     1      40.271 -13.139   2.947  1.00  0.00     0.337 C 
BRANCH  14  15
HETATM   15  C   UNL     1      40.600 -13.436   1.487  1.00  0.00     0.248 C 
HETATM   16  N   UNL     1      41.205 -14.585   1.086  1.00  0.00    -0.326 N 
HETATM   17  H   UNL     1      41.228 -14.656   0.070  1.00  0.00     0.169 HD
HETATM   18  O   UNL     1      40.239 -12.614   0.636  1.00  0.00    -0.271 OA
BRANCH  16  19
HETATM   19  C   UNL     1      41.777 -15.669   1.776  1.00  0.00     0.034 A 
HETATM   20  C   UNL     1      41.243 -16.277   2.912  1.00  0.00     0.030 A 
HETATM   21  C   UNL     1      41.900 -17.364   3.510  1.00  0.00     0.020 A 
HETATM   22  C   UNL     1      43.107 -17.850   2.993  1.00  0.00     0.039 A 
HETATM   23  C   UNL     1      43.659 -17.225   1.874  1.00  0.00     0.020 A 
HETATM   24  C   UNL     1      43.001 -16.141   1.279  1.00  0.00     0.030 A 
BRANCH  22  25
HETATM   25  C   UNL     1      43.750 -19.007   3.672  1.00  0.00     0.293 C 
HETATM   26  O   UNL     1      43.593 -19.249   4.857  1.00  0.00    -0.259 OA
BRANCH  25  27
HETATM   27  O   UNL     1      44.495 -19.721   2.794  1.00  0.00    -0.318 OA
BRANCH  27  28
HETATM   28  C   UNL     1      44.517 -21.143   3.000  1.00  0.00     0.174 C 
HETATM   29  C   UNL     1      44.124 -21.859   1.723  1.00  0.00     0.034 C 
ENDBRANCH  27  28
ENDBRANCH  25  27
ENDBRANCH  22  25
ENDBRANCH  16  19
ENDBRANCH  14  15
ENDBRANCH   1  14
BRANCH   7  30
HETATM   30  C   UNL     1      41.850 -10.372   9.847  1.00  0.00    -0.002 A 
HETATM   31  C   UNL     1      41.540  -9.118  10.390  1.00  0.00     0.016 A 
HETATM   32  C   UNL     1      42.084  -8.726  11.618  1.00  0.00     0.024 A 
HETATM   33  C   UNL     1      42.939  -9.582  12.307  1.00  0.00     0.034 A 
HETATM   34 CL   UNL     1      43.608  -9.094  13.812  1.00  0.00    -0.084 Cl
HETATM   35  C   UNL     1      43.258 -10.830  11.777  1.00  0.00     0.024 A 
HETATM   36  C   UNL     1      42.717 -11.223  10.549  1.00  0.00     0.016 A 
ENDBRANCH   7  30
TORSDOF 7
ENDMDL
