MODEL 1
REMARK VINA RESULT:      -8.3      0.000      0.000
REMARK  4 active torsions:
REMARK  status: ('A' for Active; 'I' for Inactive)
REMARK    1  A    between atoms: C_5  and  C_6 
REMARK    2  A    between atoms: C_6  and  N_7 
REMARK    3  A    between atoms: C_17  and  C_18 
REMARK    4  A    between atoms: C_27  and  C_28 
ROOT
HETATM    1  N   UNL     1      42.100 -17.776   2.914  1.00  0.00    -0.067 N 
HETATM    2  H   UNL     1      41.832 -18.770   2.962  1.00  0.00     0.280 HD
HETATM    3  C   UNL     1      41.019 -16.993   3.601  1.00  0.00     0.236 C 
HETATM    4  C   UNL     1      41.189 -15.489   3.393  1.00  0.00     0.039 C 
HETATM    5  C   UNL     1      41.358 -15.029   1.918  1.00  0.00    -0.013 C 
HETATM    6  C   UNL     1      40.026 -15.086   1.121  1.00  0.00     0.244 C 
HETATM    7  N   UNL     1      39.076 -13.990   1.528  1.00  0.00    -0.073 N 
HETATM    8  H   UNL     1      38.843 -14.089   2.525  1.00  0.00     0.279 HD
HETATM    9  C   UNL     1      37.755 -14.090   0.794  1.00  0.00     0.269 C 
HETATM   10  C   UNL     1      39.674 -12.599   1.350  1.00  0.00     0.243 C 
HETATM   11  C   UNL     1      40.920 -12.444   2.238  1.00  0.00     0.045 C 
HETATM   12  C   UNL     1      41.916 -13.572   1.856  1.00  0.00     0.022 C 
HETATM   13  C   UNL     1      42.412 -15.957   1.240  1.00  0.00     0.039 C 
HETATM   14  C   UNL     1      42.183 -17.453   1.448  1.00  0.00     0.236 C 
ENDROOT
BRANCH  11  15
HETATM   15  C   UNL     1      40.670 -12.313   3.740  1.00  0.00    -0.052 A 
HETATM   16  C   UNL     1      39.387 -12.287   4.316  1.00  0.00     0.007 A 
HETATM   17  C   UNL     1      39.217 -12.176   5.700  1.00  0.00     0.001 A 
HETATM   18  C   UNL     1      40.320 -12.058   6.536  1.00  0.00     0.000 A 
HETATM   19  C   UNL     1      41.597 -12.025   5.988  1.00  0.00     0.001 A 
HETATM   20  C   UNL     1      41.767 -12.138   4.606  1.00  0.00     0.007 A 
ENDBRANCH  11  15
BRANCH   1  21
HETATM   21  C   UNL     1      43.465 -17.760   3.606  1.00  0.00     0.277 C 
BRANCH  21  22
HETATM   22  C   UNL     1      43.817 -18.931   4.451  1.00  0.00     0.011 A 
HETATM   23  C   UNL     1      43.620 -19.079   5.847  1.00  0.00     0.149 A 
HETATM   24  N   UNL     1      44.093 -20.220   6.327  1.00  0.00    -0.185 NA
HETATM   25  N   UNL     1      44.553 -20.865   5.245  1.00  0.00    -0.278 N 
HETATM   26  C   UNL     1      45.126 -22.184   5.398  1.00  0.00     0.179 C 
HETATM   27  C   UNL     1      44.374 -20.153   4.079  1.00  0.00     0.043 A 
BRANCH  27  28
HETATM   28  C   UNL     1      44.726 -20.720   2.703  1.00  0.00     0.038 A 
HETATM   29  C   UNL     1      44.102 -22.026   2.261  1.00  0.00     0.011 A 
HETATM   30  C   UNL     1      43.739 -20.760   1.562  1.00  0.00     0.011 A 
ENDBRANCH  27  28
ENDBRANCH  21  22
ENDBRANCH   1  21
TORSDOF 4
ENDMDL
MODEL 2
REMARK VINA RESULT:      -8.3      2.576      5.582
REMARK  4 active torsions:
REMARK  status: ('A' for Active; 'I' for Inactive)
REMARK    1  A    between atoms: C_5  and  C_6 
REMARK    2  A    between atoms: C_6  and  N_7 
REMARK    3  A    between atoms: C_17  and  C_18 
REMARK    4  A    between atoms: C_27  and  C_28 
ROOT
HETATM    1  N   UNL     1      42.267 -12.261   4.389  1.00  0.00    -0.067 N 
HETATM    2  H   UNL     1      42.799 -11.403   4.598  1.00  0.00     0.280 HD
HETATM    3  C   UNL     1      43.123 -13.103   3.487  1.00  0.00     0.236 C 
HETATM    4  C   UNL     1      42.350 -14.294   2.924  1.00  0.00     0.039 C 
HETATM    5  C   UNL     1      40.993 -13.956   2.246  1.00  0.00    -0.013 C 
HETATM    6  C   UNL     1      41.172 -13.291   0.854  1.00  0.00     0.244 C 
HETATM    7  N   UNL     1      41.636 -14.275  -0.188  1.00  0.00    -0.073 N 
HETATM    8  H   UNL     1      42.548 -14.664   0.088  1.00  0.00     0.279 HD
HETATM    9  C   UNL     1      41.870 -13.607  -1.526  1.00  0.00     0.269 C 
HETATM   10  C   UNL     1      40.683 -15.454  -0.346  1.00  0.00     0.243 C 
HETATM   11  C   UNL     1      40.586 -16.235   0.975  1.00  0.00     0.045 C 
HETATM   12  C   UNL     1      40.127 -15.244   2.078  1.00  0.00     0.022 C 
HETATM   13  C   UNL     1      40.209 -12.992   3.189  1.00  0.00     0.039 C 
HETATM   14  C   UNL     1      41.013 -11.798   3.702  1.00  0.00     0.236 C 
ENDROOT
BRANCH  11  15
HETATM   15  C   UNL     1      41.806 -17.073   1.357  1.00  0.00    -0.052 A 
HETATM   16  C   UNL     1      42.997 -17.099   0.611  1.00  0.00     0.007 A 
HETATM   17  C   UNL     1      44.087 -17.878   1.013  1.00  0.00     0.001 A 
HETATM   18  C   UNL     1      44.002 -18.671   2.151  1.00  0.00     0.000 A 
HETATM   19  C   UNL     1      42.817 -18.706   2.875  1.00  0.00     0.001 A 
HETATM   20  C   UNL     1      41.729 -17.927   2.475  1.00  0.00     0.007 A 
ENDBRANCH  11  15
BRANCH   1  21
HETATM   21  C   UNL     1      42.005 -12.843   5.780  1.00  0.00     0.277 C 
BRANCH  21  22
HETATM   22  C   UNL     1      42.982 -13.835   6.301  1.00  0.00     0.011 A 
HETATM   23  C   UNL     1      44.168 -13.576   7.032  1.00  0.00     0.149 A 
HETATM   24  N   UNL     1      44.866 -14.669   7.307  1.00  0.00    -0.185 NA
HETATM   25  N   UNL     1      44.118 -15.667   6.815  1.00  0.00    -0.278 N 
HETATM   26  C   UNL     1      44.573 -17.032   6.966  1.00  0.00     0.179 C 
HETATM   27  C   UNL     1      42.949 -15.226   6.233  1.00  0.00     0.043 A 
BRANCH  27  28
HETATM   28  C   UNL     1      41.886 -16.182   5.689  1.00  0.00     0.038 A 
HETATM   29  C   UNL     1      40.975 -16.901   6.660  1.00  0.00     0.011 A 
HETATM   30  C   UNL     1      40.411 -15.872   5.741  1.00  0.00     0.011 A 
ENDBRANCH  27  28
ENDBRANCH  21  22
ENDBRANCH   1  21
TORSDOF 4
ENDMDL
MODEL 3
REMARK VINA RESULT:      -8.2      2.545      7.544
REMARK  4 active torsions:
REMARK  status: ('A' for Active; 'I' for Inactive)
REMARK    1  A    between atoms: C_5  and  C_6 
REMARK    2  A    between atoms: C_6  and  N_7 
REMARK    3  A    between atoms: C_17  and  C_18 
REMARK    4  A    between atoms: C_27  and  C_28 
ROOT
HETATM    1  N   UNL     1      38.857 -13.553   1.815  1.00  0.00    -0.067 N 
HETATM    2  H   UNL     1      37.840 -13.492   1.658  1.00  0.00     0.280 HD
HETATM    3  C   UNL     1      39.188 -15.004   2.011  1.00  0.00     0.236 C 
HETATM    4  C   UNL     1      40.629 -15.198   2.479  1.00  0.00     0.039 C 
HETATM    5  C   UNL     1      41.054 -14.359   3.715  1.00  0.00    -0.013 C 
HETATM    6  C   UNL     1      40.449 -14.902   5.039  1.00  0.00     0.244 C 
HETATM    7  N   UNL     1      41.107 -16.184   5.478  1.00  0.00    -0.073 N 
HETATM    8  H   UNL     1      40.968 -16.905   4.756  1.00  0.00     0.279 HD
HETATM    9  C   UNL     1      40.469 -16.741   6.733  1.00  0.00     0.269 C 
HETATM   10  C   UNL     1      42.611 -16.036   5.671  1.00  0.00     0.243 C 
HETATM   11  C   UNL     1      43.277 -15.639   4.342  1.00  0.00     0.045 C 
HETATM   12  C   UNL     1      42.609 -14.327   3.852  1.00  0.00     0.022 C 
HETATM   13  C   UNL     1      40.580 -12.890   3.488  1.00  0.00     0.039 C 
HETATM   14  C   UNL     1      39.123 -12.743   3.053  1.00  0.00     0.236 C 
ENDROOT
BRANCH  11  15
HETATM   15  C   UNL     1      43.366 -16.732   3.277  1.00  0.00    -0.052 A 
HETATM   16  C   UNL     1      43.766 -16.494   1.950  1.00  0.00     0.007 A 
HETATM   17  C   UNL     1      43.839 -17.535   1.018  1.00  0.00     0.001 A 
HETATM   18  C   UNL     1      43.486 -18.829   1.381  1.00  0.00     0.000 A 
HETATM   19  C   UNL     1      43.034 -19.080   2.671  1.00  0.00     0.001 A 
HETATM   20  C   UNL     1      42.963 -18.042   3.602  1.00  0.00     0.007 A 
ENDBRANCH  11  15
BRANCH   1  21
HETATM   21  C   UNL     1      39.433 -12.912   0.549  1.00  0.00     0.277 C 
BRANCH  21  22
HETATM   22  C   UNL     1      39.129 -13.570  -0.749  1.00  0.00     0.011 A 
HETATM   23  C   UNL     1      37.857 -13.761  -1.344  1.00  0.00     0.149 A 
HETATM   24  N   UNL     1      37.905 -14.438  -2.482  1.00  0.00    -0.185 NA
HETATM   25  N   UNL     1      39.214 -14.650  -2.683  1.00  0.00    -0.278 N 
HETATM   26  C   UNL     1      39.642 -15.352  -3.872  1.00  0.00     0.179 C 
HETATM   27  C   UNL     1      40.003 -14.111  -1.690  1.00  0.00     0.043 A 
BRANCH  27  28
HETATM   28  C   UNL     1      41.531 -14.137  -1.746  1.00  0.00     0.038 A 
HETATM   29  C   UNL     1      42.254 -13.141  -2.627  1.00  0.00     0.011 A 
HETATM   30  C   UNL     1      42.385 -13.047  -1.145  1.00  0.00     0.011 A 
ENDBRANCH  27  28
ENDBRANCH  21  22
ENDBRANCH   1  21
TORSDOF 4
ENDMDL
MODEL 4
REMARK VINA RESULT:      -8.0      1.587      3.561
REMARK  4 active torsions:
REMARK  status: ('A' for Active; 'I' for Inactive)
REMARK    1  A    between atoms: C_5  and  C_6 
REMARK    2  A    between atoms: C_6  and  N_7 
REMARK    3  A    between atoms: C_17  and  C_18 
REMARK    4  A    between atoms: C_27  and  C_28 
ROOT
HETATM    1  N   UNL     1      43.142 -16.384   4.411  1.00  0.00    -0.067 N 
HETATM    2  H   UNL     1      43.809 -16.291   5.191  1.00  0.00     0.280 HD
HETATM    3  C   UNL     1      43.176 -15.094   3.644  1.00  0.00     0.236 C 
HETATM    4  C   UNL     1      42.061 -15.025   2.601  1.00  0.00     0.039 C 
HETATM    5  C   UNL     1      40.630 -15.324   3.126  1.00  0.00    -0.013 C 
HETATM    6  C   UNL     1      40.047 -14.154   3.965  1.00  0.00     0.244 C 
HETATM    7  N   UNL     1      39.665 -12.977   3.105  1.00  0.00    -0.073 N 
HETATM    8  H   UNL     1      40.500 -12.622   2.619  1.00  0.00     0.279 HD
HETATM    9  C   UNL     1      39.159 -11.816   3.936  1.00  0.00     0.269 C 
HETATM   10  C   UNL     1      38.648 -13.341   2.031  1.00  0.00     0.243 C 
HETATM   11  C   UNL     1      39.238 -14.397   1.082  1.00  0.00     0.045 C 
HETATM   12  C   UNL     1      39.659 -15.620   1.939  1.00  0.00     0.022 C 
HETATM   13  C   UNL     1      40.695 -16.613   4.002  1.00  0.00     0.039 C 
HETATM   14  C   UNL     1      41.804 -16.623   5.053  1.00  0.00     0.236 C 
ENDROOT
BRANCH  11  15
HETATM   15  C   UNL     1      40.316 -13.911   0.114  1.00  0.00    -0.052 A 
HETATM   16  C   UNL     1      40.932 -12.650   0.205  1.00  0.00     0.007 A 
HETATM   17  C   UNL     1      41.922 -12.260  -0.704  1.00  0.00     0.001 A 
HETATM   18  C   UNL     1      42.298 -13.107  -1.739  1.00  0.00     0.000 A 
HETATM   19  C   UNL     1      41.665 -14.336  -1.885  1.00  0.00     0.001 A 
HETATM   20  C   UNL     1      40.678 -14.726  -0.976  1.00  0.00     0.007 A 
ENDBRANCH  11  15
BRANCH   1  21
HETATM   21  C   UNL     1      43.669 -17.610   3.660  1.00  0.00     0.277 C 
BRANCH  21  22
HETATM   22  C   UNL     1      43.969 -18.826   4.461  1.00  0.00     0.011 A 
HETATM   23  C   UNL     1      43.813 -18.999   5.859  1.00  0.00     0.149 A 
HETATM   24  N   UNL     1      44.224 -20.182   6.291  1.00  0.00    -0.185 NA
HETATM   25  N   UNL     1      44.598 -20.827   5.177  1.00  0.00    -0.278 N 
HETATM   26  C   UNL     1      45.084 -22.185   5.275  1.00  0.00     0.179 C 
HETATM   27  C   UNL     1      44.427 -20.071   4.037  1.00  0.00     0.043 A 
BRANCH  27  28
HETATM   28  C   UNL     1      44.689 -20.623   2.634  1.00  0.00     0.038 A 
HETATM   29  C   UNL     1      43.944 -21.857   2.176  1.00  0.00     0.011 A 
HETATM   30  C   UNL     1      43.669 -20.545   1.526  1.00  0.00     0.011 A 
ENDBRANCH  27  28
ENDBRANCH  21  22
ENDBRANCH   1  21
TORSDOF 4
ENDMDL
MODEL 5
REMARK VINA RESULT:      -8.0      2.976      7.754
REMARK  4 active torsions:
REMARK  status: ('A' for Active; 'I' for Inactive)
REMARK    1  A    between atoms: C_5  and  C_6 
REMARK    2  A    between atoms: C_6  and  N_7 
REMARK    3  A    between atoms: C_17  and  C_18 
REMARK    4  A    between atoms: C_27  and  C_28 
ROOT
HETATM    1  N   UNL     1      39.710 -13.182   0.272  1.00  0.00    -0.067 N 
HETATM    2  H   UNL     1      38.739 -13.014  -0.029  1.00  0.00     0.280 HD
HETATM    3  C   UNL     1      39.747 -14.546   0.900  1.00  0.00     0.236 C 
HETATM    4  C   UNL     1      41.083 -14.815   1.591  1.00  0.00     0.039 C 
HETATM    5  C   UNL     1      41.551 -13.726   2.596  1.00  0.00    -0.013 C 
HETATM    6  C   UNL     1      40.747 -13.758   3.925  1.00  0.00     0.244 C 
HETATM    7  N   UNL     1      41.116 -14.942   4.781  1.00  0.00    -0.073 N 
HETATM    8  H   UNL     1      40.906 -15.812   4.272  1.00  0.00     0.279 HD
HETATM    9  C   UNL     1      40.283 -15.002   6.044  1.00  0.00     0.269 C 
HETATM   10  C   UNL     1      42.600 -14.978   5.125  1.00  0.00     0.243 C 
HETATM   11  C   UNL     1      43.437 -15.095   3.840  1.00  0.00     0.045 C 
HETATM   12  C   UNL     1      43.068 -13.897   2.925  1.00  0.00     0.022 C 
HETATM   13  C   UNL     1      41.380 -12.333   1.915  1.00  0.00     0.039 C 
HETATM   14  C   UNL     1      40.017 -12.097   1.266  1.00  0.00     0.236 C 
ENDROOT
BRANCH  11  15
HETATM   15  C   UNL     1      43.409 -16.451   3.135  1.00  0.00    -0.052 A 
HETATM   16  C   UNL     1      42.917 -17.627   3.729  1.00  0.00     0.007 A 
HETATM   17  C   UNL     1      42.907 -18.840   3.033  1.00  0.00     0.001 A 
HETATM   18  C   UNL     1      43.414 -18.913   1.741  1.00  0.00     0.000 A 
HETATM   19  C   UNL     1      43.957 -17.778   1.152  1.00  0.00     0.001 A 
HETATM   20  C   UNL     1      43.966 -16.566   1.846  1.00  0.00     0.007 A 
ENDBRANCH  11  15
BRANCH   1  21
HETATM   21  C   UNL     1      40.498 -13.036  -1.032  1.00  0.00     0.277 C 
BRANCH  21  22
HETATM   22  C   UNL     1      40.343 -14.111  -2.048  1.00  0.00     0.011 A 
HETATM   23  C   UNL     1      41.332 -15.018  -2.503  1.00  0.00     0.149 A 
HETATM   24  N   UNL     1      40.903 -15.826  -3.462  1.00  0.00    -0.185 NA
HETATM   25  N   UNL     1      39.611 -15.502  -3.610  1.00  0.00    -0.278 N 
HETATM   26  C   UNL     1      38.808 -16.219  -4.576  1.00  0.00     0.179 C 
HETATM   27  C   UNL     1      39.207 -14.501  -2.752  1.00  0.00     0.043 A 
BRANCH  27  28
HETATM   28  C   UNL     1      37.755 -14.027  -2.663  1.00  0.00     0.038 A 
HETATM   29  C   UNL     1      37.436 -12.573  -2.931  1.00  0.00     0.011 A 
HETATM   30  C   UNL     1      36.956 -13.621  -3.876  1.00  0.00     0.011 A 
ENDBRANCH  27  28
ENDBRANCH  21  22
ENDBRANCH   1  21
TORSDOF 4
ENDMDL
MODEL 6
REMARK VINA RESULT:      -8.0      0.814      1.991
REMARK  4 active torsions:
REMARK  status: ('A' for Active; 'I' for Inactive)
REMARK    1  A    between atoms: C_5  and  C_6 
REMARK    2  A    between atoms: C_6  and  N_7 
REMARK    3  A    between atoms: C_17  and  C_18 
REMARK    4  A    between atoms: C_27  and  C_28 
ROOT
HETATM    1  N   UNL     1      41.918 -17.640   2.380  1.00  0.00    -0.067 N 
HETATM    2  H   UNL     1      41.635 -18.631   2.363  1.00  0.00     0.280 HD
HETATM    3  C   UNL     1      40.875 -16.896   3.163  1.00  0.00     0.236 C 
HETATM    4  C   UNL     1      41.064 -15.383   3.063  1.00  0.00     0.039 C 
HETATM    5  C   UNL     1      41.188 -14.815   1.622  1.00  0.00    -0.013 C 
HETATM    6  C   UNL     1      39.828 -14.792   0.872  1.00  0.00     0.244 C 
HETATM    7  N   UNL     1      38.912 -13.716   1.395  1.00  0.00    -0.073 N 
HETATM    8  H   UNL     1      38.713 -13.888   2.390  1.00  0.00     0.279 HD
HETATM    9  C   UNL     1      37.565 -13.742   0.704  1.00  0.00     0.269 C 
HETATM   10  C   UNL     1      39.527 -12.326   1.301  1.00  0.00     0.243 C 
HETATM   11  C   UNL     1      40.807 -12.256   2.152  1.00  0.00     0.045 C 
HETATM   12  C   UNL     1      41.769 -13.366   1.651  1.00  0.00     0.022 C 
HETATM   13  C   UNL     1      42.202 -15.704   0.838  1.00  0.00     0.039 C 
HETATM   14  C   UNL     1      41.955 -17.208   0.941  1.00  0.00     0.236 C 
ENDROOT
BRANCH  11  15
HETATM   15  C   UNL     1      40.612 -12.236   3.668  1.00  0.00    -0.052 A 
HETATM   16  C   UNL     1      39.351 -12.246   4.290  1.00  0.00     0.007 A 
HETATM   17  C   UNL     1      39.231 -12.237   5.684  1.00  0.00     0.001 A 
HETATM   18  C   UNL     1      40.365 -12.189   6.486  1.00  0.00     0.000 A 
HETATM   19  C   UNL     1      41.621 -12.122   5.896  1.00  0.00     0.001 A 
HETATM   20  C   UNL     1      41.741 -12.133   4.504  1.00  0.00     0.007 A 
ENDBRANCH  11  15
BRANCH   1  21
HETATM   21  C   UNL     1      43.307 -17.697   3.021  1.00  0.00     0.277 C 
BRANCH  21  22
HETATM   22  C   UNL     1      43.879 -19.042   3.295  1.00  0.00     0.011 A 
HETATM   23  C   UNL     1      44.268 -20.024   2.350  1.00  0.00     0.149 A 
HETATM   24  N   UNL     1      44.690 -21.150   2.905  1.00  0.00    -0.185 NA
HETATM   25  N   UNL     1      44.642 -20.904   4.222  1.00  0.00    -0.278 N 
HETATM   26  C   UNL     1      45.069 -21.929   5.149  1.00  0.00     0.179 C 
HETATM   27  C   UNL     1      44.201 -19.632   4.515  1.00  0.00     0.043 A 
BRANCH  27  28
HETATM   28  C   UNL     1      44.154 -19.082   5.942  1.00  0.00     0.038 A 
HETATM   29  C   UNL     1      45.249 -18.147   6.408  1.00  0.00     0.011 A 
HETATM   30  C   UNL     1      43.859 -17.634   6.246  1.00  0.00     0.011 A 
ENDBRANCH  27  28
ENDBRANCH  21  22
ENDBRANCH   1  21
TORSDOF 4
ENDMDL
MODEL 7
REMARK VINA RESULT:      -7.9      2.332      3.981
REMARK  4 active torsions:
REMARK  status: ('A' for Active; 'I' for Inactive)
REMARK    1  A    between atoms: C_5  and  C_6 
REMARK    2  A    between atoms: C_6  and  N_7 
REMARK    3  A    between atoms: C_17  and  C_18 
REMARK    4  A    between atoms: C_27  and  C_28 
ROOT
HETATM    1  N   UNL     1      41.749 -14.948   3.701  1.00  0.00    -0.067 N 
HETATM    2  H   UNL     1      41.697 -14.839   4.725  1.00  0.00     0.280 HD
HETATM    3  C   UNL     1      41.497 -13.596   3.100  1.00  0.00     0.236 C 
HETATM    4  C   UNL     1      41.320 -13.674   1.584  1.00  0.00     0.039 C 
HETATM    5  C   UNL     1      40.276 -14.710   1.082  1.00  0.00    -0.013 C 
HETATM    6  C   UNL     1      38.814 -14.247   1.325  1.00  0.00     0.244 C 
HETATM    7  N   UNL     1      38.408 -13.138   0.390  1.00  0.00    -0.073 N 
HETATM    8  H   UNL     1      39.019 -12.323   0.539  1.00  0.00     0.279 HD
HETATM    9  C   UNL     1      37.004 -12.648   0.676  1.00  0.00     0.269 C 
HETATM   10  C   UNL     1      38.542 -13.529  -1.076  1.00  0.00     0.243 C 
HETATM   11  C   UNL     1      40.009 -13.856  -1.403  1.00  0.00     0.045 C 
HETATM   12  C   UNL     1      40.466 -14.987  -0.443  1.00  0.00     0.022 C 
HETATM   13  C   UNL     1      40.531 -16.055   1.831  1.00  0.00     0.039 C 
HETATM   14  C   UNL     1      40.668 -15.931   3.348  1.00  0.00     0.236 C 
ENDROOT
BRANCH  11  15
HETATM   15  C   UNL     1      40.969 -12.669  -1.472  1.00  0.00    -0.052 A 
HETATM   16  C   UNL     1      40.574 -11.336  -1.261  1.00  0.00     0.007 A 
HETATM   17  C   UNL     1      41.498 -10.288  -1.327  1.00  0.00     0.001 A 
HETATM   18  C   UNL     1      42.829 -10.543  -1.632  1.00  0.00     0.000 A 
HETATM   19  C   UNL     1      43.234 -11.845  -1.900  1.00  0.00     0.001 A 
HETATM   20  C   UNL     1      42.312 -12.892  -1.833  1.00  0.00     0.007 A 
ENDBRANCH  11  15
BRANCH   1  21
HETATM   21  C   UNL     1      43.157 -15.510   3.492  1.00  0.00     0.277 C 
BRANCH  21  22
HETATM   22  C   UNL     1      43.526 -16.733   4.252  1.00  0.00     0.011 A 
HETATM   23  C   UNL     1      43.482 -16.924   5.656  1.00  0.00     0.149 A 
HETATM   24  N   UNL     1      43.931 -18.110   6.040  1.00  0.00    -0.185 NA
HETATM   25  N   UNL     1      44.218 -18.739   4.892  1.00  0.00    -0.278 N 
HETATM   26  C   UNL     1      44.716 -20.096   4.934  1.00  0.00     0.179 C 
HETATM   27  C   UNL     1      43.953 -17.971   3.778  1.00  0.00     0.043 A 
BRANCH  27  28
HETATM   28  C   UNL     1      44.106 -18.505   2.353  1.00  0.00     0.038 A 
HETATM   29  C   UNL     1      42.874 -18.954   1.597  1.00  0.00     0.011 A 
HETATM   30  C   UNL     1      43.618 -17.746   1.143  1.00  0.00     0.011 A 
ENDBRANCH  27  28
ENDBRANCH  21  22
ENDBRANCH   1  21
TORSDOF 4
ENDMDL
MODEL 8
REMARK VINA RESULT:      -7.8      2.142      3.903
REMARK  4 active torsions:
REMARK  status: ('A' for Active; 'I' for Inactive)
REMARK    1  A    between atoms: C_5  and  C_6 
REMARK    2  A    between atoms: C_6  and  N_7 
REMARK    3  A    between atoms: C_17  and  C_18 
REMARK    4  A    between atoms: C_27  and  C_28 
ROOT
HETATM    1  N   UNL     1      42.038 -15.998   3.459  1.00  0.00    -0.067 N 
HETATM    2  H   UNL     1      41.923 -16.183   4.466  1.00  0.00     0.280 HD
HETATM    3  C   UNL     1      41.677 -14.559   3.229  1.00  0.00     0.236 C 
HETATM    4  C   UNL     1      41.588 -14.228   1.740  1.00  0.00     0.039 C 
HETATM    5  C   UNL     1      40.687 -15.169   0.895  1.00  0.00    -0.013 C 
HETATM    6  C   UNL     1      39.173 -14.921   1.139  1.00  0.00     0.244 C 
HETATM    7  N   UNL     1      38.702 -13.635   0.511  1.00  0.00    -0.073 N 
HETATM    8  H   UNL     1      39.215 -12.844   0.924  1.00  0.00     0.279 HD
HETATM    9  C   UNL     1      37.241 -13.368   0.808  1.00  0.00     0.269 C 
HETATM   10  C   UNL     1      38.952 -13.590  -0.991  1.00  0.00     0.243 C 
HETATM   11  C   UNL     1      40.460 -13.685  -1.278  1.00  0.00     0.045 C 
HETATM   12  C   UNL     1      40.983 -14.993  -0.628  1.00  0.00     0.022 C 
HETATM   13  C   UNL     1      41.042 -16.642   1.268  1.00  0.00     0.039 C 
HETATM   14  C   UNL     1      41.087 -16.934   2.767  1.00  0.00     0.236 C 
ENDROOT
BRANCH  11  15
HETATM   15  C   UNL     1      41.292 -12.446  -0.945  1.00  0.00    -0.052 A 
HETATM   16  C   UNL     1      40.865 -11.434  -0.067  1.00  0.00     0.007 A 
HETATM   17  C   UNL     1      41.673 -10.326   0.209  1.00  0.00     0.001 A 
HETATM   18  C   UNL     1      42.911 -10.189  -0.407  1.00  0.00     0.000 A 
HETATM   19  C   UNL     1      43.333 -11.146  -1.321  1.00  0.00     0.001 A 
HETATM   20  C   UNL     1      42.527 -12.254  -1.596  1.00  0.00     0.007 A 
ENDBRANCH  11  15
BRANCH   1  21
HETATM   21  C   UNL     1      43.507 -16.355   3.216  1.00  0.00     0.277 C 
BRANCH  21  22
HETATM   22  C   UNL     1      43.885 -17.790   3.298  1.00  0.00     0.011 A 
HETATM   23  C   UNL     1      44.177 -18.670   2.226  1.00  0.00     0.149 A 
HETATM   24  N   UNL     1      44.423 -19.912   2.616  1.00  0.00    -0.185 NA
HETATM   25  N   UNL     1      44.357 -19.854   3.954  1.00  0.00    -0.278 N 
HETATM   26  C   UNL     1      44.607 -21.051   4.727  1.00  0.00     0.179 C 
HETATM   27  C   UNL     1      44.077 -18.589   4.424  1.00  0.00     0.043 A 
BRANCH  27  28
HETATM   28  C   UNL     1      44.048 -18.250   5.915  1.00  0.00     0.038 A 
HETATM   29  C   UNL     1      45.347 -17.937   6.626  1.00  0.00     0.011 A 
HETATM   30  C   UNL     1      44.329 -16.864   6.440  1.00  0.00     0.011 A 
ENDBRANCH  27  28
ENDBRANCH  21  22
ENDBRANCH   1  21
TORSDOF 4
ENDMDL
MODEL 9
REMARK VINA RESULT:      -7.6      2.272      4.004
REMARK  4 active torsions:
REMARK  status: ('A' for Active; 'I' for Inactive)
REMARK    1  A    between atoms: C_5  and  C_6 
REMARK    2  A    between atoms: C_6  and  N_7 
REMARK    3  A    between atoms: C_17  and  C_18 
REMARK    4  A    between atoms: C_27  and  C_28 
ROOT
HETATM    1  N   UNL     1      43.029 -15.032   4.653  1.00  0.00    -0.067 N 
HETATM    2  H   UNL     1      43.760 -15.244   5.349  1.00  0.00     0.280 HD
HETATM    3  C   UNL     1      43.524 -13.878   3.830  1.00  0.00     0.236 C 
HETATM    4  C   UNL     1      42.432 -13.325   2.916  1.00  0.00     0.039 C 
HETATM    5  C   UNL     1      41.086 -12.977   3.611  1.00  0.00    -0.013 C 
HETATM    6  C   UNL     1      41.172 -11.677   4.456  1.00  0.00     0.244 C 
HETATM    7  N   UNL     1      41.235 -10.443   3.592  1.00  0.00    -0.073 N 
HETATM    8  H   UNL     1      42.075 -10.482   3.000  1.00  0.00     0.279 HD
HETATM    9  C   UNL     1      41.383  -9.185   4.421  1.00  0.00     0.269 C 
HETATM   10  C   UNL     1      40.039 -10.321   2.656  1.00  0.00     0.243 C 
HETATM   11  C   UNL     1      39.996 -11.521   1.695  1.00  0.00     0.045 C 
HETATM   12  C   UNL     1      39.948 -12.813   2.554  1.00  0.00     0.022 C 
HETATM   13  C   UNL     1      40.694 -14.174   4.531  1.00  0.00     0.039 C 
HETATM   14  C   UNL     1      41.808 -14.672   5.451  1.00  0.00     0.236 C 
ENDROOT
BRANCH  11  15
HETATM   15  C   UNL     1      41.053 -11.544   0.592  1.00  0.00    -0.052 A 
HETATM   16  C   UNL     1      41.289 -12.654  -0.238  1.00  0.00     0.007 A 
HETATM   17  C   UNL     1      42.264 -12.615  -1.240  1.00  0.00     0.001 A 
HETATM   18  C   UNL     1      43.045 -11.479  -1.416  1.00  0.00     0.000 A 
HETATM   19  C   UNL     1      42.870 -10.389  -0.574  1.00  0.00     0.001 A 
HETATM   20  C   UNL     1      41.895 -10.426   0.426  1.00  0.00     0.007 A 
ENDBRANCH  11  15
BRANCH   1  21
HETATM   21  C   UNL     1      42.881 -16.359   3.904  1.00  0.00     0.277 C 
BRANCH  21  22
HETATM   22  C   UNL     1      43.295 -17.596   4.617  1.00  0.00     0.011 A 
HETATM   23  C   UNL     1      43.150 -17.888   5.996  1.00  0.00     0.149 A 
HETATM   24  N   UNL     1      43.673 -19.055   6.345  1.00  0.00    -0.185 NA
HETATM   25  N   UNL     1      44.115 -19.574   5.191  1.00  0.00    -0.278 N 
HETATM   26  C   UNL     1      44.732 -20.882   5.194  1.00  0.00     0.179 C 
HETATM   27  C   UNL     1      43.876 -18.756   4.108  1.00  0.00     0.043 A 
BRANCH  27  28
HETATM   28  C   UNL     1      44.199 -19.173   2.672  1.00  0.00     0.038 A 
HETATM   29  C   UNL     1      43.229 -20.065   1.927  1.00  0.00     0.011 A 
HETATM   30  C   UNL     1      43.428 -18.656   1.482  1.00  0.00     0.011 A 
ENDBRANCH  27  28
ENDBRANCH  21  22
ENDBRANCH   1  21
TORSDOF 4
ENDMDL
MODEL 10
REMARK VINA RESULT:      -7.5      3.320      4.898
REMARK  4 active torsions:
REMARK  status: ('A' for Active; 'I' for Inactive)
REMARK    1  A    between atoms: C_5  and  C_6 
REMARK    2  A    between atoms: C_6  and  N_7 
REMARK    3  A    between atoms: C_17  and  C_18 
REMARK    4  A    between atoms: C_27  and  C_28 
ROOT
HETATM    1  N   UNL     1      41.110 -14.666   2.005  1.00  0.00    -0.067 N 
HETATM    2  H   UNL     1      40.581 -14.829   2.875  1.00  0.00     0.280 HD
HETATM    3  C   UNL     1      40.802 -13.266   1.558  1.00  0.00     0.236 C 
HETATM    4  C   UNL     1      41.348 -12.986   0.158  1.00  0.00     0.039 C 
HETATM    5  C   UNL     1      40.957 -14.018  -0.935  1.00  0.00    -0.013 C 
HETATM    6  C   UNL     1      39.475 -13.881  -1.380  1.00  0.00     0.244 C 
HETATM    7  N   UNL     1      39.249 -12.654  -2.225  1.00  0.00    -0.073 N 
HETATM    8  H   UNL     1      39.487 -11.814  -1.680  1.00  0.00     0.279 HD
HETATM    9  C   UNL     1      37.792 -12.492  -2.600  1.00  0.00     0.269 C 
HETATM   10  C   UNL     1      40.122 -12.633  -3.473  1.00  0.00     0.243 C 
HETATM   11  C   UNL     1      41.609 -12.620  -3.078  1.00  0.00     0.045 C 
HETATM   12  C   UNL     1      41.873 -13.865  -2.190  1.00  0.00     0.022 C 
HETATM   13  C   UNL     1      41.199 -15.448  -0.359  1.00  0.00     0.039 C 
HETATM   14  C   UNL     1      40.607 -15.691   1.029  1.00  0.00     0.236 C 
ENDROOT
BRANCH  11  15
HETATM   15  C   UNL     1      42.143 -11.312  -2.495  1.00  0.00    -0.052 A 
HETATM   16  C   UNL     1      43.279 -11.234  -1.671  1.00  0.00     0.007 A 
HETATM   17  C   UNL     1      43.730 -10.006  -1.173  1.00  0.00     0.001 A 
HETATM   18  C   UNL     1      43.040  -8.835  -1.461  1.00  0.00     0.000 A 
HETATM   19  C   UNL     1      41.882  -8.892  -2.227  1.00  0.00     0.001 A 
HETATM   20  C   UNL     1      41.433 -10.117  -2.726  1.00  0.00     0.007 A 
ENDBRANCH  11  15
BRANCH   1  21
HETATM   21  C   UNL     1      42.557 -14.915   2.439  1.00  0.00     0.277 C 
BRANCH  21  22
HETATM   22  C   UNL     1      42.778 -15.843   3.580  1.00  0.00     0.011 A 
HETATM   23  C   UNL     1      42.310 -15.703   4.910  1.00  0.00     0.149 A 
HETATM   24  N   UNL     1      42.723 -16.670   5.717  1.00  0.00    -0.185 NA
HETATM   25  N   UNL     1      43.418 -17.490   4.916  1.00  0.00    -0.278 N 
HETATM   26  C   UNL     1      44.003 -18.692   5.471  1.00  0.00     0.179 C 
HETATM   27  C   UNL     1      43.449 -17.063   3.606  1.00  0.00     0.043 A 
BRANCH  27  28
HETATM   28  C   UNL     1      44.096 -17.881   2.487  1.00  0.00     0.038 A 
HETATM   29  C   UNL     1      43.279 -18.943   1.783  1.00  0.00     0.011 A 
HETATM   30  C   UNL     1      43.707 -17.725   1.038  1.00  0.00     0.011 A 
ENDBRANCH  27  28
ENDBRANCH  21  22
ENDBRANCH   1  21
TORSDOF 4
ENDMDL
