MODEL 1
REMARK VINA RESULT:      -9.6      0.000      0.000
REMARK  5 active torsions:
REMARK  status: ('A' for Active; 'I' for Inactive)
REMARK    1  A    between atoms: O_2  and  C_3 
REMARK    2  A    between atoms: C_6  and  C_7 
REMARK    3  A    between atoms: C_7  and  C_8 
REMARK       I    between atoms: C_8  and  N_9 
REMARK    4  A    between atoms: N_9  and  C_10 
REMARK    5  A    between atoms: C_13  and  C_14 
ROOT
HETATM    1  C   UNL     1      44.055 -14.297   7.326  1.00  0.00     0.034 A 
HETATM    2  C   UNL     1      44.132 -15.635   7.710  1.00  0.00     0.030 A 
HETATM    3  C   UNL     1      43.930 -16.658   6.775  1.00  0.00     0.017 A 
HETATM    4  C   UNL     1      43.656 -16.358   5.436  1.00  0.00     0.010 A 
HETATM    5  C   UNL     1      43.538 -15.018   5.053  1.00  0.00     0.017 A 
HETATM    6  C   UNL     1      43.740 -13.997   5.994  1.00  0.00     0.030 A 
ENDROOT
BRANCH   1   7
HETATM    7  N   UNL     1      44.319 -13.214   8.192  1.00  0.00    -0.327 N 
HETATM    8  C   UNL     1      45.495 -12.487   8.290  1.00  0.00     0.226 C 
HETATM    9  O   UNL     1      46.561 -12.749   7.741  1.00  0.00    -0.273 OA
HETATM   10  H   UNL     1      43.568 -12.942   8.815  1.00  0.00     0.169 HD
BRANCH   8  11
HETATM   11  C   UNL     1      45.355 -11.246   9.159  1.00  0.00     0.141 C 
BRANCH  11  12
HETATM   12  C   UNL     1      44.187 -11.269  10.114  1.00  0.00    -0.049 A 
HETATM   13  C   UNL     1      44.287 -11.856  11.382  1.00  0.00     0.010 A 
HETATM   14  C   UNL     1      43.214 -11.812  12.280  1.00  0.00     0.037 A 
HETATM   15  C   UNL     1      42.031 -11.164  11.930  1.00  0.00     0.068 A 
HETATM   16  C   UNL     1      41.932 -10.564  10.673  1.00  0.00     0.037 A 
HETATM   17  C   UNL     1      42.998 -10.610   9.773  1.00  0.00     0.010 A 
BRANCH  15  18
HETATM   18  O   UNL     1      40.918 -11.036  12.714  1.00  0.00    -0.356 OA
HETATM   19  C   UNL     1      39.838 -10.282  12.179  1.00  0.00     0.210 C 
ENDBRANCH  15  18
ENDBRANCH  11  12
ENDBRANCH   8  11
ENDBRANCH   1   7
BRANCH   4  20
HETATM   20  C   UNL     1      43.526 -17.488   4.471  1.00  0.00     0.141 A 
HETATM   21  N   UNL     1      44.153 -18.604   4.673  1.00  0.00    -0.230 NA
HETATM   22  C   UNL     1      44.040 -19.624   3.714  1.00  0.00     0.074 A 
HETATM   23  C   UNL     1      43.286 -19.479   2.548  1.00  0.00     0.061 A 
HETATM   24  C   UNL     1      44.724 -20.824   3.919  1.00  0.00     0.032 A 
HETATM   25  C   UNL     1      42.590 -18.198   2.350  1.00  0.00     0.259 A 
HETATM   26  C   UNL     1      43.210 -20.501   1.595  1.00  0.00     0.019 A 
HETATM   27  O   UNL     1      41.920 -17.961   1.353  1.00  0.00    -0.267 OA
HETATM   28  N   UNL     1      42.750 -17.274   3.352  1.00  0.00    -0.307 N 
HETATM   29  H   UNL     1      42.317 -16.383   3.168  1.00  0.00     0.170 HD
HETATM   30  C   UNL     1      43.901 -21.691   1.814  1.00  0.00     0.001 A 
HETATM   31  C   UNL     1      44.656 -21.853   2.975  1.00  0.00     0.002 A 
ENDBRANCH   4  20
TORSDOF 5
ENDMDL
MODEL 2
REMARK VINA RESULT:      -9.5      1.287      1.561
REMARK  5 active torsions:
REMARK  status: ('A' for Active; 'I' for Inactive)
REMARK    1  A    between atoms: O_2  and  C_3 
REMARK    2  A    between atoms: C_6  and  C_7 
REMARK    3  A    between atoms: C_7  and  C_8 
REMARK       I    between atoms: C_8  and  N_9 
REMARK    4  A    between atoms: N_9  and  C_10 
REMARK    5  A    between atoms: C_13  and  C_14 
ROOT
HETATM    1  C   UNL     1      43.780 -13.655   7.036  1.00  0.00     0.034 A 
HETATM    2  C   UNL     1      44.386 -14.868   7.363  1.00  0.00     0.030 A 
HETATM    3  C   UNL     1      44.236 -15.986   6.533  1.00  0.00     0.017 A 
HETATM    4  C   UNL     1      43.483 -15.907   5.357  1.00  0.00     0.010 A 
HETATM    5  C   UNL     1      42.839 -14.705   5.045  1.00  0.00     0.017 A 
HETATM    6  C   UNL     1      42.992 -13.588   5.879  1.00  0.00     0.030 A 
ENDROOT
BRANCH   1   7
HETATM    7  N   UNL     1      43.946 -12.468   7.782  1.00  0.00    -0.327 N 
HETATM    8  C   UNL     1      44.353 -12.357   9.102  1.00  0.00     0.226 C 
HETATM    9  O   UNL     1      44.503 -13.281   9.897  1.00  0.00    -0.273 OA
HETATM   10  H   UNL     1      43.739 -11.601   7.300  1.00  0.00     0.169 HD
BRANCH   8  11
HETATM   11  C   UNL     1      44.647 -10.924   9.515  1.00  0.00     0.141 C 
BRANCH  11  12
HETATM   12  C   UNL     1      43.747 -10.378  10.595  1.00  0.00    -0.049 A 
HETATM   13  C   UNL     1      42.462  -9.899  10.308  1.00  0.00     0.010 A 
HETATM   14  C   UNL     1      41.615  -9.456  11.331  1.00  0.00     0.037 A 
HETATM   15  C   UNL     1      42.034  -9.504  12.660  1.00  0.00     0.068 A 
HETATM   16  C   UNL     1      43.307  -9.996  12.953  1.00  0.00     0.037 A 
HETATM   17  C   UNL     1      44.156 -10.434  11.935  1.00  0.00     0.010 A 
BRANCH  15  18
HETATM   18  O   UNL     1      41.305  -9.119  13.750  1.00  0.00    -0.356 OA
HETATM   19  C   UNL     1      41.829  -9.459  15.027  1.00  0.00     0.210 C 
ENDBRANCH  15  18
ENDBRANCH  11  12
ENDBRANCH   8  11
ENDBRANCH   1   7
BRANCH   4  20
HETATM   20  C   UNL     1      43.422 -17.108   4.474  1.00  0.00     0.141 A 
HETATM   21  N   UNL     1      44.121 -18.164   4.748  1.00  0.00    -0.230 NA
HETATM   22  C   UNL     1      44.069 -19.254   3.863  1.00  0.00     0.074 A 
HETATM   23  C   UNL     1      43.301 -19.241   2.697  1.00  0.00     0.061 A 
HETATM   24  C   UNL     1      44.831 -20.390   4.145  1.00  0.00     0.032 A 
HETATM   25  C   UNL     1      42.523 -18.025   2.418  1.00  0.00     0.259 A 
HETATM   26  C   UNL     1      43.287 -20.330   1.820  1.00  0.00     0.019 A 
HETATM   27  O   UNL     1      41.833 -17.903   1.413  1.00  0.00    -0.267 OA
HETATM   28  N   UNL     1      42.628 -17.024   3.351  1.00  0.00    -0.307 N 
HETATM   29  H   UNL     1      42.136 -16.178   3.110  1.00  0.00     0.170 HD
HETATM   30  C   UNL     1      44.055 -21.455   2.114  1.00  0.00     0.001 A 
HETATM   31  C   UNL     1      44.825 -21.486   3.276  1.00  0.00     0.002 A 
ENDBRANCH   4  20
TORSDOF 5
ENDMDL
MODEL 3
REMARK VINA RESULT:      -8.7      6.243      9.910
REMARK  5 active torsions:
REMARK  status: ('A' for Active; 'I' for Inactive)
REMARK    1  A    between atoms: O_2  and  C_3 
REMARK    2  A    between atoms: C_6  and  C_7 
REMARK    3  A    between atoms: C_7  and  C_8 
REMARK       I    between atoms: C_8  and  N_9 
REMARK    4  A    between atoms: N_9  and  C_10 
REMARK    5  A    between atoms: C_13  and  C_14 
ROOT
HETATM    1  C   UNL     1      41.562 -14.937   0.548  1.00  0.00     0.034 A 
HETATM    2  C   UNL     1      41.515 -16.264   0.120  1.00  0.00     0.030 A 
HETATM    3  C   UNL     1      42.162 -17.271   0.848  1.00  0.00     0.017 A 
HETATM    4  C   UNL     1      42.861 -16.968   2.021  1.00  0.00     0.010 A 
HETATM    5  C   UNL     1      42.945 -15.634   2.434  1.00  0.00     0.017 A 
HETATM    6  C   UNL     1      42.296 -14.629   1.702  1.00  0.00     0.030 A 
ENDROOT
BRANCH   1   7
HETATM    7  N   UNL     1      40.875 -13.881  -0.088  1.00  0.00    -0.327 N 
HETATM    8  C   UNL     1      41.250 -13.213  -1.243  1.00  0.00     0.226 C 
HETATM    9  O   UNL     1      42.320 -13.327  -1.835  1.00  0.00    -0.273 OA
HETATM   10  H   UNL     1      40.015 -13.574   0.350  1.00  0.00     0.169 HD
BRANCH   8  11
HETATM   11  C   UNL     1      40.164 -12.291  -1.776  1.00  0.00     0.141 C 
BRANCH  11  12
HETATM   12  C   UNL     1      39.117 -12.970  -2.624  1.00  0.00    -0.049 A 
HETATM   13  C   UNL     1      39.172 -14.342  -2.900  1.00  0.00     0.010 A 
HETATM   14  C   UNL     1      38.158 -14.968  -3.634  1.00  0.00     0.037 A 
HETATM   15  C   UNL     1      37.063 -14.234  -4.088  1.00  0.00     0.068 A 
HETATM   16  C   UNL     1      36.995 -12.869  -3.802  1.00  0.00     0.037 A 
HETATM   17  C   UNL     1      38.007 -12.241  -3.073  1.00  0.00     0.010 A 
BRANCH  15  18
HETATM   18  O   UNL     1      36.002 -14.722  -4.799  1.00  0.00    -0.356 OA
HETATM   19  C   UNL     1      34.892 -13.851  -4.978  1.00  0.00     0.210 C 
ENDBRANCH  15  18
ENDBRANCH  11  12
ENDBRANCH   8  11
ENDBRANCH   1   7
BRANCH   4  20
HETATM   20  C   UNL     1      43.465 -18.092   2.794  1.00  0.00     0.141 A 
HETATM   21  N   UNL     1      43.528 -19.282   2.286  1.00  0.00    -0.230 NA
HETATM   22  C   UNL     1      44.062 -20.320   3.069  1.00  0.00     0.074 A 
HETATM   23  C   UNL     1      44.518 -20.121   4.373  1.00  0.00     0.061 A 
HETATM   24  C   UNL     1      44.121 -21.608   2.532  1.00  0.00     0.032 A 
HETATM   25  C   UNL     1      44.429 -18.757   4.916  1.00  0.00     0.259 A 
HETATM   26  C   UNL     1      45.022 -21.176   5.140  1.00  0.00     0.019 A 
HETATM   27  O   UNL     1      44.782 -18.480   6.056  1.00  0.00    -0.267 OA
HETATM   28  N   UNL     1      43.908 -17.812   4.069  1.00  0.00    -0.307 N 
HETATM   29  H   UNL     1      43.798 -16.899   4.481  1.00  0.00     0.170 HD
HETATM   30  C   UNL     1      45.072 -22.457   4.592  1.00  0.00     0.001 A 
HETATM   31  C   UNL     1      44.622 -22.673   3.289  1.00  0.00     0.002 A 
ENDBRANCH   4  20
TORSDOF 5
ENDMDL
MODEL 4
REMARK VINA RESULT:      -8.6      2.351      3.182
REMARK  5 active torsions:
REMARK  status: ('A' for Active; 'I' for Inactive)
REMARK    1  A    between atoms: O_2  and  C_3 
REMARK    2  A    between atoms: C_6  and  C_7 
REMARK    3  A    between atoms: C_7  and  C_8 
REMARK       I    between atoms: C_8  and  N_9 
REMARK    4  A    between atoms: N_9  and  C_10 
REMARK    5  A    between atoms: C_13  and  C_14 
ROOT
HETATM    1  C   UNL     1      42.922 -14.014   5.928  1.00  0.00     0.034 A 
HETATM    2  C   UNL     1      42.396 -14.716   4.843  1.00  0.00     0.030 A 
HETATM    3  C   UNL     1      42.741 -16.056   4.627  1.00  0.00     0.017 A 
HETATM    4  C   UNL     1      43.612 -16.719   5.498  1.00  0.00     0.010 A 
HETATM    5  C   UNL     1      44.174 -16.009   6.564  1.00  0.00     0.017 A 
HETATM    6  C   UNL     1      43.826 -14.667   6.776  1.00  0.00     0.030 A 
ENDROOT
BRANCH   1   7
HETATM    7  N   UNL     1      42.565 -12.688   6.253  1.00  0.00    -0.327 N 
HETATM    8  C   UNL     1      41.285 -12.180   6.414  1.00  0.00     0.226 C 
HETATM    9  O   UNL     1      40.234 -12.761   6.161  1.00  0.00    -0.273 OA
HETATM   10  H   UNL     1      43.328 -12.033   6.377  1.00  0.00     0.169 HD
BRANCH   8  11
HETATM   11  C   UNL     1      41.273 -10.772   6.989  1.00  0.00     0.141 C 
BRANCH  11  12
HETATM   12  C   UNL     1      41.336 -10.702   8.495  1.00  0.00    -0.049 A 
HETATM   13  C   UNL     1      40.198 -10.899   9.287  1.00  0.00     0.010 A 
HETATM   14  C   UNL     1      40.287 -10.895  10.685  1.00  0.00     0.037 A 
HETATM   15  C   UNL     1      41.519 -10.711  11.310  1.00  0.00     0.068 A 
HETATM   16  C   UNL     1      42.659 -10.529  10.524  1.00  0.00     0.037 A 
HETATM   17  C   UNL     1      42.573 -10.528   9.130  1.00  0.00     0.010 A 
BRANCH  15  18
HETATM   18  O   UNL     1      41.747 -10.699  12.658  1.00  0.00    -0.356 OA
HETATM   19  C   UNL     1      43.029 -10.261  13.090  1.00  0.00     0.210 C 
ENDBRANCH  15  18
ENDBRANCH  11  12
ENDBRANCH   8  11
ENDBRANCH   1   7
BRANCH   4  20
HETATM   20  C   UNL     1      43.882 -18.167   5.261  1.00  0.00     0.141 A 
HETATM   21  N   UNL     1      44.118 -18.607   4.065  1.00  0.00    -0.230 NA
HETATM   22  C   UNL     1      44.321 -19.985   3.882  1.00  0.00     0.074 A 
HETATM   23  C   UNL     1      44.270 -20.899   4.936  1.00  0.00     0.061 A 
HETATM   24  C   UNL     1      44.562 -20.467   2.594  1.00  0.00     0.032 A 
HETATM   25  C   UNL     1      43.997 -20.364   6.279  1.00  0.00     0.259 A 
HETATM   26  C   UNL     1      44.450 -22.270   4.724  1.00  0.00     0.019 A 
HETATM   27  O   UNL     1      43.911 -21.082   7.267  1.00  0.00    -0.267 OA
HETATM   28  N   UNL     1      43.830 -19.004   6.355  1.00  0.00    -0.307 N 
HETATM   29  H   UNL     1      43.584 -18.666   7.271  1.00  0.00     0.170 HD
HETATM   30  C   UNL     1      44.687 -22.736   3.432  1.00  0.00     0.001 A 
HETATM   31  C   UNL     1      44.744 -21.835   2.368  1.00  0.00     0.002 A 
ENDBRANCH   4  20
TORSDOF 5
ENDMDL
MODEL 5
REMARK VINA RESULT:      -8.4      2.061      2.845
REMARK  5 active torsions:
REMARK  status: ('A' for Active; 'I' for Inactive)
REMARK    1  A    between atoms: O_2  and  C_3 
REMARK    2  A    between atoms: C_6  and  C_7 
REMARK    3  A    between atoms: C_7  and  C_8 
REMARK       I    between atoms: C_8  and  N_9 
REMARK    4  A    between atoms: N_9  and  C_10 
REMARK    5  A    between atoms: C_13  and  C_14 
ROOT
HETATM    1  C   UNL     1      42.122 -12.926   5.758  1.00  0.00     0.034 A 
HETATM    2  C   UNL     1      41.490 -13.415   4.614  1.00  0.00     0.030 A 
HETATM    3  C   UNL     1      41.897 -14.625   4.037  1.00  0.00     0.017 A 
HETATM    4  C   UNL     1      42.939 -15.370   4.599  1.00  0.00     0.010 A 
HETATM    5  C   UNL     1      43.603 -14.865   5.722  1.00  0.00     0.017 A 
HETATM    6  C   UNL     1      43.192 -13.653   6.297  1.00  0.00     0.030 A 
ENDROOT
BRANCH   1   7
HETATM    7  N   UNL     1      41.720 -11.756   6.438  1.00  0.00    -0.327 N 
HETATM    8  C   UNL     1      40.532 -11.549   7.120  1.00  0.00     0.226 C 
HETATM    9  O   UNL     1      39.559 -12.298   7.131  1.00  0.00    -0.273 OA
HETATM   10  H   UNL     1      42.371 -10.980   6.421  1.00  0.00     0.169 HD
BRANCH   8  11
HETATM   11  C   UNL     1      40.527 -10.261   7.929  1.00  0.00     0.141 C 
BRANCH  11  12
HETATM   12  C   UNL     1      41.064 -10.393   9.333  1.00  0.00    -0.049 A 
HETATM   13  C   UNL     1      40.255 -10.829  10.390  1.00  0.00     0.010 A 
HETATM   14  C   UNL     1      40.785 -11.007  11.674  1.00  0.00     0.037 A 
HETATM   15  C   UNL     1      42.138 -10.770  11.914  1.00  0.00     0.068 A 
HETATM   16  C   UNL     1      42.952 -10.351  10.860  1.00  0.00     0.037 A 
HETATM   17  C   UNL     1      42.425 -10.168   9.580  1.00  0.00     0.010 A 
BRANCH  15  18
HETATM   18  O   UNL     1      42.783 -10.919  13.111  1.00  0.00    -0.356 OA
HETATM   19  C   UNL     1      43.077  -9.730  13.834  1.00  0.00     0.210 C 
ENDBRANCH  15  18
ENDBRANCH  11  12
ENDBRANCH   8  11
ENDBRANCH   1   7
BRANCH   4  20
HETATM   20  C   UNL     1      43.277 -16.687   3.986  1.00  0.00     0.141 A 
HETATM   21  N   UNL     1      43.635 -17.687   4.729  1.00  0.00    -0.230 NA
HETATM   22  C   UNL     1      43.990 -18.895   4.105  1.00  0.00     0.074 A 
HETATM   23  C   UNL     1      43.982 -19.056   2.718  1.00  0.00     0.061 A 
HETATM   24  C   UNL     1      44.389 -19.973   4.899  1.00  0.00     0.032 A 
HETATM   25  C   UNL     1      43.573 -17.899   1.908  1.00  0.00     0.259 A 
HETATM   26  C   UNL     1      44.365 -20.262   2.121  1.00  0.00     0.019 A 
HETATM   27  O   UNL     1      43.552 -17.929   0.684  1.00  0.00    -0.267 OA
HETATM   28  N   UNL     1      43.230 -16.772   2.612  1.00  0.00    -0.307 N 
HETATM   29  H   UNL     1      43.013 -15.973   2.037  1.00  0.00     0.170 HD
HETATM   30  C   UNL     1      44.763 -21.328   2.926  1.00  0.00     0.001 A 
HETATM   31  C   UNL     1      44.774 -21.183   4.314  1.00  0.00     0.002 A 
ENDBRANCH   4  20
TORSDOF 5
ENDMDL
MODEL 6
REMARK VINA RESULT:      -8.4      3.689     10.693
REMARK  5 active torsions:
REMARK  status: ('A' for Active; 'I' for Inactive)
REMARK    1  A    between atoms: O_2  and  C_3 
REMARK    2  A    between atoms: C_6  and  C_7 
REMARK    3  A    between atoms: C_7  and  C_8 
REMARK       I    between atoms: C_8  and  N_9 
REMARK    4  A    between atoms: N_9  and  C_10 
REMARK    5  A    between atoms: C_13  and  C_14 
ROOT
HETATM    1  C   UNL     1      40.385 -15.151   3.805  1.00  0.00     0.034 A 
HETATM    2  C   UNL     1      39.827 -13.962   3.336  1.00  0.00     0.030 A 
HETATM    3  C   UNL     1      39.539 -12.913   4.218  1.00  0.00     0.017 A 
HETATM    4  C   UNL     1      39.811 -13.033   5.584  1.00  0.00     0.010 A 
HETATM    5  C   UNL     1      40.333 -14.238   6.067  1.00  0.00     0.017 A 
HETATM    6  C   UNL     1      40.619 -15.286   5.180  1.00  0.00     0.030 A 
ENDROOT
BRANCH   1   7
HETATM    7  N   UNL     1      40.771 -16.221   2.970  1.00  0.00    -0.327 N 
HETATM    8  C   UNL     1      41.954 -16.345   2.259  1.00  0.00     0.226 C 
HETATM    9  O   UNL     1      42.812 -15.478   2.118  1.00  0.00    -0.273 OA
HETATM   10  H   UNL     1      40.108 -16.981   2.876  1.00  0.00     0.169 HD
BRANCH   8  11
HETATM   11  C   UNL     1      42.140 -17.726   1.650  1.00  0.00     0.141 C 
BRANCH  11  12
HETATM   12  C   UNL     1      43.058 -18.640   2.423  1.00  0.00    -0.049 A 
HETATM   13  C   UNL     1      43.370 -18.401   3.768  1.00  0.00     0.010 A 
HETATM   14  C   UNL     1      44.172 -19.295   4.488  1.00  0.00     0.037 A 
HETATM   15  C   UNL     1      44.657 -20.451   3.880  1.00  0.00     0.068 A 
HETATM   16  C   UNL     1      44.336 -20.702   2.544  1.00  0.00     0.037 A 
HETATM   17  C   UNL     1      43.541 -19.810   1.821  1.00  0.00     0.010 A 
BRANCH  15  18
HETATM   18  O   UNL     1      45.434 -21.409   4.470  1.00  0.00    -0.356 OA
HETATM   19  C   UNL     1      44.768 -22.367   5.282  1.00  0.00     0.210 C 
ENDBRANCH  15  18
ENDBRANCH  11  12
ENDBRANCH   8  11
ENDBRANCH   1   7
BRANCH   4  20
HETATM   20  C   UNL     1      39.554 -11.855   6.463  1.00  0.00     0.141 A 
HETATM   21  N   UNL     1      39.190 -10.720   5.955  1.00  0.00    -0.230 NA
HETATM   22  C   UNL     1      39.005  -9.625   6.815  1.00  0.00     0.074 A 
HETATM   23  C   UNL     1      39.205  -9.710   8.195  1.00  0.00     0.061 A 
HETATM   24  C   UNL     1      38.627  -8.395   6.272  1.00  0.00     0.032 A 
HETATM   25  C   UNL     1      39.619 -11.014   8.736  1.00  0.00     0.259 A 
HETATM   26  C   UNL     1      39.038  -8.598   9.027  1.00  0.00     0.019 A 
HETATM   27  O   UNL     1      39.841 -11.190   9.927  1.00  0.00    -0.267 OA
HETATM   28  N   UNL     1      39.757 -12.023   7.816  1.00  0.00    -0.307 N 
HETATM   29  H   UNL     1      40.100 -12.890   8.198  1.00  0.00     0.170 HD
HETATM   30  C   UNL     1      38.663  -7.377   8.470  1.00  0.00     0.001 A 
HETATM   31  C   UNL     1      38.457  -7.276   7.093  1.00  0.00     0.002 A 
ENDBRANCH   4  20
TORSDOF 5
ENDMDL
MODEL 7
REMARK VINA RESULT:      -8.2      5.486      8.314
REMARK  5 active torsions:
REMARK  status: ('A' for Active; 'I' for Inactive)
REMARK    1  A    between atoms: O_2  and  C_3 
REMARK    2  A    between atoms: C_6  and  C_7 
REMARK    3  A    between atoms: C_7  and  C_8 
REMARK       I    between atoms: C_8  and  N_9 
REMARK    4  A    between atoms: N_9  and  C_10 
REMARK    5  A    between atoms: C_13  and  C_14 
ROOT
HETATM    1  C   UNL     1      42.404 -13.488   2.055  1.00  0.00     0.034 A 
HETATM    2  C   UNL     1      43.137 -13.711   3.221  1.00  0.00     0.030 A 
HETATM    3  C   UNL     1      43.492 -15.011   3.602  1.00  0.00     0.017 A 
HETATM    4  C   UNL     1      43.125 -16.111   2.819  1.00  0.00     0.010 A 
HETATM    5  C   UNL     1      42.355 -15.897   1.671  1.00  0.00     0.017 A 
HETATM    6  C   UNL     1      42.002 -14.593   1.293  1.00  0.00     0.030 A 
ENDROOT
BRANCH   1   7
HETATM    7  N   UNL     1      42.075 -12.205   1.568  1.00  0.00    -0.327 N 
HETATM    8  C   UNL     1      40.989 -11.424   1.930  1.00  0.00     0.226 C 
HETATM    9  O   UNL     1      40.045 -11.772   2.634  1.00  0.00    -0.273 OA
HETATM   10  H   UNL     1      42.699 -11.814   0.872  1.00  0.00     0.169 HD
BRANCH   8  11
HETATM   11  C   UNL     1      41.068 -10.007   1.384  1.00  0.00     0.141 C 
BRANCH  11  12
HETATM   12  C   UNL     1      41.564  -9.902  -0.037  1.00  0.00    -0.049 A 
HETATM   13  C   UNL     1      42.857  -9.449  -0.331  1.00  0.00     0.010 A 
HETATM   14  C   UNL     1      43.323  -9.419  -1.651  1.00  0.00     0.037 A 
HETATM   15  C   UNL     1      42.510  -9.860  -2.694  1.00  0.00     0.068 A 
HETATM   16  C   UNL     1      41.227 -10.327  -2.404  1.00  0.00     0.037 A 
HETATM   17  C   UNL     1      40.757 -10.353  -1.090  1.00  0.00     0.010 A 
BRANCH  15  18
HETATM   18  O   UNL     1      42.846  -9.897  -4.019  1.00  0.00    -0.356 OA
HETATM   19  C   UNL     1      42.267 -10.934  -4.800  1.00  0.00     0.210 C 
ENDBRANCH  15  18
ENDBRANCH  11  12
ENDBRANCH   8  11
ENDBRANCH   1   7
BRANCH   4  20
HETATM   20  C   UNL     1      43.595 -17.464   3.235  1.00  0.00     0.141 A 
HETATM   21  N   UNL     1      43.558 -18.458   2.405  1.00  0.00    -0.230 NA
HETATM   22  C   UNL     1      43.967 -19.725   2.853  1.00  0.00     0.074 A 
HETATM   23  C   UNL     1      44.403 -19.956   4.160  1.00  0.00     0.061 A 
HETATM   24  C   UNL     1      43.917 -20.804   1.968  1.00  0.00     0.032 A 
HETATM   25  C   UNL     1      44.429 -18.804   5.074  1.00  0.00     0.259 A 
HETATM   26  C   UNL     1      44.781 -21.233   4.588  1.00  0.00     0.019 A 
HETATM   27  O   UNL     1      44.775 -18.904   6.245  1.00  0.00    -0.267 OA
HETATM   28  N   UNL     1      44.027 -17.608   4.536  1.00  0.00    -0.307 N 
HETATM   29  H   UNL     1      43.994 -16.846   5.194  1.00  0.00     0.170 HD
HETATM   30  C   UNL     1      44.722 -22.300   3.694  1.00  0.00     0.001 A 
HETATM   31  C   UNL     1      44.292 -22.085   2.384  1.00  0.00     0.002 A 
ENDBRANCH   4  20
TORSDOF 5
ENDMDL
MODEL 8
REMARK VINA RESULT:      -8.0      2.479      3.299
REMARK  5 active torsions:
REMARK  status: ('A' for Active; 'I' for Inactive)
REMARK    1  A    between atoms: O_2  and  C_3 
REMARK    2  A    between atoms: C_6  and  C_7 
REMARK    3  A    between atoms: C_7  and  C_8 
REMARK       I    between atoms: C_8  and  N_9 
REMARK    4  A    between atoms: N_9  and  C_10 
REMARK    5  A    between atoms: C_13  and  C_14 
ROOT
HETATM    1  C   UNL     1      41.063 -12.761   6.108  1.00  0.00     0.034 A 
HETATM    2  C   UNL     1      42.393 -13.156   5.960  1.00  0.00     0.030 A 
HETATM    3  C   UNL     1      42.711 -14.371   5.340  1.00  0.00     0.017 A 
HETATM    4  C   UNL     1      41.703 -15.209   4.852  1.00  0.00     0.010 A 
HETATM    5  C   UNL     1      40.366 -14.838   5.034  1.00  0.00     0.017 A 
HETATM    6  C   UNL     1      40.053 -13.620   5.655  1.00  0.00     0.030 A 
ENDROOT
BRANCH   1   7
HETATM    7  N   UNL     1      40.668 -11.520   6.652  1.00  0.00    -0.327 N 
HETATM    8  C   UNL     1      39.792 -11.308   7.705  1.00  0.00     0.226 C 
HETATM    9  O   UNL     1      39.097 -12.156   8.256  1.00  0.00    -0.273 OA
HETATM   10  H   UNL     1      41.064 -10.693   6.223  1.00  0.00     0.169 HD
BRANCH   8  11
HETATM   11  C   UNL     1      39.773  -9.863   8.180  1.00  0.00     0.141 C 
BRANCH  11  12
HETATM   12  C   UNL     1      40.671  -9.572   9.357  1.00  0.00    -0.049 A 
HETATM   13  C   UNL     1      40.630  -8.341  10.025  1.00  0.00     0.010 A 
HETATM   14  C   UNL     1      41.424  -8.110  11.154  1.00  0.00     0.037 A 
HETATM   15  C   UNL     1      42.258  -9.114  11.644  1.00  0.00     0.068 A 
HETATM   16  C   UNL     1      42.291 -10.348  10.992  1.00  0.00     0.037 A 
HETATM   17  C   UNL     1      41.504 -10.580   9.862  1.00  0.00     0.010 A 
BRANCH  15  18
HETATM   18  O   UNL     1      43.070  -9.025  12.741  1.00  0.00    -0.356 OA
HETATM   19  C   UNL     1      42.847  -9.965  13.784  1.00  0.00     0.210 C 
ENDBRANCH  15  18
ENDBRANCH  11  12
ENDBRANCH   8  11
ENDBRANCH   1   7
BRANCH   4  20
HETATM   20  C   UNL     1      42.104 -16.454   4.134  1.00  0.00     0.141 A 
HETATM   21  N   UNL     1      42.977 -17.260   4.650  1.00  0.00    -0.230 NA
HETATM   22  C   UNL     1      43.361 -18.396   3.918  1.00  0.00     0.074 A 
HETATM   23  C   UNL     1      42.844 -18.685   2.653  1.00  0.00     0.061 A 
HETATM   24  C   UNL     1      44.311 -19.262   4.463  1.00  0.00     0.032 A 
HETATM   25  C   UNL     1      41.857 -17.746   2.098  1.00  0.00     0.259 A 
HETATM   26  C   UNL     1      43.261 -19.810   1.934  1.00  0.00     0.019 A 
HETATM   27  O   UNL     1      41.359 -17.897   0.989  1.00  0.00    -0.267 OA
HETATM   28  N   UNL     1      41.538 -16.678   2.898  1.00  0.00    -0.307 N 
HETATM   29  H   UNL     1      40.908 -16.015   2.474  1.00  0.00     0.170 HD
HETATM   30  C   UNL     1      44.213 -20.663   2.490  1.00  0.00     0.001 A 
HETATM   31  C   UNL     1      44.736 -20.390   3.754  1.00  0.00     0.002 A 
ENDBRANCH   4  20
TORSDOF 5
ENDMDL
MODEL 9
REMARK VINA RESULT:      -8.0      6.011      9.260
REMARK  5 active torsions:
REMARK  status: ('A' for Active; 'I' for Inactive)
REMARK    1  A    between atoms: O_2  and  C_3 
REMARK    2  A    between atoms: C_6  and  C_7 
REMARK    3  A    between atoms: C_7  and  C_8 
REMARK       I    between atoms: C_8  and  N_9 
REMARK    4  A    between atoms: N_9  and  C_10 
REMARK    5  A    between atoms: C_13  and  C_14 
ROOT
HETATM    1  C   UNL     1      42.127 -14.658   0.943  1.00  0.00     0.034 A 
HETATM    2  C   UNL     1      42.079 -15.947   0.412  1.00  0.00     0.030 A 
HETATM    3  C   UNL     1      42.602 -17.033   1.126  1.00  0.00     0.017 A 
HETATM    4  C   UNL     1      43.177 -16.847   2.387  1.00  0.00     0.010 A 
HETATM    5  C   UNL     1      43.265 -15.552   2.908  1.00  0.00     0.017 A 
HETATM    6  C   UNL     1      42.739 -14.468   2.189  1.00  0.00     0.030 A 
ENDROOT
BRANCH   1   7
HETATM    7  N   UNL     1      41.556 -13.529   0.318  1.00  0.00    -0.327 N 
HETATM    8  C   UNL     1      40.207 -13.235   0.191  1.00  0.00     0.226 C 
HETATM    9  O   UNL     1      39.271 -13.977   0.473  1.00  0.00    -0.273 OA
HETATM   10  H   UNL     1      42.202 -12.862  -0.086  1.00  0.00     0.169 HD
BRANCH   8  11
HETATM   11  C   UNL     1      39.952 -11.829  -0.330  1.00  0.00     0.141 C 
BRANCH  11  12
HETATM   12  C   UNL     1      40.716 -11.468  -1.580  1.00  0.00    -0.049 A 
HETATM   13  C   UNL     1      40.427 -12.064  -2.814  1.00  0.00     0.010 A 
HETATM   14  C   UNL     1      41.101 -11.671  -3.977  1.00  0.00     0.037 A 
HETATM   15  C   UNL     1      42.063 -10.663  -3.924  1.00  0.00     0.068 A 
HETATM   16  C   UNL     1      42.344 -10.055  -2.699  1.00  0.00     0.037 A 
HETATM   17  C   UNL     1      41.676 -10.448  -1.537  1.00  0.00     0.010 A 
BRANCH  15  18
HETATM   18  O   UNL     1      42.781 -10.177  -4.982  1.00  0.00    -0.356 OA
HETATM   19  C   UNL     1      42.316  -8.973  -5.576  1.00  0.00     0.210 C 
ENDBRANCH  15  18
ENDBRANCH  11  12
ENDBRANCH   8  11
ENDBRANCH   1   7
BRANCH   4  20
HETATM   20  C   UNL     1      43.649 -18.050   3.133  1.00  0.00     0.141 A 
HETATM   21  N   UNL     1      43.771 -19.192   2.533  1.00  0.00    -0.230 NA
HETATM   22  C   UNL     1      44.173 -20.309   3.285  1.00  0.00     0.074 A 
HETATM   23  C   UNL     1      44.438 -20.237   4.654  1.00  0.00     0.061 A 
HETATM   24  C   UNL     1      44.294 -21.545   2.647  1.00  0.00     0.032 A 
HETATM   25  C   UNL     1      44.286 -18.926   5.302  1.00  0.00     0.259 A 
HETATM   26  C   UNL     1      44.812 -21.369   5.385  1.00  0.00     0.019 A 
HETATM   27  O   UNL     1      44.474 -18.760   6.501  1.00  0.00    -0.267 OA
HETATM   28  N   UNL     1      43.906 -17.896   4.478  1.00  0.00    -0.307 N 
HETATM   29  H   UNL     1      43.748 -17.021   4.952  1.00  0.00     0.170 HD
HETATM   30  C   UNL     1      44.926 -22.597   4.735  1.00  0.00     0.001 A 
HETATM   31  C   UNL     1      44.668 -22.684   3.366  1.00  0.00     0.002 A 
ENDBRANCH   4  20
TORSDOF 5
ENDMDL
MODEL 10
REMARK VINA RESULT:      -7.8      6.459     10.970
REMARK  5 active torsions:
REMARK  status: ('A' for Active; 'I' for Inactive)
REMARK    1  A    between atoms: O_2  and  C_3 
REMARK    2  A    between atoms: C_6  and  C_7 
REMARK    3  A    between atoms: C_7  and  C_8 
REMARK       I    between atoms: C_8  and  N_9 
REMARK    4  A    between atoms: N_9  and  C_10 
REMARK    5  A    between atoms: C_13  and  C_14 
ROOT
HETATM    1  C   UNL     1      40.644 -14.654   0.076  1.00  0.00     0.034 A 
HETATM    2  C   UNL     1      41.269 -15.878  -0.167  1.00  0.00     0.030 A 
HETATM    3  C   UNL     1      41.830 -16.613   0.885  1.00  0.00     0.017 A 
HETATM    4  C   UNL     1      41.769 -16.139   2.200  1.00  0.00     0.010 A 
HETATM    5  C   UNL     1      41.180 -14.894   2.444  1.00  0.00     0.017 A 
HETATM    6  C   UNL     1      40.619 -14.161   1.388  1.00  0.00     0.030 A 
ENDROOT
BRANCH   1   7
HETATM    7  N   UNL     1      39.992 -13.894  -0.918  1.00  0.00    -0.327 N 
HETATM    8  C   UNL     1      38.662 -13.505  -0.938  1.00  0.00     0.226 C 
HETATM    9  O   UNL     1      37.784 -13.876  -0.165  1.00  0.00    -0.273 OA
HETATM   10  H   UNL     1      40.558 -13.605  -1.707  1.00  0.00     0.169 HD
BRANCH   8  11
HETATM   11  C   UNL     1      38.353 -12.502  -2.038  1.00  0.00     0.141 C 
BRANCH  11  12
HETATM   12  C   UNL     1      37.410 -13.002  -3.105  1.00  0.00    -0.049 A 
HETATM   13  C   UNL     1      36.486 -12.151  -3.725  1.00  0.00     0.010 A 
HETATM   14  C   UNL     1      35.663 -12.616  -4.758  1.00  0.00     0.037 A 
HETATM   15  C   UNL     1      35.766 -13.935  -5.199  1.00  0.00     0.068 A 
HETATM   16  C   UNL     1      36.697 -14.782  -4.595  1.00  0.00     0.037 A 
HETATM   17  C   UNL     1      37.516 -14.323  -3.561  1.00  0.00     0.010 A 
BRANCH  15  18
HETATM   18  O   UNL     1      35.037 -14.510  -6.203  1.00  0.00    -0.356 OA
HETATM   19  C   UNL     1      35.314 -14.076  -7.528  1.00  0.00     0.210 C 
ENDBRANCH  15  18
ENDBRANCH  11  12
ENDBRANCH   8  11
ENDBRANCH   1   7
BRANCH   4  20
HETATM   20  C   UNL     1      42.316 -17.000   3.288  1.00  0.00     0.141 A 
HETATM   21  N   UNL     1      42.245 -16.623   4.526  1.00  0.00    -0.230 NA
HETATM   22  C   UNL     1      42.815 -17.444   5.514  1.00  0.00     0.074 A 
HETATM   23  C   UNL     1      43.462 -18.644   5.213  1.00  0.00     0.061 A 
HETATM   24  C   UNL     1      42.754 -17.037   6.848  1.00  0.00     0.032 A 
HETATM   25  C   UNL     1      43.525 -19.039   3.797  1.00  0.00     0.259 A 
HETATM   26  C   UNL     1      44.044 -19.430   6.213  1.00  0.00     0.019 A 
HETATM   27  O   UNL     1      44.087 -20.061   3.425  1.00  0.00    -0.267 OA
HETATM   28  N   UNL     1      42.925 -18.178   2.913  1.00  0.00    -0.307 N 
HETATM   29  H   UNL     1      43.033 -18.436   1.945  1.00  0.00     0.170 HD
HETATM   30  C   UNL     1      43.977 -19.010   7.540  1.00  0.00     0.001 A 
HETATM   31  C   UNL     1      43.331 -17.814   7.857  1.00  0.00     0.002 A 
ENDBRANCH   4  20
TORSDOF 5
ENDMDL
