MODEL 1
REMARK VINA RESULT:      -8.5      0.000      0.000
REMARK  10 active torsions:
REMARK  status: ('A' for Active; 'I' for Inactive)
REMARK    1  A    between atoms: C_4  and  C_5 
REMARK    2  A    between atoms: C_7  and  C_8 
REMARK    3  A    between atoms: C_8  and  C_9 
REMARK       I    between atoms: C_9  and  N_10 
REMARK    4  A    between atoms: N_10  and  C_11 
REMARK    5  A    between atoms: C_11  and  C_12 
REMARK    6  A    between atoms: C_12  and  N_13 
REMARK    7  A    between atoms: C_24  and  C_25 
REMARK    8  A    between atoms: C_25  and  O_26 
REMARK    9  A    between atoms: O_26  and  C_27 
REMARK   10  A    between atoms: C_27  and  C_28 
ROOT
HETATM    1  C   UNL     1      42.022 -14.704   3.233  1.00  0.00     0.166 C 
HETATM    2  N   UNL     1      40.705 -13.980   3.325  1.00  0.00    -0.318 N 
HETATM    3  C   UNL     1      40.034 -13.288   4.201  1.00  0.00     0.011 C 
HETATM    4  C   UNL     1      39.994 -13.915   1.937  1.00  0.00     0.170 C 
HETATM    5  S   UNL     1      38.713 -12.756   1.884  1.00  0.00    -0.086 SA
HETATM    6  C   UNL     1      38.887 -12.454   3.643  1.00  0.00     0.135 C 
HETATM    7  N   UNL     1      40.259 -14.648   0.922  1.00  0.00    -0.229 NA
HETATM    8  C   UNL     1      41.250 -15.591   1.015  1.00  0.00     0.048 C 
HETATM    9  C   UNL     1      41.374 -16.425  -0.240  1.00  0.00     0.071 C 
HETATM   10  C   UNL     1      42.078 -15.677   2.080  1.00  0.00     0.069 C 
ENDROOT
BRANCH   3  11
HETATM   11  C   UNL     1      40.361 -13.175   5.669  1.00  0.00     0.156 C 
BRANCH  11  12
HETATM   12  C   UNL     1      41.177 -11.931   5.993  1.00  0.00     0.223 C 
HETATM   13  N   UNL     1      41.425 -11.713   7.323  1.00  0.00    -0.359 N 
HETATM   14  H   UNL     1      40.871 -12.242   7.995  1.00  0.00     0.162 HD
HETATM   15  O   UNL     1      41.612 -11.188   5.115  1.00  0.00    -0.273 OA
BRANCH  13  16
HETATM   16  C   UNL     1      42.028 -10.485   7.855  1.00  0.00     0.150 C 
BRANCH  16  17
HETATM   17  C   UNL     1      42.007 -10.318   9.394  1.00  0.00     0.253 C 
BRANCH  17  18
HETATM   18  N   UNL     1      42.778 -11.407  10.116  1.00  0.00    -0.077 N 
HETATM   19  H   UNL     1      42.316 -12.308   9.877  1.00  0.00     0.279 HD
HETATM   20  C   UNL     1      44.210 -11.532   9.669  1.00  0.00     0.269 C 
HETATM   21  C   UNL     1      42.699 -11.260  11.611  1.00  0.00     0.269 C 
ENDBRANCH  17  18
ENDBRANCH  16  17
ENDBRANCH  13  16
ENDBRANCH  11  12
ENDBRANCH   3  11
BRANCH   1  22
HETATM   22  C   UNL     1      42.530 -15.198   4.582  1.00  0.00    -0.024 A 
HETATM   23  C   UNL     1      43.610 -14.474   5.155  1.00  0.00     0.017 A 
HETATM   24  C   UNL     1      44.123 -14.780   6.420  1.00  0.00    -0.061 A 
HETATM   25  C   UNL     1      45.274 -13.998   6.987  1.00  0.00     0.048 C 
HETATM   26  C   UNL     1      43.595 -15.869   7.107  1.00  0.00     0.007 A 
HETATM   27  C   UNL     1      42.551 -16.614   6.553  1.00  0.00     0.008 A 
HETATM   28  C   UNL     1      41.989 -16.283   5.306  1.00  0.00    -0.053 A 
HETATM   29  C   UNL     1      40.887 -17.174   4.797  1.00  0.00     0.049 C 
ENDBRANCH   1  22
BRANCH  10  30
HETATM   30  C   UNL     1      43.215 -16.627   2.062  1.00  0.00     0.294 C 
HETATM   31  O   UNL     1      44.364 -16.258   1.894  1.00  0.00    -0.259 OA
BRANCH  30  32
HETATM   32  O   UNL     1      42.781 -17.881   2.303  1.00  0.00    -0.313 OA
BRANCH  32  33
HETATM   33  C   UNL     1      43.630 -18.930   1.808  1.00  0.00     0.217 C 
BRANCH  33  34
HETATM   34  C   UNL     1      44.034 -19.796   2.978  1.00  0.00    -0.034 A 
HETATM   35  C   UNL     1      44.060 -19.268   4.279  1.00  0.00     0.009 A 
HETATM   36  C   UNL     1      44.431 -20.062   5.365  1.00  0.00     0.001 A 
HETATM   37  C   UNL     1      44.766 -21.399   5.168  1.00  0.00     0.000 A 
HETATM   38  C   UNL     1      44.730 -21.941   3.885  1.00  0.00     0.001 A 
HETATM   39  C   UNL     1      44.369 -21.144   2.795  1.00  0.00     0.009 A 
ENDBRANCH  33  34
ENDBRANCH  32  33
ENDBRANCH  30  32
ENDBRANCH  10  30
TORSDOF 10
ENDMDL
MODEL 2
REMARK VINA RESULT:      -8.1      3.036      6.550
REMARK  10 active torsions:
REMARK  status: ('A' for Active; 'I' for Inactive)
REMARK    1  A    between atoms: C_4  and  C_5 
REMARK    2  A    between atoms: C_7  and  C_8 
REMARK    3  A    between atoms: C_8  and  C_9 
REMARK       I    between atoms: C_9  and  N_10 
REMARK    4  A    between atoms: N_10  and  C_11 
REMARK    5  A    between atoms: C_11  and  C_12 
REMARK    6  A    between atoms: C_12  and  N_13 
REMARK    7  A    between atoms: C_24  and  C_25 
REMARK    8  A    between atoms: C_25  and  O_26 
REMARK    9  A    between atoms: O_26  and  C_27 
REMARK   10  A    between atoms: C_27  and  C_28 
ROOT
HETATM    1  C   UNL     1      41.489 -13.444   2.708  1.00  0.00     0.166 C 
HETATM    2  N   UNL     1      40.737 -13.288   4.003  1.00  0.00    -0.318 N 
HETATM    3  C   UNL     1      40.439 -14.006   5.049  1.00  0.00     0.011 C 
HETATM    4  C   UNL     1      40.302 -11.807   4.234  1.00  0.00     0.170 C 
HETATM    5  S   UNL     1      39.821 -11.486   5.862  1.00  0.00    -0.086 SA
HETATM    6  C   UNL     1      39.952 -13.228   6.265  1.00  0.00     0.135 C 
HETATM    7  N   UNL     1      40.247 -10.892   3.341  1.00  0.00    -0.229 NA
HETATM    8  C   UNL     1      40.591 -11.194   2.048  1.00  0.00     0.048 C 
HETATM    9  C   UNL     1      40.387 -10.027   1.107  1.00  0.00     0.071 C 
HETATM   10  C   UNL     1      41.145 -12.376   1.697  1.00  0.00     0.069 C 
ENDROOT
BRANCH   3  11
HETATM   11  C   UNL     1      40.631 -15.497   5.174  1.00  0.00     0.156 C 
BRANCH  11  12
HETATM   12  C   UNL     1      41.891 -15.862   5.949  1.00  0.00     0.223 C 
HETATM   13  N   UNL     1      41.808 -16.992   6.718  1.00  0.00    -0.359 N 
HETATM   14  H   UNL     1      40.878 -17.366   6.902  1.00  0.00     0.162 HD
HETATM   15  O   UNL     1      42.924 -15.201   5.863  1.00  0.00    -0.273 OA
BRANCH  13  16
HETATM   16  C   UNL     1      42.839 -17.410   7.676  1.00  0.00     0.150 C 
BRANCH  16  17
HETATM   17  C   UNL     1      44.010 -18.246   7.105  1.00  0.00     0.253 C 
BRANCH  17  18
HETATM   18  N   UNL     1      43.545 -19.372   6.200  1.00  0.00    -0.077 N 
HETATM   19  H   UNL     1      42.523 -19.242   6.064  1.00  0.00     0.279 HD
HETATM   20  C   UNL     1      44.165 -19.341   4.829  1.00  0.00     0.269 C 
HETATM   21  C   UNL     1      43.731 -20.722   6.837  1.00  0.00     0.269 C 
ENDBRANCH  17  18
ENDBRANCH  16  17
ENDBRANCH  13  16
ENDBRANCH  11  12
ENDBRANCH   3  11
BRANCH   1  22
HETATM   22  C   UNL     1      41.532 -14.883   2.209  1.00  0.00    -0.024 A 
HETATM   23  C   UNL     1      42.817 -15.481   2.113  1.00  0.00     0.017 A 
HETATM   24  C   UNL     1      42.989 -16.817   1.737  1.00  0.00    -0.061 A 
HETATM   25  C   UNL     1      44.366 -17.411   1.636  1.00  0.00     0.048 C 
HETATM   26  C   UNL     1      41.867 -17.561   1.387  1.00  0.00     0.007 A 
HETATM   27  C   UNL     1      40.594 -16.987   1.446  1.00  0.00     0.008 A 
HETATM   28  C   UNL     1      40.401 -15.661   1.876  1.00  0.00    -0.053 A 
HETATM   29  C   UNL     1      38.988 -15.142   1.873  1.00  0.00     0.049 C 
ENDBRANCH   1  22
BRANCH  10  30
HETATM   30  C   UNL     1      41.621 -12.592   0.311  1.00  0.00     0.294 C 
HETATM   31  O   UNL     1      42.714 -12.210  -0.066  1.00  0.00    -0.259 OA
BRANCH  30  32
HETATM   32  O   UNL     1      40.705 -13.287  -0.395  1.00  0.00    -0.313 OA
BRANCH  32  33
HETATM   33  C   UNL     1      41.239 -14.145  -1.417  1.00  0.00     0.217 C 
BRANCH  33  34
HETATM   34  C   UNL     1      40.089 -14.639  -2.261  1.00  0.00    -0.034 A 
HETATM   35  C   UNL     1      38.818 -14.052  -2.148  1.00  0.00     0.009 A 
HETATM   36  C   UNL     1      37.750 -14.502  -2.926  1.00  0.00     0.001 A 
HETATM   37  C   UNL     1      37.941 -15.535  -3.838  1.00  0.00     0.000 A 
HETATM   38  C   UNL     1      39.200 -16.119  -3.973  1.00  0.00     0.001 A 
HETATM   39  C   UNL     1      40.267 -15.676  -3.188  1.00  0.00     0.009 A 
ENDBRANCH  33  34
ENDBRANCH  32  33
ENDBRANCH  30  32
ENDBRANCH  10  30
TORSDOF 10
ENDMDL
MODEL 3
REMARK VINA RESULT:      -7.9      2.154      3.340
REMARK  10 active torsions:
REMARK  status: ('A' for Active; 'I' for Inactive)
REMARK    1  A    between atoms: C_4  and  C_5 
REMARK    2  A    between atoms: C_7  and  C_8 
REMARK    3  A    between atoms: C_8  and  C_9 
REMARK       I    between atoms: C_9  and  N_10 
REMARK    4  A    between atoms: N_10  and  C_11 
REMARK    5  A    between atoms: C_11  and  C_12 
REMARK    6  A    between atoms: C_12  and  N_13 
REMARK    7  A    between atoms: C_24  and  C_25 
REMARK    8  A    between atoms: C_25  and  O_26 
REMARK    9  A    between atoms: O_26  and  C_27 
REMARK   10  A    between atoms: C_27  and  C_28 
ROOT
HETATM    1  C   UNL     1      40.646 -13.197   3.353  1.00  0.00     0.166 C 
HETATM    2  N   UNL     1      40.223 -11.984   4.138  1.00  0.00    -0.318 N 
HETATM    3  C   UNL     1      40.591 -11.342   5.210  1.00  0.00     0.011 C 
HETATM    4  C   UNL     1      39.116 -11.178   3.390  1.00  0.00     0.170 C 
HETATM    5  S   UNL     1      38.895  -9.583   4.017  1.00  0.00    -0.086 SA
HETATM    6  C   UNL     1      40.031  -9.932   5.359  1.00  0.00     0.135 C 
HETATM    7  N   UNL     1      38.387 -11.614   2.433  1.00  0.00    -0.229 NA
HETATM    8  C   UNL     1      38.557 -12.901   1.992  1.00  0.00     0.048 C 
HETATM    9  C   UNL     1      37.561 -13.282   0.919  1.00  0.00     0.071 C 
HETATM   10  C   UNL     1      39.574 -13.688   2.410  1.00  0.00     0.069 C 
ENDROOT
BRANCH   3  11
HETATM   11  C   UNL     1      41.581 -11.837   6.235  1.00  0.00     0.156 C 
BRANCH  11  12
HETATM   12  C   UNL     1      41.548 -11.023   7.522  1.00  0.00     0.223 C 
HETATM   13  N   UNL     1      40.571 -11.370   8.419  1.00  0.00    -0.359 N 
HETATM   14  H   UNL     1      39.815 -11.963   8.081  1.00  0.00     0.162 HD
HETATM   15  O   UNL     1      42.365 -10.134   7.754  1.00  0.00    -0.273 OA
BRANCH  13  16
HETATM   16  C   UNL     1      40.253 -10.597   9.625  1.00  0.00     0.150 C 
BRANCH  16  17
HETATM   17  C   UNL     1      40.800 -11.154  10.963  1.00  0.00     0.253 C 
BRANCH  17  18
HETATM   18  N   UNL     1      42.259 -10.810  11.194  1.00  0.00    -0.077 N 
HETATM   19  H   UNL     1      42.787 -11.195  10.385  1.00  0.00     0.279 HD
HETATM   20  C   UNL     1      42.536  -9.331  11.218  1.00  0.00     0.269 C 
HETATM   21  C   UNL     1      42.808 -11.473  12.427  1.00  0.00     0.269 C 
ENDBRANCH  17  18
ENDBRANCH  16  17
ENDBRANCH  13  16
ENDBRANCH  11  12
ENDBRANCH   3  11
BRANCH   1  22
HETATM   22  C   UNL     1      41.355 -14.245   4.202  1.00  0.00    -0.024 A 
HETATM   23  C   UNL     1      40.533 -15.026   5.058  1.00  0.00     0.017 A 
HETATM   24  C   UNL     1      41.047 -16.068   5.836  1.00  0.00    -0.061 A 
HETATM   25  C   UNL     1      40.147 -16.864   6.739  1.00  0.00     0.048 C 
HETATM   26  C   UNL     1      42.419 -16.301   5.814  1.00  0.00     0.007 A 
HETATM   27  C   UNL     1      43.253 -15.529   5.002  1.00  0.00     0.008 A 
HETATM   28  C   UNL     1      42.740 -14.513   4.172  1.00  0.00    -0.053 A 
HETATM   29  C   UNL     1      43.737 -13.729   3.360  1.00  0.00     0.049 C 
ENDBRANCH   1  22
BRANCH  10  30
HETATM   30  C   UNL     1      39.785 -15.020   1.796  1.00  0.00     0.294 C 
HETATM   31  O   UNL     1      38.975 -15.923   1.912  1.00  0.00    -0.259 OA
BRANCH  30  32
HETATM   32  O   UNL     1      40.934 -15.032   1.090  1.00  0.00    -0.313 OA
BRANCH  32  33
HETATM   33  C   UNL     1      41.224 -16.265   0.410  1.00  0.00     0.217 C 
BRANCH  33  34
HETATM   34  C   UNL     1      42.164 -17.068   1.278  1.00  0.00    -0.034 A 
HETATM   35  C   UNL     1      41.668 -17.826   2.351  1.00  0.00     0.009 A 
HETATM   36  C   UNL     1      42.530 -18.573   3.157  1.00  0.00     0.001 A 
HETATM   37  C   UNL     1      43.896 -18.583   2.892  1.00  0.00     0.000 A 
HETATM   38  C   UNL     1      44.401 -17.847   1.821  1.00  0.00     0.001 A 
HETATM   39  C   UNL     1      43.541 -17.092   1.020  1.00  0.00     0.009 A 
ENDBRANCH  33  34
ENDBRANCH  32  33
ENDBRANCH  30  32
ENDBRANCH  10  30
TORSDOF 10
ENDMDL
MODEL 4
REMARK VINA RESULT:      -7.8      3.876      7.040
REMARK  10 active torsions:
REMARK  status: ('A' for Active; 'I' for Inactive)
REMARK    1  A    between atoms: C_4  and  C_5 
REMARK    2  A    between atoms: C_7  and  C_8 
REMARK    3  A    between atoms: C_8  and  C_9 
REMARK       I    between atoms: C_9  and  N_10 
REMARK    4  A    between atoms: N_10  and  C_11 
REMARK    5  A    between atoms: C_11  and  C_12 
REMARK    6  A    between atoms: C_12  and  N_13 
REMARK    7  A    between atoms: C_24  and  C_25 
REMARK    8  A    between atoms: C_25  and  O_26 
REMARK    9  A    between atoms: O_26  and  C_27 
REMARK   10  A    between atoms: C_27  and  C_28 
ROOT
HETATM    1  C   UNL     1      41.437 -13.355   2.061  1.00  0.00     0.166 C 
HETATM    2  N   UNL     1      40.889 -12.930   3.397  1.00  0.00    -0.318 N 
HETATM    3  C   UNL     1      40.756 -13.422   4.596  1.00  0.00     0.011 C 
HETATM    4  C   UNL     1      40.489 -11.421   3.395  1.00  0.00     0.170 C 
HETATM    5  S   UNL     1      40.259 -10.777   4.981  1.00  0.00    -0.086 SA
HETATM    6  C   UNL     1      40.456 -12.410   5.695  1.00  0.00     0.135 C 
HETATM    7  N   UNL     1      40.296 -10.697   2.358  1.00  0.00    -0.229 NA
HETATM    8  C   UNL     1      40.442 -11.254   1.113  1.00  0.00     0.048 C 
HETATM    9  C   UNL     1      40.094 -10.287   0.002  1.00  0.00     0.071 C 
HETATM   10  C   UNL     1      40.940 -12.496   0.923  1.00  0.00     0.069 C 
ENDROOT
BRANCH   3  11
HETATM   11  C   UNL     1      40.969 -14.865   4.982  1.00  0.00     0.156 C 
BRANCH  11  12
HETATM   12  C   UNL     1      42.339 -15.108   5.603  1.00  0.00     0.223 C 
HETATM   13  N   UNL     1      42.360 -15.955   6.680  1.00  0.00    -0.359 N 
HETATM   14  H   UNL     1      41.469 -16.170   7.123  1.00  0.00     0.162 HD
HETATM   15  O   UNL     1      43.362 -14.601   5.146  1.00  0.00    -0.273 OA
BRANCH  13  16
HETATM   16  C   UNL     1      43.538 -16.173   7.528  1.00  0.00     0.150 C 
BRANCH  16  17
HETATM   17  C   UNL     1      43.583 -17.508   8.312  1.00  0.00     0.253 C 
BRANCH  17  18
HETATM   18  N   UNL     1      44.440 -18.561   7.636  1.00  0.00    -0.077 N 
HETATM   19  H   UNL     1      45.091 -18.925   8.360  1.00  0.00     0.279 HD
HETATM   20  C   UNL     1      43.659 -19.745   7.132  1.00  0.00     0.269 C 
HETATM   21  C   UNL     1      45.290 -17.980   6.539  1.00  0.00     0.269 C 
ENDBRANCH  17  18
ENDBRANCH  16  17
ENDBRANCH  13  16
ENDBRANCH  11  12
ENDBRANCH   3  11
BRANCH   1  22
HETATM   22  C   UNL     1      41.408 -14.864   1.853  1.00  0.00    -0.024 A 
HETATM   23  C   UNL     1      42.668 -15.515   1.770  1.00  0.00     0.017 A 
HETATM   24  C   UNL     1      42.782 -16.904   1.652  1.00  0.00    -0.061 A 
HETATM   25  C   UNL     1      44.133 -17.554   1.555  1.00  0.00     0.048 C 
HETATM   26  C   UNL     1      41.619 -17.661   1.550  1.00  0.00     0.007 A 
HETATM   27  C   UNL     1      40.367 -17.042   1.601  1.00  0.00     0.008 A 
HETATM   28  C   UNL     1      40.239 -15.651   1.776  1.00  0.00    -0.053 A 
HETATM   29  C   UNL     1      38.840 -15.093   1.789  1.00  0.00     0.049 C 
ENDBRANCH   1  22
BRANCH  10  30
HETATM   30  C   UNL     1      41.201 -12.990  -0.450  1.00  0.00     0.294 C 
HETATM   31  O   UNL     1      40.318 -13.450  -1.151  1.00  0.00    -0.259 OA
BRANCH  30  32
HETATM   32  O   UNL     1      42.496 -12.802  -0.776  1.00  0.00    -0.313 OA
BRANCH  32  33
HETATM   33  C   UNL     1      42.733 -12.371  -2.126  1.00  0.00     0.217 C 
BRANCH  33  34
HETATM   34  C   UNL     1      42.898 -10.870  -2.116  1.00  0.00    -0.034 A 
HETATM   35  C   UNL     1      43.670 -10.245  -1.124  1.00  0.00     0.009 A 
HETATM   36  C   UNL     1      43.828  -8.858  -1.108  1.00  0.00     0.001 A 
HETATM   37  C   UNL     1      43.229  -8.078  -2.094  1.00  0.00     0.000 A 
HETATM   38  C   UNL     1      42.472  -8.685  -3.094  1.00  0.00     0.001 A 
HETATM   39  C   UNL     1      42.304 -10.073  -3.104  1.00  0.00     0.009 A 
ENDBRANCH  33  34
ENDBRANCH  32  33
ENDBRANCH  30  32
ENDBRANCH  10  30
TORSDOF 10
ENDMDL
MODEL 5
REMARK VINA RESULT:      -7.8      1.544      2.356
REMARK  10 active torsions:
REMARK  status: ('A' for Active; 'I' for Inactive)
REMARK    1  A    between atoms: C_4  and  C_5 
REMARK    2  A    between atoms: C_7  and  C_8 
REMARK    3  A    between atoms: C_8  and  C_9 
REMARK       I    between atoms: C_9  and  N_10 
REMARK    4  A    between atoms: N_10  and  C_11 
REMARK    5  A    between atoms: C_11  and  C_12 
REMARK    6  A    between atoms: C_12  and  N_13 
REMARK    7  A    between atoms: C_24  and  C_25 
REMARK    8  A    between atoms: C_25  and  O_26 
REMARK    9  A    between atoms: O_26  and  C_27 
REMARK   10  A    between atoms: C_27  and  C_28 
ROOT
HETATM    1  C   UNL     1      42.069 -14.654   3.226  1.00  0.00     0.166 C 
HETATM    2  N   UNL     1      40.745 -13.945   3.336  1.00  0.00    -0.318 N 
HETATM    3  C   UNL     1      40.071 -13.272   4.226  1.00  0.00     0.011 C 
HETATM    4  C   UNL     1      40.024 -13.867   1.954  1.00  0.00     0.170 C 
HETATM    5  S   UNL     1      38.732 -12.721   1.925  1.00  0.00    -0.086 SA
HETATM    6  C   UNL     1      38.913 -12.442   3.687  1.00  0.00     0.135 C 
HETATM    7  N   UNL     1      40.291 -14.582   0.927  1.00  0.00    -0.229 NA
HETATM    8  C   UNL     1      41.292 -15.516   1.000  1.00  0.00     0.048 C 
HETATM    9  C   UNL     1      41.418 -16.331  -0.268  1.00  0.00     0.071 C 
HETATM   10  C   UNL     1      42.127 -15.610   2.059  1.00  0.00     0.069 C 
ENDROOT
BRANCH   3  11
HETATM   11  C   UNL     1      40.406 -13.178   5.694  1.00  0.00     0.156 C 
BRANCH  11  12
HETATM   12  C   UNL     1      40.290 -11.757   6.230  1.00  0.00     0.223 C 
HETATM   13  N   UNL     1      41.346 -10.929   5.949  1.00  0.00    -0.359 N 
HETATM   14  H   UNL     1      42.207 -11.364   5.621  1.00  0.00     0.162 HD
HETATM   15  O   UNL     1      39.300 -11.370   6.846  1.00  0.00    -0.273 OA
BRANCH  13  16
HETATM   16  C   UNL     1      41.514  -9.590   6.526  1.00  0.00     0.150 C 
BRANCH  16  17
HETATM   17  C   UNL     1      41.315  -8.396   5.561  1.00  0.00     0.253 C 
BRANCH  17  18
HETATM   18  N   UNL     1      39.897  -7.856   5.573  1.00  0.00    -0.077 N 
HETATM   19  H   UNL     1      39.953  -6.865   5.264  1.00  0.00     0.279 HD
HETATM   20  C   UNL     1      38.977  -8.553   4.607  1.00  0.00     0.269 C 
HETATM   21  C   UNL     1      39.307  -7.848   6.957  1.00  0.00     0.269 C 
ENDBRANCH  17  18
ENDBRANCH  16  17
ENDBRANCH  13  16
ENDBRANCH  11  12
ENDBRANCH   3  11
BRANCH   1  22
HETATM   22  C   UNL     1      42.590 -15.162   4.565  1.00  0.00    -0.024 A 
HETATM   23  C   UNL     1      43.659 -14.430   5.147  1.00  0.00     0.017 A 
HETATM   24  C   UNL     1      44.180 -14.748   6.405  1.00  0.00    -0.061 A 
HETATM   25  C   UNL     1      45.319 -13.956   6.983  1.00  0.00     0.048 C 
HETATM   26  C   UNL     1      43.673 -15.858   7.075  1.00  0.00     0.007 A 
HETATM   27  C   UNL     1      42.641 -16.612   6.511  1.00  0.00     0.008 A 
HETATM   28  C   UNL     1      42.069 -16.269   5.271  1.00  0.00    -0.053 A 
HETATM   29  C   UNL     1      40.981 -17.169   4.751  1.00  0.00     0.049 C 
ENDBRANCH   1  22
BRANCH  10  30
HETATM   30  C   UNL     1      43.274 -16.547   2.021  1.00  0.00     0.294 C 
HETATM   31  O   UNL     1      44.409 -16.172   1.788  1.00  0.00    -0.259 OA
BRANCH  30  32
HETATM   32  O   UNL     1      42.867 -17.797   2.322  1.00  0.00    -0.313 OA
BRANCH  32  33
HETATM   33  C   UNL     1      43.644 -18.854   1.736  1.00  0.00     0.217 C 
BRANCH  33  34
HETATM   34  C   UNL     1      44.059 -19.797   2.840  1.00  0.00    -0.034 A 
HETATM   35  C   UNL     1      44.309 -21.151   2.564  1.00  0.00     0.009 A 
HETATM   36  C   UNL     1      44.695 -22.029   3.579  1.00  0.00     0.001 A 
HETATM   37  C   UNL     1      44.850 -21.562   4.881  1.00  0.00     0.000 A 
HETATM   38  C   UNL     1      44.620 -20.218   5.168  1.00  0.00     0.001 A 
HETATM   39  C   UNL     1      44.223 -19.340   4.155  1.00  0.00     0.009 A 
ENDBRANCH  33  34
ENDBRANCH  32  33
ENDBRANCH  30  32
ENDBRANCH  10  30
TORSDOF 10
ENDMDL
MODEL 6
REMARK VINA RESULT:      -7.7      2.134      7.765
REMARK  10 active torsions:
REMARK  status: ('A' for Active; 'I' for Inactive)
REMARK    1  A    between atoms: C_4  and  C_5 
REMARK    2  A    between atoms: C_7  and  C_8 
REMARK    3  A    between atoms: C_8  and  C_9 
REMARK       I    between atoms: C_9  and  N_10 
REMARK    4  A    between atoms: N_10  and  C_11 
REMARK    5  A    between atoms: C_11  and  C_12 
REMARK    6  A    between atoms: C_12  and  N_13 
REMARK    7  A    between atoms: C_24  and  C_25 
REMARK    8  A    between atoms: C_25  and  O_26 
REMARK    9  A    between atoms: O_26  and  C_27 
REMARK   10  A    between atoms: C_27  and  C_28 
ROOT
HETATM    1  C   UNL     1      41.249 -13.659   4.634  1.00  0.00     0.166 C 
HETATM    2  N   UNL     1      41.685 -13.615   3.194  1.00  0.00    -0.318 N 
HETATM    3  C   UNL     1      42.446 -14.298   2.386  1.00  0.00     0.011 C 
HETATM    4  C   UNL     1      40.902 -12.528   2.394  1.00  0.00     0.170 C 
HETATM    5  S   UNL     1      41.044 -12.710   0.682  1.00  0.00    -0.086 SA
HETATM    6  C   UNL     1      42.244 -14.024   0.901  1.00  0.00     0.135 C 
HETATM    7  N   UNL     1      40.241 -11.556   2.898  1.00  0.00    -0.229 NA
HETATM    8  C   UNL     1      40.189 -11.414   4.261  1.00  0.00     0.048 C 
HETATM    9  C   UNL     1      39.443 -10.169   4.686  1.00  0.00     0.071 C 
HETATM   10  C   UNL     1      40.669 -12.349   5.111  1.00  0.00     0.069 C 
ENDROOT
BRANCH   3  11
HETATM   11  C   UNL     1      43.414 -15.381   2.796  1.00  0.00     0.156 C 
BRANCH  11  12
HETATM   12  C   UNL     1      42.787 -16.769   2.760  1.00  0.00     0.223 C 
HETATM   13  N   UNL     1      43.648 -17.815   2.964  1.00  0.00    -0.359 N 
HETATM   14  H   UNL     1      44.645 -17.620   2.892  1.00  0.00     0.162 HD
HETATM   15  O   UNL     1      41.580 -16.937   2.592  1.00  0.00    -0.273 OA
BRANCH  13  16
HETATM   16  C   UNL     1      43.282 -19.225   2.787  1.00  0.00     0.150 C 
BRANCH  16  17
HETATM   17  C   UNL     1      44.030 -20.247   3.679  1.00  0.00     0.253 C 
BRANCH  17  18
HETATM   18  N   UNL     1      44.568 -21.431   2.897  1.00  0.00    -0.077 N 
HETATM   19  H   UNL     1      45.535 -21.183   2.609  1.00  0.00     0.279 HD
HETATM   20  C   UNL     1      44.675 -22.694   3.709  1.00  0.00     0.269 C 
HETATM   21  C   UNL     1      43.788 -21.676   1.634  1.00  0.00     0.269 C 
ENDBRANCH  17  18
ENDBRANCH  16  17
ENDBRANCH  13  16
ENDBRANCH  11  12
ENDBRANCH   3  11
BRANCH   1  22
HETATM   22  C   UNL     1      42.260 -14.342   5.547  1.00  0.00    -0.024 A 
HETATM   23  C   UNL     1      43.476 -13.645   5.777  1.00  0.00     0.017 A 
HETATM   24  C   UNL     1      44.457 -14.128   6.650  1.00  0.00    -0.061 A 
HETATM   25  C   UNL     1      45.736 -13.368   6.858  1.00  0.00     0.048 C 
HETATM   26  C   UNL     1      44.255 -15.362   7.261  1.00  0.00     0.007 A 
HETATM   27  C   UNL     1      43.079 -16.080   7.030  1.00  0.00     0.008 A 
HETATM   28  C   UNL     1      42.060 -15.580   6.197  1.00  0.00    -0.053 A 
HETATM   29  C   UNL     1      40.850 -16.453   6.001  1.00  0.00     0.049 C 
ENDBRANCH   1  22
BRANCH  10  30
HETATM   30  C   UNL     1      40.461 -12.204   6.571  1.00  0.00     0.294 C 
HETATM   31  O   UNL     1      39.552 -12.765   7.155  1.00  0.00    -0.259 OA
BRANCH  30  32
HETATM   32  O   UNL     1      41.428 -11.431   7.106  1.00  0.00    -0.313 OA
BRANCH  32  33
HETATM   33  C   UNL     1      41.042 -10.681   8.270  1.00  0.00     0.217 C 
BRANCH  33  34
HETATM   34  C   UNL     1      42.214 -10.658   9.222  1.00  0.00    -0.034 A 
HETATM   35  C   UNL     1      42.096 -10.050  10.482  1.00  0.00     0.009 A 
HETATM   36  C   UNL     1      43.174 -10.026  11.369  1.00  0.00     0.001 A 
HETATM   37  C   UNL     1      44.381 -10.622  11.013  1.00  0.00     0.000 A 
HETATM   38  C   UNL     1      44.509 -11.242   9.772  1.00  0.00     0.001 A 
HETATM   39  C   UNL     1      43.434 -11.258   8.879  1.00  0.00     0.009 A 
ENDBRANCH  33  34
ENDBRANCH  32  33
ENDBRANCH  30  32
ENDBRANCH  10  30
TORSDOF 10
ENDMDL
MODEL 7
REMARK VINA RESULT:      -7.6      3.177      5.883
REMARK  10 active torsions:
REMARK  status: ('A' for Active; 'I' for Inactive)
REMARK    1  A    between atoms: C_4  and  C_5 
REMARK    2  A    between atoms: C_7  and  C_8 
REMARK    3  A    between atoms: C_8  and  C_9 
REMARK       I    between atoms: C_9  and  N_10 
REMARK    4  A    between atoms: N_10  and  C_11 
REMARK    5  A    between atoms: C_11  and  C_12 
REMARK    6  A    between atoms: C_12  and  N_13 
REMARK    7  A    between atoms: C_24  and  C_25 
REMARK    8  A    between atoms: C_25  and  O_26 
REMARK    9  A    between atoms: O_26  and  C_27 
REMARK   10  A    between atoms: C_27  and  C_28 
ROOT
HETATM    1  C   UNL     1      39.863 -14.436   3.041  1.00  0.00     0.166 C 
HETATM    2  N   UNL     1      39.810 -13.270   3.992  1.00  0.00    -0.318 N 
HETATM    3  C   UNL     1      39.569 -11.990   3.950  1.00  0.00     0.011 C 
HETATM    4  C   UNL     1      39.942 -13.737   5.475  1.00  0.00     0.170 C 
HETATM    5  S   UNL     1      39.471 -12.526   6.614  1.00  0.00    -0.086 SA
HETATM    6  C   UNL     1      39.284 -11.329   5.293  1.00  0.00     0.135 C 
HETATM    7  N   UNL     1      40.386 -14.871   5.868  1.00  0.00    -0.229 NA
HETATM    8  C   UNL     1      40.796 -15.791   4.938  1.00  0.00     0.048 C 
HETATM    9  C   UNL     1      41.371 -17.038   5.572  1.00  0.00     0.071 C 
HETATM   10  C   UNL     1      40.602 -15.623   3.611  1.00  0.00     0.069 C 
ENDROOT
BRANCH   3  11
HETATM   11  C   UNL     1      39.457 -11.158   2.696  1.00  0.00     0.156 C 
BRANCH  11  12
HETATM   12  C   UNL     1      38.013 -10.832   2.338  1.00  0.00     0.223 C 
HETATM   13  N   UNL     1      37.569  -9.596   2.731  1.00  0.00    -0.359 N 
HETATM   14  H   UNL     1      38.131  -9.093   3.415  1.00  0.00     0.162 HD
HETATM   15  O   UNL     1      37.304 -11.614   1.709  1.00  0.00    -0.273 OA
BRANCH  13  16
HETATM   16  C   UNL     1      36.168  -9.164   2.648  1.00  0.00     0.150 C 
BRANCH  16  17
HETATM   17  C   UNL     1      35.488  -8.776   3.984  1.00  0.00     0.253 C 
BRANCH  17  18
HETATM   18  N   UNL     1      34.177  -9.505   4.212  1.00  0.00    -0.077 N 
HETATM   19  H   UNL     1      34.419 -10.493   4.426  1.00  0.00     0.279 HD
HETATM   20  C   UNL     1      33.396  -8.992   5.392  1.00  0.00     0.269 C 
HETATM   21  C   UNL     1      33.319  -9.526   2.976  1.00  0.00     0.269 C 
ENDBRANCH  17  18
ENDBRANCH  16  17
ENDBRANCH  13  16
ENDBRANCH  11  12
ENDBRANCH   3  11
BRANCH   1  22
HETATM   22  C   UNL     1      40.201 -14.030   1.612  1.00  0.00    -0.024 A 
HETATM   23  C   UNL     1      39.175 -14.208   0.645  1.00  0.00     0.017 A 
HETATM   24  C   UNL     1      39.331 -13.810  -0.686  1.00  0.00    -0.061 A 
HETATM   25  C   UNL     1      38.227 -14.025  -1.683  1.00  0.00     0.048 C 
HETATM   26  C   UNL     1      40.555 -13.280  -1.085  1.00  0.00     0.007 A 
HETATM   27  C   UNL     1      41.590 -13.121  -0.159  1.00  0.00     0.008 A 
HETATM   28  C   UNL     1      41.427 -13.467   1.196  1.00  0.00    -0.053 A 
HETATM   29  C   UNL     1      42.619 -13.276   2.096  1.00  0.00     0.049 C 
ENDBRANCH   1  22
BRANCH  10  30
HETATM   30  C   UNL     1      40.943 -16.713   2.666  1.00  0.00     0.294 C 
HETATM   31  O   UNL     1      40.088 -17.380   2.112  1.00  0.00    -0.259 OA
BRANCH  30  32
HETATM   32  O   UNL     1      42.280 -16.790   2.504  1.00  0.00    -0.313 OA
BRANCH  32  33
HETATM   33  C   UNL     1      42.728 -17.768   1.551  1.00  0.00     0.217 C 
BRANCH  33  34
HETATM   34  C   UNL     1      43.430 -18.871   2.307  1.00  0.00    -0.034 A 
HETATM   35  C   UNL     1      43.911 -18.649   3.607  1.00  0.00     0.009 A 
HETATM   36  C   UNL     1      44.559 -19.664   4.313  1.00  0.00     0.001 A 
HETATM   37  C   UNL     1      44.721 -20.920   3.735  1.00  0.00     0.000 A 
HETATM   38  C   UNL     1      44.235 -21.160   2.451  1.00  0.00     0.001 A 
HETATM   39  C   UNL     1      43.596 -20.142   1.739  1.00  0.00     0.009 A 
ENDBRANCH  33  34
ENDBRANCH  32  33
ENDBRANCH  30  32
ENDBRANCH  10  30
TORSDOF 10
ENDMDL
MODEL 8
REMARK VINA RESULT:      -7.5      2.435      6.287
REMARK  10 active torsions:
REMARK  status: ('A' for Active; 'I' for Inactive)
REMARK    1  A    between atoms: C_4  and  C_5 
REMARK    2  A    between atoms: C_7  and  C_8 
REMARK    3  A    between atoms: C_8  and  C_9 
REMARK       I    between atoms: C_9  and  N_10 
REMARK    4  A    between atoms: N_10  and  C_11 
REMARK    5  A    between atoms: C_11  and  C_12 
REMARK    6  A    between atoms: C_12  and  N_13 
REMARK    7  A    between atoms: C_24  and  C_25 
REMARK    8  A    between atoms: C_25  and  O_26 
REMARK    9  A    between atoms: O_26  and  C_27 
REMARK   10  A    between atoms: C_27  and  C_28 
ROOT
HETATM    1  C   UNL     1      41.730 -15.070   5.197  1.00  0.00     0.166 C 
HETATM    2  N   UNL     1      40.982 -14.029   4.407  1.00  0.00    -0.318 N 
HETATM    3  C   UNL     1      40.187 -13.975   3.376  1.00  0.00     0.011 C 
HETATM    4  C   UNL     1      41.062 -12.629   5.091  1.00  0.00     0.170 C 
HETATM    5  S   UNL     1      39.898 -11.508   4.481  1.00  0.00    -0.086 SA
HETATM    6  C   UNL     1      39.404 -12.677   3.216  1.00  0.00     0.135 C 
HETATM    7  N   UNL     1      41.906 -12.278   5.986  1.00  0.00    -0.229 NA
HETATM    8  C   UNL     1      42.847 -13.179   6.413  1.00  0.00     0.048 C 
HETATM    9  C   UNL     1      43.818 -12.577   7.405  1.00  0.00     0.071 C 
HETATM   10  C   UNL     1      42.826 -14.482   6.052  1.00  0.00     0.069 C 
ENDROOT
BRANCH   3  11
HETATM   11  C   UNL     1      39.917 -15.105   2.414  1.00  0.00     0.156 C 
BRANCH  11  12
HETATM   12  C   UNL     1      40.283 -14.751   0.978  1.00  0.00     0.223 C 
HETATM   13  N   UNL     1      39.233 -14.421   0.162  1.00  0.00    -0.359 N 
HETATM   14  H   UNL     1      38.297 -14.654   0.488  1.00  0.00     0.162 HD
HETATM   15  O   UNL     1      41.449 -14.732   0.588  1.00  0.00    -0.273 OA
BRANCH  13  16
HETATM   16  C   UNL     1      39.351 -14.230  -1.288  1.00  0.00     0.150 C 
BRANCH  16  17
HETATM   17  C   UNL     1      39.747 -12.812  -1.766  1.00  0.00     0.253 C 
BRANCH  17  18
HETATM   18  N   UNL     1      40.911 -12.820  -2.740  1.00  0.00    -0.077 N 
HETATM   19  H   UNL     1      41.722 -12.405  -2.238  1.00  0.00     0.279 HD
HETATM   20  C   UNL     1      41.334 -14.200  -3.165  1.00  0.00     0.269 C 
HETATM   21  C   UNL     1      40.650 -11.951  -3.939  1.00  0.00     0.269 C 
ENDBRANCH  17  18
ENDBRANCH  16  17
ENDBRANCH  13  16
ENDBRANCH  11  12
ENDBRANCH   3  11
BRANCH   1  22
HETATM   22  C   UNL     1      42.079 -16.308   4.379  1.00  0.00    -0.024 A 
HETATM   23  C   UNL     1      43.025 -16.130   3.335  1.00  0.00     0.017 A 
HETATM   24  C   UNL     1      43.484 -17.198   2.557  1.00  0.00    -0.061 A 
HETATM   25  C   UNL     1      44.478 -16.968   1.453  1.00  0.00     0.048 C 
HETATM   26  C   UNL     1      42.946 -18.462   2.777  1.00  0.00     0.007 A 
HETATM   27  C   UNL     1      41.993 -18.659   3.780  1.00  0.00     0.008 A 
HETATM   28  C   UNL     1      41.563 -17.603   4.606  1.00  0.00    -0.053 A 
HETATM   29  C   UNL     1      40.513 -17.927   5.635  1.00  0.00     0.049 C 
ENDBRANCH   1  22
BRANCH  10  30
HETATM   30  C   UNL     1      43.788 -15.436   6.654  1.00  0.00     0.294 C 
HETATM   31  O   UNL     1      44.992 -15.260   6.604  1.00  0.00    -0.259 OA
BRANCH  30  32
HETATM   32  O   UNL     1      43.129 -16.438   7.269  1.00  0.00    -0.313 OA
BRANCH  32  33
HETATM   33  C   UNL     1      43.956 -17.367   7.989  1.00  0.00     0.217 C 
BRANCH  33  34
HETATM   34  C   UNL     1      44.168 -18.580   7.115  1.00  0.00    -0.034 A 
HETATM   35  C   UNL     1      43.543 -19.798   7.423  1.00  0.00     0.009 A 
HETATM   36  C   UNL     1      43.732 -20.924   6.619  1.00  0.00     0.001 A 
HETATM   37  C   UNL     1      44.538 -20.842   5.487  1.00  0.00     0.000 A 
HETATM   38  C   UNL     1      45.153 -19.635   5.159  1.00  0.00     0.001 A 
HETATM   39  C   UNL     1      44.972 -18.511   5.969  1.00  0.00     0.009 A 
ENDBRANCH  33  34
ENDBRANCH  32  33
ENDBRANCH  30  32
ENDBRANCH  10  30
TORSDOF 10
ENDMDL
MODEL 9
REMARK VINA RESULT:      -7.4      1.152      2.151
REMARK  10 active torsions:
REMARK  status: ('A' for Active; 'I' for Inactive)
REMARK    1  A    between atoms: C_4  and  C_5 
REMARK    2  A    between atoms: C_7  and  C_8 
REMARK    3  A    between atoms: C_8  and  C_9 
REMARK       I    between atoms: C_9  and  N_10 
REMARK    4  A    between atoms: N_10  and  C_11 
REMARK    5  A    between atoms: C_11  and  C_12 
REMARK    6  A    between atoms: C_12  and  N_13 
REMARK    7  A    between atoms: C_24  and  C_25 
REMARK    8  A    between atoms: C_25  and  O_26 
REMARK    9  A    between atoms: O_26  and  C_27 
REMARK   10  A    between atoms: C_27  and  C_28 
ROOT
HETATM    1  C   UNL     1      41.640 -14.358   3.188  1.00  0.00     0.166 C 
HETATM    2  N   UNL     1      40.396 -13.511   3.238  1.00  0.00    -0.318 N 
HETATM    3  C   UNL     1      39.696 -12.859   4.123  1.00  0.00     0.011 C 
HETATM    4  C   UNL     1      39.858 -13.205   1.805  1.00  0.00     0.170 C 
HETATM    5  S   UNL     1      38.708 -11.916   1.773  1.00  0.00    -0.086 SA
HETATM    6  C   UNL     1      38.706 -11.845   3.564  1.00  0.00     0.135 C 
HETATM    7  N   UNL     1      40.167 -13.836   0.736  1.00  0.00    -0.229 NA
HETATM    8  C   UNL     1      41.047 -14.885   0.807  1.00  0.00     0.048 C 
HETATM    9  C   UNL     1      41.236 -15.573  -0.527  1.00  0.00     0.071 C 
HETATM   10  C   UNL     1      41.735 -15.187   1.930  1.00  0.00     0.069 C 
ENDROOT
BRANCH   3  11
HETATM   11  C   UNL     1      39.861 -12.959   5.620  1.00  0.00     0.156 C 
BRANCH  11  12
HETATM   12  C   UNL     1      40.581 -11.753   6.210  1.00  0.00     0.223 C 
HETATM   13  N   UNL     1      39.793 -10.873   6.905  1.00  0.00    -0.359 N 
HETATM   14  H   UNL     1      38.785 -10.953   6.786  1.00  0.00     0.162 HD
HETATM   15  O   UNL     1      41.795 -11.597   6.097  1.00  0.00    -0.273 OA
BRANCH  13  16
HETATM   16  C   UNL     1      40.254  -9.566   7.390  1.00  0.00     0.150 C 
BRANCH  16  17
HETATM   17  C   UNL     1      39.863  -9.194   8.841  1.00  0.00     0.253 C 
BRANCH  17  18
HETATM   18  N   UNL     1      40.791  -9.801   9.876  1.00  0.00    -0.077 N 
HETATM   19  H   UNL     1      40.897  -9.094  10.632  1.00  0.00     0.279 HD
HETATM   20  C   UNL     1      40.243 -11.042  10.528  1.00  0.00     0.269 C 
HETATM   21  C   UNL     1      42.167 -10.054   9.323  1.00  0.00     0.269 C 
ENDBRANCH  17  18
ENDBRANCH  16  17
ENDBRANCH  13  16
ENDBRANCH  11  12
ENDBRANCH   3  11
BRANCH   1  22
HETATM   22  C   UNL     1      41.940 -15.061   4.507  1.00  0.00    -0.024 A 
HETATM   23  C   UNL     1      40.969 -15.994   4.960  1.00  0.00     0.017 A 
HETATM   24  C   UNL     1      41.155 -16.759   6.117  1.00  0.00    -0.061 A 
HETATM   25  C   UNL     1      40.100 -17.727   6.571  1.00  0.00     0.048 C 
HETATM   26  C   UNL     1      42.303 -16.549   6.876  1.00  0.00     0.007 A 
HETATM   27  C   UNL     1      43.259 -15.617   6.466  1.00  0.00     0.008 A 
HETATM   28  C   UNL     1      43.110 -14.881   5.275  1.00  0.00    -0.053 A 
HETATM   29  C   UNL     1      44.192 -13.887   4.949  1.00  0.00     0.049 C 
ENDBRANCH   1  22
BRANCH  10  30
HETATM   30  C   UNL     1      42.772 -16.246   1.906  1.00  0.00     0.294 C 
HETATM   31  O   UNL     1      43.954 -15.991   1.759  1.00  0.00    -0.259 OA
BRANCH  30  32
HETATM   32  O   UNL     1      42.211 -17.454   2.115  1.00  0.00    -0.313 OA
BRANCH  32  33
HETATM   33  C   UNL     1      42.970 -18.576   1.633  1.00  0.00     0.217 C 
BRANCH  33  34
HETATM   34  C   UNL     1      43.559 -19.290   2.826  1.00  0.00    -0.034 A 
HETATM   35  C   UNL     1      44.241 -20.506   2.662  1.00  0.00     0.009 A 
HETATM   36  C   UNL     1      44.791 -21.171   3.760  1.00  0.00     0.001 A 
HETATM   37  C   UNL     1      44.678 -20.622   5.034  1.00  0.00     0.000 A 
HETATM   38  C   UNL     1      44.017 -19.408   5.210  1.00  0.00     0.001 A 
HETATM   39  C   UNL     1      43.458 -18.746   4.114  1.00  0.00     0.009 A 
ENDBRANCH  33  34
ENDBRANCH  32  33
ENDBRANCH  30  32
ENDBRANCH  10  30
TORSDOF 10
ENDMDL
MODEL 10
REMARK VINA RESULT:      -7.3      3.011      6.062
REMARK  10 active torsions:
REMARK  status: ('A' for Active; 'I' for Inactive)
REMARK    1  A    between atoms: C_4  and  C_5 
REMARK    2  A    between atoms: C_7  and  C_8 
REMARK    3  A    between atoms: C_8  and  C_9 
REMARK       I    between atoms: C_9  and  N_10 
REMARK    4  A    between atoms: N_10  and  C_11 
REMARK    5  A    between atoms: C_11  and  C_12 
REMARK    6  A    between atoms: C_12  and  N_13 
REMARK    7  A    between atoms: C_24  and  C_25 
REMARK    8  A    between atoms: C_25  and  O_26 
REMARK    9  A    between atoms: O_26  and  C_27 
REMARK   10  A    between atoms: C_27  and  C_28 
ROOT
HETATM    1  C   UNL     1      39.805 -14.512   2.977  1.00  0.00     0.166 C 
HETATM    2  N   UNL     1      39.683 -13.369   3.949  1.00  0.00    -0.318 N 
HETATM    3  C   UNL     1      39.351 -12.109   3.933  1.00  0.00     0.011 C 
HETATM    4  C   UNL     1      39.871 -13.850   5.422  1.00  0.00     0.170 C 
HETATM    5  S   UNL     1      39.332 -12.695   6.588  1.00  0.00    -0.086 SA
HETATM    6  C   UNL     1      39.040 -11.492   5.292  1.00  0.00     0.135 C 
HETATM    7  N   UNL     1      40.400 -14.956   5.788  1.00  0.00    -0.229 NA
HETATM    8  C   UNL     1      40.860 -15.829   4.836  1.00  0.00     0.048 C 
HETATM    9  C   UNL     1      41.533 -17.042   5.440  1.00  0.00     0.071 C 
HETATM   10  C   UNL     1      40.635 -15.653   3.515  1.00  0.00     0.069 C 
ENDROOT
BRANCH   3  11
HETATM   11  C   UNL     1      39.161 -11.266   2.696  1.00  0.00     0.156 C 
BRANCH  11  12
HETATM   12  C   UNL     1      40.330 -10.320   2.448  1.00  0.00     0.223 C 
HETATM   13  N   UNL     1      40.427  -9.818   1.177  1.00  0.00    -0.359 N 
HETATM   14  H   UNL     1      39.877 -10.274   0.450  1.00  0.00     0.162 HD
HETATM   15  O   UNL     1      41.114 -10.004   3.340  1.00  0.00    -0.273 OA
BRANCH  13  16
HETATM   16  C   UNL     1      41.573  -9.045   0.686  1.00  0.00     0.150 C 
BRANCH  16  17
HETATM   17  C   UNL     1      41.584  -8.715  -0.827  1.00  0.00     0.253 C 
BRANCH  17  18
HETATM   18  N   UNL     1      42.251  -9.793  -1.661  1.00  0.00    -0.077 N 
HETATM   19  H   UNL     1      41.684 -10.656  -1.541  1.00  0.00     0.279 HD
HETATM   20  C   UNL     1      42.266  -9.494  -3.136  1.00  0.00     0.269 C 
HETATM   21  C   UNL     1      43.637 -10.112  -1.170  1.00  0.00     0.269 C 
ENDBRANCH  17  18
ENDBRANCH  16  17
ENDBRANCH  13  16
ENDBRANCH  11  12
ENDBRANCH   3  11
BRANCH   1  22
HETATM   22  C   UNL     1      40.091 -14.059   1.551  1.00  0.00    -0.024 A 
HETATM   23  C   UNL     1      39.037 -14.224   0.612  1.00  0.00     0.017 A 
HETATM   24  C   UNL     1      39.145 -13.784  -0.711  1.00  0.00    -0.061 A 
HETATM   25  C   UNL     1      38.012 -13.986  -1.678  1.00  0.00     0.048 C 
HETATM   26  C   UNL     1      40.348 -13.225  -1.132  1.00  0.00     0.007 A 
HETATM   27  C   UNL     1      41.409 -13.078  -0.235  1.00  0.00     0.008 A 
HETATM   28  C   UNL     1      41.295 -13.466   1.113  1.00  0.00    -0.053 A 
HETATM   29  C   UNL     1      42.512 -13.284   1.980  1.00  0.00     0.049 C 
ENDBRANCH   1  22
BRANCH  10  30
HETATM   30  C   UNL     1      41.038 -16.700   2.546  1.00  0.00     0.294 C 
HETATM   31  O   UNL     1      40.221 -17.370   1.940  1.00  0.00    -0.259 OA
BRANCH  30  32
HETATM   32  O   UNL     1      42.381 -16.735   2.428  1.00  0.00    -0.313 OA
BRANCH  32  33
HETATM   33  C   UNL     1      42.891 -17.705   1.498  1.00  0.00     0.217 C 
BRANCH  33  34
HETATM   34  C   UNL     1      43.505 -18.835   2.290  1.00  0.00    -0.034 A 
HETATM   35  C   UNL     1      43.595 -20.123   1.739  1.00  0.00     0.009 A 
HETATM   36  C   UNL     1      44.163 -21.173   2.464  1.00  0.00     0.001 A 
HETATM   37  C   UNL     1      44.662 -20.944   3.743  1.00  0.00     0.000 A 
HETATM   38  C   UNL     1      44.595 -19.668   4.297  1.00  0.00     0.001 A 
HETATM   39  C   UNL     1      44.017 -18.619   3.576  1.00  0.00     0.009 A 
ENDBRANCH  33  34
ENDBRANCH  32  33
ENDBRANCH  30  32
ENDBRANCH  10  30
TORSDOF 10
ENDMDL
