MODEL 1
REMARK VINA RESULT:      -7.2      0.000      0.000
REMARK  10 active torsions:
REMARK  status: ('A' for Active; 'I' for Inactive)
REMARK    1  A    between atoms: C_4  and  C_5 
REMARK    2  A    between atoms: C_7  and  C_8 
REMARK    3  A    between atoms: C_8  and  C_9 
REMARK       I    between atoms: C_9  and  N_10 
REMARK    4  A    between atoms: N_10  and  C_11 
REMARK    5  A    between atoms: C_11  and  C_12 
REMARK    6  A    between atoms: C_12  and  N_13 
REMARK    7  A    between atoms: C_24  and  C_25 
REMARK    8  A    between atoms: C_25  and  O_26 
REMARK    9  A    between atoms: O_26  and  C_27 
REMARK   10  A    between atoms: C_27  and  C_28 
ROOT
HETATM    1  C   UNL     1      40.704 -14.366   0.634  1.00  0.00     0.166 C 
HETATM    2  N   UNL     1      41.631 -14.752   1.716  1.00  0.00    -0.318 N 
HETATM    3  C   UNL     1      42.120 -15.849   2.193  1.00  0.00     0.011 C 
HETATM    4  C   UNL     1      42.074 -13.531   2.562  1.00  0.00     0.170 C 
HETATM    5  S   UNL     1      43.486 -13.900   3.492  1.00  0.00    -0.086 SA
HETATM    6  C   UNL     1      43.119 -15.678   3.321  1.00  0.00     0.135 C 
HETATM    7  N   UNL     1      41.374 -12.459   2.703  1.00  0.00    -0.229 NA
HETATM    8  C   UNL     1      40.088 -12.493   2.187  1.00  0.00     0.048 C 
HETATM    9  C   UNL     1      39.148 -11.517   2.855  1.00  0.00     0.071 C 
HETATM   10  C   UNL     1      39.712 -13.414   1.272  1.00  0.00     0.069 C 
ENDROOT
BRANCH   3  11
HETATM   11  C   UNL     1      41.691 -17.205   1.713  1.00  0.00     0.156 C 
BRANCH  11  12
HETATM   12  C   UNL     1      42.852 -18.140   1.437  1.00  0.00     0.223 C 
HETATM   13  N   UNL     1      42.749 -19.372   2.030  1.00  0.00    -0.359 N 
HETATM   14  H   UNL     1      41.984 -19.514   2.686  1.00  0.00     0.162 HD
HETATM   15  O   UNL     1      43.803 -17.798   0.740  1.00  0.00    -0.273 OA
BRANCH  13  16
HETATM   16  C   UNL     1      43.804 -20.387   2.128  1.00  0.00     0.150 C 
BRANCH  16  17
HETATM   17  C   UNL     1      44.868 -20.238   3.237  1.00  0.00     0.253 C 
BRANCH  17  18
HETATM   18  N   UNL     1      44.385 -20.691   4.601  1.00  0.00    -0.077 N 
HETATM   19  H   UNL     1      43.366 -20.867   4.501  1.00  0.00     0.279 HD
HETATM   20  C   UNL     1      45.017 -21.963   5.094  1.00  0.00     0.269 C 
HETATM   21  C   UNL     1      44.528 -19.596   5.624  1.00  0.00     0.269 C 
ENDBRANCH  17  18
ENDBRANCH  16  17
ENDBRANCH  13  16
ENDBRANCH  11  12
ENDBRANCH   3  11
BRANCH   1  22
HETATM   22  C   UNL     1      41.423 -13.760  -0.607  1.00  0.00    -0.024 A 
HETATM   23  C   UNL     1      42.043 -12.487  -0.463  1.00  0.00     0.017 A 
HETATM   24  C   UNL     1      42.727 -11.840  -1.503  1.00  0.00    -0.061 A 
HETATM   25  C   UNL     1      43.390 -10.510  -1.273  1.00  0.00     0.048 C 
HETATM   26  C   UNL     1      42.829 -12.471  -2.732  1.00  0.00     0.007 A 
HETATM   27  C   UNL     1      42.197 -13.692  -2.931  1.00  0.00     0.008 A 
HETATM   28  C   UNL     1      41.462 -14.332  -1.908  1.00  0.00    -0.053 A 
HETATM   29  C   UNL     1      40.773 -15.597  -2.336  1.00  0.00     0.049 C 
ENDBRANCH   1  22
BRANCH  10  30
HETATM   30  C   UNL     1      38.306 -13.693   0.932  1.00  0.00     0.294 C 
HETATM   31  O   UNL     1      37.767 -14.709   1.343  1.00  0.00    -0.259 OA
BRANCH  30  32
HETATM   32  O   UNL     1      37.807 -12.756   0.109  1.00  0.00    -0.313 OA
BRANCH  32  33
HETATM   33  C   UNL     1      37.848 -13.053  -1.298  1.00  0.00     0.217 C 
BRANCH  33  34
HETATM   34  C   UNL     1      38.593 -11.975  -2.041  1.00  0.00    -0.034 A 
HETATM   35  C   UNL     1      39.036 -10.818  -1.383  1.00  0.00     0.009 A 
HETATM   36  C   UNL     1      39.752  -9.837  -2.071  1.00  0.00     0.001 A 
HETATM   37  C   UNL     1      40.045 -10.007  -3.422  1.00  0.00     0.000 A 
HETATM   38  C   UNL     1      39.618 -11.154  -4.087  1.00  0.00     0.001 A 
HETATM   39  C   UNL     1      38.894 -12.132  -3.403  1.00  0.00     0.009 A 
ENDBRANCH  33  34
ENDBRANCH  32  33
ENDBRANCH  30  32
ENDBRANCH  10  30
TORSDOF 10
ENDMDL
MODEL 2
REMARK VINA RESULT:      -6.7      2.957      7.089
REMARK  10 active torsions:
REMARK  status: ('A' for Active; 'I' for Inactive)
REMARK    1  A    between atoms: C_4  and  C_5 
REMARK    2  A    between atoms: C_7  and  C_8 
REMARK    3  A    between atoms: C_8  and  C_9 
REMARK       I    between atoms: C_9  and  N_10 
REMARK    4  A    between atoms: N_10  and  C_11 
REMARK    5  A    between atoms: C_11  and  C_12 
REMARK    6  A    between atoms: C_12  and  N_13 
REMARK    7  A    between atoms: C_24  and  C_25 
REMARK    8  A    between atoms: C_25  and  O_26 
REMARK    9  A    between atoms: O_26  and  C_27 
REMARK   10  A    between atoms: C_27  and  C_28 
ROOT
HETATM    1  C   UNL     1      41.260 -12.957   0.732  1.00  0.00     0.166 C 
HETATM    2  N   UNL     1      39.978 -12.290   1.037  1.00  0.00    -0.318 N 
HETATM    3  C   UNL     1      39.590 -11.115   1.407  1.00  0.00     0.011 C 
HETATM    4  C   UNL     1      38.784 -13.277   0.979  1.00  0.00     0.170 C 
HETATM    5  S   UNL     1      37.281 -12.429   0.865  1.00  0.00    -0.086 SA
HETATM    6  C   UNL     1      38.090 -10.933   1.526  1.00  0.00     0.135 C 
HETATM    7  N   UNL     1      38.886 -14.544   1.189  1.00  0.00    -0.229 NA
HETATM    8  C   UNL     1      40.114 -14.995   1.645  1.00  0.00     0.048 C 
HETATM    9  C   UNL     1      40.031 -16.295   2.410  1.00  0.00     0.071 C 
HETATM   10  C   UNL     1      41.238 -14.254   1.517  1.00  0.00     0.069 C 
ENDROOT
BRANCH   3  11
HETATM   11  C   UNL     1      40.552 -10.016   1.758  1.00  0.00     0.156 C 
BRANCH  11  12
HETATM   12  C   UNL     1      40.840  -9.921   3.243  1.00  0.00     0.223 C 
HETATM   13  N   UNL     1      41.413 -11.041   3.788  1.00  0.00    -0.359 N 
HETATM   14  H   UNL     1      41.488 -11.865   3.195  1.00  0.00     0.162 HD
HETATM   15  O   UNL     1      40.566  -8.914   3.890  1.00  0.00    -0.273 OA
BRANCH  13  16
HETATM   16  C   UNL     1      41.596 -11.325   5.216  1.00  0.00     0.150 C 
BRANCH  16  17
HETATM   17  C   UNL     1      40.980 -12.618   5.794  1.00  0.00     0.253 C 
BRANCH  17  18
HETATM   18  N   UNL     1      41.810 -13.856   5.519  1.00  0.00    -0.077 N 
HETATM   19  H   UNL     1      41.941 -13.892   4.490  1.00  0.00     0.279 HD
HETATM   20  C   UNL     1      43.176 -13.840   6.148  1.00  0.00     0.269 C 
HETATM   21  C   UNL     1      41.067 -15.110   5.897  1.00  0.00     0.269 C 
ENDBRANCH  17  18
ENDBRANCH  16  17
ENDBRANCH  13  16
ENDBRANCH  11  12
ENDBRANCH   3  11
BRANCH   1  22
HETATM   22  C   UNL     1      41.499 -13.167  -0.792  1.00  0.00    -0.024 A 
HETATM   23  C   UNL     1      40.974 -14.346  -1.393  1.00  0.00     0.017 A 
HETATM   24  C   UNL     1      41.116 -14.645  -2.756  1.00  0.00    -0.061 A 
HETATM   25  C   UNL     1      40.506 -15.892  -3.334  1.00  0.00     0.048 C 
HETATM   26  C   UNL     1      41.781 -13.746  -3.573  1.00  0.00     0.007 A 
HETATM   27  C   UNL     1      42.352 -12.608  -3.020  1.00  0.00     0.008 A 
HETATM   28  C   UNL     1      42.260 -12.317  -1.640  1.00  0.00    -0.053 A 
HETATM   29  C   UNL     1      43.017 -11.092  -1.210  1.00  0.00     0.049 C 
ENDBRANCH   1  22
BRANCH  10  30
HETATM   30  C   UNL     1      42.484 -14.535   2.249  1.00  0.00     0.294 C 
HETATM   31  O   UNL     1      43.123 -13.620   2.745  1.00  0.00    -0.259 OA
BRANCH  30  32
HETATM   32  O   UNL     1      42.791 -15.842   2.206  1.00  0.00    -0.313 OA
BRANCH  32  33
HETATM   33  C   UNL     1      43.493 -16.371   3.345  1.00  0.00     0.217 C 
BRANCH  33  34
HETATM   34  C   UNL     1      43.706 -17.854   3.190  1.00  0.00    -0.034 A 
HETATM   35  C   UNL     1      43.427 -18.500   1.976  1.00  0.00     0.009 A 
HETATM   36  C   UNL     1      43.656 -19.869   1.829  1.00  0.00     0.001 A 
HETATM   37  C   UNL     1      44.178 -20.607   2.889  1.00  0.00     0.000 A 
HETATM   38  C   UNL     1      44.467 -19.977   4.098  1.00  0.00     0.001 A 
HETATM   39  C   UNL     1      44.230 -18.610   4.250  1.00  0.00     0.009 A 
ENDBRANCH  33  34
ENDBRANCH  32  33
ENDBRANCH  30  32
ENDBRANCH  10  30
TORSDOF 10
ENDMDL
MODEL 3
REMARK VINA RESULT:      -6.6      1.320      1.624
REMARK  10 active torsions:
REMARK  status: ('A' for Active; 'I' for Inactive)
REMARK    1  A    between atoms: C_4  and  C_5 
REMARK    2  A    between atoms: C_7  and  C_8 
REMARK    3  A    between atoms: C_8  and  C_9 
REMARK       I    between atoms: C_9  and  N_10 
REMARK    4  A    between atoms: N_10  and  C_11 
REMARK    5  A    between atoms: C_11  and  C_12 
REMARK    6  A    between atoms: C_12  and  N_13 
REMARK    7  A    between atoms: C_24  and  C_25 
REMARK    8  A    between atoms: C_25  and  O_26 
REMARK    9  A    between atoms: O_26  and  C_27 
REMARK   10  A    between atoms: C_27  and  C_28 
ROOT
HETATM    1  C   UNL     1      40.018 -13.547   1.108  1.00  0.00     0.166 C 
HETATM    2  N   UNL     1      40.563 -13.607   2.479  1.00  0.00    -0.318 N 
HETATM    3  C   UNL     1      40.967 -14.525   3.295  1.00  0.00     0.011 C 
HETATM    4  C   UNL     1      40.581 -12.213   3.156  1.00  0.00     0.170 C 
HETATM    5  S   UNL     1      41.629 -12.204   4.533  1.00  0.00    -0.086 SA
HETATM    6  C   UNL     1      41.511 -14.023   4.618  1.00  0.00     0.135 C 
HETATM    7  N   UNL     1      39.776 -11.254   2.854  1.00  0.00    -0.229 NA
HETATM    8  C   UNL     1      38.744 -11.570   1.983  1.00  0.00     0.048 C 
HETATM    9  C   UNL     1      37.547 -10.658   2.116  1.00  0.00     0.071 C 
HETATM   10  C   UNL     1      38.785 -12.672   1.201  1.00  0.00     0.069 C 
ENDROOT
BRANCH   3  11
HETATM   11  C   UNL     1      40.853 -15.990   2.990  1.00  0.00     0.156 C 
BRANCH  11  12
HETATM   12  C   UNL     1      42.153 -16.607   2.513  1.00  0.00     0.223 C 
HETATM   13  N   UNL     1      42.538 -17.731   3.197  1.00  0.00    -0.359 N 
HETATM   14  H   UNL     1      41.999 -17.985   4.022  1.00  0.00     0.162 HD
HETATM   15  O   UNL     1      42.799 -16.118   1.590  1.00  0.00    -0.273 OA
BRANCH  13  16
HETATM   16  C   UNL     1      43.839 -18.404   3.114  1.00  0.00     0.150 C 
BRANCH  16  17
HETATM   17  C   UNL     1      43.942 -19.710   2.297  1.00  0.00     0.253 C 
BRANCH  17  18
HETATM   18  N   UNL     1      44.849 -20.747   2.929  1.00  0.00    -0.077 N 
HETATM   19  H   UNL     1      45.775 -20.638   2.470  1.00  0.00     0.279 HD
HETATM   20  C   UNL     1      45.055 -20.573   4.409  1.00  0.00     0.269 C 
HETATM   21  C   UNL     1      44.384 -22.145   2.619  1.00  0.00     0.269 C 
ENDBRANCH  17  18
ENDBRANCH  16  17
ENDBRANCH  13  16
ENDBRANCH  11  12
ENDBRANCH   3  11
BRANCH   1  22
HETATM   22  C   UNL     1      41.049 -13.043   0.056  1.00  0.00    -0.024 A 
HETATM   23  C   UNL     1      41.579 -11.732   0.217  1.00  0.00     0.017 A 
HETATM   24  C   UNL     1      42.519 -11.167  -0.657  1.00  0.00    -0.061 A 
HETATM   25  C   UNL     1      43.065  -9.788  -0.409  1.00  0.00     0.048 C 
HETATM   26  C   UNL     1      42.978 -11.921  -1.725  1.00  0.00     0.007 A 
HETATM   27  C   UNL     1      42.451 -13.186  -1.949  1.00  0.00     0.008 A 
HETATM   28  C   UNL     1      41.467 -13.749  -1.104  1.00  0.00    -0.053 A 
HETATM   29  C   UNL     1      40.951 -15.087  -1.557  1.00  0.00     0.049 C 
ENDBRANCH   1  22
BRANCH  10  30
HETATM   30  C   UNL     1      37.606 -13.217   0.506  1.00  0.00     0.294 C 
HETATM   31  O   UNL     1      37.105 -14.266   0.881  1.00  0.00    -0.259 OA
BRANCH  30  32
HETATM   32  O   UNL     1      37.271 -12.461  -0.553  1.00  0.00    -0.313 OA
BRANCH  32  33
HETATM   33  C   UNL     1      37.749 -12.908  -1.834  1.00  0.00     0.217 C 
BRANCH  33  34
HETATM   34  C   UNL     1      38.643 -11.865  -2.454  1.00  0.00    -0.034 A 
HETATM   35  C   UNL     1      38.804 -10.606  -1.857  1.00  0.00     0.009 A 
HETATM   36  C   UNL     1      39.658  -9.655  -2.421  1.00  0.00     0.001 A 
HETATM   37  C   UNL     1      40.370  -9.957  -3.579  1.00  0.00     0.000 A 
HETATM   38  C   UNL     1      40.225 -11.206  -4.178  1.00  0.00     0.001 A 
HETATM   39  C   UNL     1      39.365 -12.155  -3.621  1.00  0.00     0.009 A 
ENDBRANCH  33  34
ENDBRANCH  32  33
ENDBRANCH  30  32
ENDBRANCH  10  30
TORSDOF 10
ENDMDL
MODEL 4
REMARK VINA RESULT:      -6.5      3.838      7.793
REMARK  10 active torsions:
REMARK  status: ('A' for Active; 'I' for Inactive)
REMARK    1  A    between atoms: C_4  and  C_5 
REMARK    2  A    between atoms: C_7  and  C_8 
REMARK    3  A    between atoms: C_8  and  C_9 
REMARK       I    between atoms: C_9  and  N_10 
REMARK    4  A    between atoms: N_10  and  C_11 
REMARK    5  A    between atoms: C_11  and  C_12 
REMARK    6  A    between atoms: C_12  and  N_13 
REMARK    7  A    between atoms: C_24  and  C_25 
REMARK    8  A    between atoms: C_25  and  O_26 
REMARK    9  A    between atoms: O_26  and  C_27 
REMARK   10  A    between atoms: C_27  and  C_28 
ROOT
HETATM    1  C   UNL     1      41.690 -14.594   3.096  1.00  0.00     0.166 C 
HETATM    2  N   UNL     1      41.757 -15.190   4.446  1.00  0.00    -0.318 N 
HETATM    3  C   UNL     1      42.523 -15.094   5.482  1.00  0.00     0.011 C 
HETATM    4  C   UNL     1      40.676 -16.280   4.652  1.00  0.00     0.170 C 
HETATM    5  S   UNL     1      40.452 -16.624   6.333  1.00  0.00    -0.086 SA
HETATM    6  C   UNL     1      42.096 -15.915   6.683  1.00  0.00     0.135 C 
HETATM    7  N   UNL     1      40.160 -16.974   3.697  1.00  0.00    -0.229 NA
HETATM    8  C   UNL     1      40.739 -16.825   2.447  1.00  0.00     0.048 C 
HETATM    9  C   UNL     1      40.530 -18.017   1.542  1.00  0.00     0.071 C 
HETATM   10  C   UNL     1      41.521 -15.764   2.147  1.00  0.00     0.069 C 
ENDROOT
BRANCH   3  11
HETATM   11  C   UNL     1      43.784 -14.279   5.488  1.00  0.00     0.156 C 
BRANCH  11  12
HETATM   12  C   UNL     1      44.320 -14.011   6.880  1.00  0.00     0.223 C 
HETATM   13  N   UNL     1      43.808 -12.892   7.486  1.00  0.00    -0.359 N 
HETATM   14  H   UNL     1      43.216 -12.284   6.924  1.00  0.00     0.162 HD
HETATM   15  O   UNL     1      45.153 -14.746   7.403  1.00  0.00    -0.273 OA
BRANCH  13  16
HETATM   16  C   UNL     1      44.295 -12.264   8.719  1.00  0.00     0.150 C 
BRANCH  16  17
HETATM   17  C   UNL     1      43.439 -11.153   9.366  1.00  0.00     0.253 C 
BRANCH  17  18
HETATM   18  N   UNL     1      42.666 -11.621  10.584  1.00  0.00    -0.077 N 
HETATM   19  H   UNL     1      42.400 -12.607  10.394  1.00  0.00     0.279 HD
HETATM   20  C   UNL     1      43.455 -11.604  11.865  1.00  0.00     0.269 C 
HETATM   21  C   UNL     1      41.379 -10.858  10.743  1.00  0.00     0.269 C 
ENDBRANCH  17  18
ENDBRANCH  16  17
ENDBRANCH  13  16
ENDBRANCH  11  12
ENDBRANCH   3  11
BRANCH   1  22
HETATM   22  C   UNL     1      40.572 -13.521   2.950  1.00  0.00    -0.024 A 
HETATM   23  C   UNL     1      39.531 -13.765   2.011  1.00  0.00     0.017 A 
HETATM   24  C   UNL     1      38.464 -12.881   1.793  1.00  0.00    -0.061 A 
HETATM   25  C   UNL     1      37.379 -13.217   0.809  1.00  0.00     0.048 C 
HETATM   26  C   UNL     1      38.398 -11.716   2.539  1.00  0.00     0.007 A 
HETATM   27  C   UNL     1      39.419 -11.413   3.432  1.00  0.00     0.008 A 
HETATM   28  C   UNL     1      40.525 -12.271   3.626  1.00  0.00    -0.053 A 
HETATM   29  C   UNL     1      41.572 -11.735   4.561  1.00  0.00     0.049 C 
ENDBRANCH   1  22
BRANCH  10  30
HETATM   30  C   UNL     1      42.402 -15.712   0.967  1.00  0.00     0.294 C 
HETATM   31  O   UNL     1      41.981 -15.279  -0.094  1.00  0.00    -0.259 OA
BRANCH  30  32
HETATM   32  O   UNL     1      43.606 -16.247   1.233  1.00  0.00    -0.313 OA
BRANCH  32  33
HETATM   33  C   UNL     1      43.767 -17.643   0.926  1.00  0.00     0.217 C 
BRANCH  33  34
HETATM   34  C   UNL     1      44.037 -18.430   2.181  1.00  0.00    -0.034 A 
HETATM   35  C   UNL     1      44.005 -17.813   3.441  1.00  0.00     0.009 A 
HETATM   36  C   UNL     1      44.226 -18.554   4.603  1.00  0.00     0.001 A 
HETATM   37  C   UNL     1      44.469 -19.923   4.521  1.00  0.00     0.000 A 
HETATM   38  C   UNL     1      44.496 -20.551   3.278  1.00  0.00     0.001 A 
HETATM   39  C   UNL     1      44.285 -19.809   2.113  1.00  0.00     0.009 A 
ENDBRANCH  33  34
ENDBRANCH  32  33
ENDBRANCH  30  32
ENDBRANCH  10  30
TORSDOF 10
ENDMDL
MODEL 5
REMARK VINA RESULT:      -6.4      3.477      8.581
REMARK  10 active torsions:
REMARK  status: ('A' for Active; 'I' for Inactive)
REMARK    1  A    between atoms: C_4  and  C_5 
REMARK    2  A    between atoms: C_7  and  C_8 
REMARK    3  A    between atoms: C_8  and  C_9 
REMARK       I    between atoms: C_9  and  N_10 
REMARK    4  A    between atoms: N_10  and  C_11 
REMARK    5  A    between atoms: C_11  and  C_12 
REMARK    6  A    between atoms: C_12  and  N_13 
REMARK    7  A    between atoms: C_24  and  C_25 
REMARK    8  A    between atoms: C_25  and  O_26 
REMARK    9  A    between atoms: O_26  and  C_27 
REMARK   10  A    between atoms: C_27  and  C_28 
ROOT
HETATM    1  C   UNL     1      39.959 -12.427   2.069  1.00  0.00     0.166 C 
HETATM    2  N   UNL     1      39.855 -10.967   1.873  1.00  0.00    -0.318 N 
HETATM    3  C   UNL     1      38.970 -10.048   2.079  1.00  0.00     0.011 C 
HETATM    4  C   UNL     1      41.101 -10.389   1.154  1.00  0.00     0.170 C 
HETATM    5  S   UNL     1      41.191  -8.673   1.352  1.00  0.00    -0.086 SA
HETATM    6  C   UNL     1      39.410  -8.637   1.743  1.00  0.00     0.135 C 
HETATM    7  N   UNL     1      41.852 -11.066   0.356  1.00  0.00    -0.229 NA
HETATM    8  C   UNL     1      41.404 -12.333   0.018  1.00  0.00     0.048 C 
HETATM    9  C   UNL     1      41.949 -12.831  -1.300  1.00  0.00     0.071 C 
HETATM   10  C   UNL     1      40.466 -12.976   0.750  1.00  0.00     0.069 C 
ENDROOT
BRANCH   3  11
HETATM   11  C   UNL     1      37.581 -10.352   2.559  1.00  0.00     0.156 C 
BRANCH  11  12
HETATM   12  C   UNL     1      36.620 -10.701   1.439  1.00  0.00     0.223 C 
HETATM   13  N   UNL     1      35.325 -10.307   1.652  1.00  0.00    -0.359 N 
HETATM   14  H   UNL     1      35.094  -9.929   2.568  1.00  0.00     0.162 HD
HETATM   15  O   UNL     1      36.993 -11.298   0.433  1.00  0.00    -0.273 OA
BRANCH  13  16
HETATM   16  C   UNL     1      34.150 -10.697   0.864  1.00  0.00     0.150 C 
BRANCH  16  17
HETATM   17  C   UNL     1      32.748 -10.471   1.472  1.00  0.00     0.253 C 
BRANCH  17  18
HETATM   18  N   UNL     1      32.658 -10.852   2.937  1.00  0.00    -0.077 N 
HETATM   19  H   UNL     1      33.549 -11.336   3.163  1.00  0.00     0.279 HD
HETATM   20  C   UNL     1      32.527  -9.684   3.875  1.00  0.00     0.269 C 
HETATM   21  C   UNL     1      31.559 -11.852   3.177  1.00  0.00     0.269 C 
ENDBRANCH  17  18
ENDBRANCH  16  17
ENDBRANCH  13  16
ENDBRANCH  11  12
ENDBRANCH   3  11
BRANCH   1  22
HETATM   22  C   UNL     1      40.851 -12.825   3.281  1.00  0.00    -0.024 A 
HETATM   23  C   UNL     1      42.131 -13.387   3.012  1.00  0.00     0.017 A 
HETATM   24  C   UNL     1      43.028 -13.777   4.017  1.00  0.00    -0.061 A 
HETATM   25  C   UNL     1      44.380 -14.332   3.663  1.00  0.00     0.048 C 
HETATM   26  C   UNL     1      42.670 -13.594   5.342  1.00  0.00     0.007 A 
HETATM   27  C   UNL     1      41.411 -13.095   5.651  1.00  0.00     0.008 A 
HETATM   28  C   UNL     1      40.477 -12.744   4.650  1.00  0.00    -0.053 A 
HETATM   29  C   UNL     1      39.137 -12.311   5.175  1.00  0.00     0.049 C 
ENDBRANCH   1  22
BRANCH  10  30
HETATM   30  C   UNL     1      39.736 -14.163   0.272  1.00  0.00     0.294 C 
HETATM   31  O   UNL     1      38.866 -14.046  -0.576  1.00  0.00    -0.259 OA
BRANCH  30  32
HETATM   32  O   UNL     1      40.117 -15.269   0.932  1.00  0.00    -0.313 OA
BRANCH  32  33
HETATM   33  C   UNL     1      41.193 -16.024   0.347  1.00  0.00     0.217 C 
BRANCH  33  34
HETATM   34  C   UNL     1      41.994 -16.716   1.418  1.00  0.00    -0.034 A 
HETATM   35  C   UNL     1      41.449 -16.950   2.689  1.00  0.00     0.009 A 
HETATM   36  C   UNL     1      42.186 -17.619   3.668  1.00  0.00     0.001 A 
HETATM   37  C   UNL     1      43.472 -18.072   3.384  1.00  0.00     0.000 A 
HETATM   38  C   UNL     1      44.024 -17.853   2.124  1.00  0.00     0.001 A 
HETATM   39  C   UNL     1      43.291 -17.176   1.147  1.00  0.00     0.009 A 
ENDBRANCH  33  34
ENDBRANCH  32  33
ENDBRANCH  30  32
ENDBRANCH  10  30
TORSDOF 10
ENDMDL
MODEL 6
REMARK VINA RESULT:      -6.4      2.909      8.406
REMARK  10 active torsions:
REMARK  status: ('A' for Active; 'I' for Inactive)
REMARK    1  A    between atoms: C_4  and  C_5 
REMARK    2  A    between atoms: C_7  and  C_8 
REMARK    3  A    between atoms: C_8  and  C_9 
REMARK       I    between atoms: C_9  and  N_10 
REMARK    4  A    between atoms: N_10  and  C_11 
REMARK    5  A    between atoms: C_11  and  C_12 
REMARK    6  A    between atoms: C_12  and  N_13 
REMARK    7  A    between atoms: C_24  and  C_25 
REMARK    8  A    between atoms: C_25  and  O_26 
REMARK    9  A    between atoms: O_26  and  C_27 
REMARK   10  A    between atoms: C_27  and  C_28 
ROOT
HETATM    1  C   UNL     1      39.851 -13.233   2.521  1.00  0.00     0.166 C 
HETATM    2  N   UNL     1      40.338 -13.098   1.133  1.00  0.00    -0.318 N 
HETATM    3  C   UNL     1      39.889 -13.349  -0.053  1.00  0.00     0.011 C 
HETATM    4  C   UNL     1      41.806 -12.604   1.079  1.00  0.00     0.170 C 
HETATM    5  S   UNL     1      42.203 -12.006  -0.495  1.00  0.00    -0.086 SA
HETATM    6  C   UNL     1      40.806 -12.951  -1.192  1.00  0.00     0.135 C 
HETATM    7  N   UNL     1      42.666 -12.797   2.019  1.00  0.00    -0.229 NA
HETATM    8  C   UNL     1      42.272 -13.633   3.051  1.00  0.00     0.048 C 
HETATM    9  C   UNL     1      43.429 -14.283   3.772  1.00  0.00     0.071 C 
HETATM   10  C   UNL     1      40.970 -13.921   3.276  1.00  0.00     0.069 C 
ENDROOT
BRANCH   3  11
HETATM   11  C   UNL     1      38.579 -14.042  -0.295  1.00  0.00     0.156 C 
BRANCH  11  12
HETATM   12  C   UNL     1      37.937 -13.667  -1.616  1.00  0.00     0.223 C 
HETATM   13  N   UNL     1      37.962 -14.656  -2.566  1.00  0.00    -0.359 N 
HETATM   14  H   UNL     1      38.500 -15.494  -2.356  1.00  0.00     0.162 HD
HETATM   15  O   UNL     1      37.445 -12.558  -1.802  1.00  0.00    -0.273 OA
BRANCH  13  16
HETATM   16  C   UNL     1      37.627 -14.513  -3.987  1.00  0.00     0.150 C 
BRANCH  16  17
HETATM   17  C   UNL     1      36.140 -14.373  -4.382  1.00  0.00     0.253 C 
BRANCH  17  18
HETATM   18  N   UNL     1      35.633 -12.945  -4.324  1.00  0.00    -0.077 N 
HETATM   19  H   UNL     1      35.642 -12.677  -3.321  1.00  0.00     0.279 HD
HETATM   20  C   UNL     1      36.487 -11.952  -5.064  1.00  0.00     0.269 C 
HETATM   21  C   UNL     1      34.200 -12.853  -4.775  1.00  0.00     0.269 C 
ENDBRANCH  17  18
ENDBRANCH  16  17
ENDBRANCH  13  16
ENDBRANCH  11  12
ENDBRANCH   3  11
BRANCH   1  22
HETATM   22  C   UNL     1      39.425 -11.878   3.159  1.00  0.00    -0.024 A 
HETATM   23  C   UNL     1      40.133 -11.430   4.310  1.00  0.00     0.017 A 
HETATM   24  C   UNL     1      39.850 -10.225   4.970  1.00  0.00    -0.061 A 
HETATM   25  C   UNL     1      40.660  -9.795   6.160  1.00  0.00     0.048 C 
HETATM   26  C   UNL     1      38.845  -9.411   4.474  1.00  0.00     0.007 A 
HETATM   27  C   UNL     1      38.095  -9.832   3.383  1.00  0.00     0.008 A 
HETATM   28  C   UNL     1      38.337 -11.066   2.738  1.00  0.00    -0.053 A 
HETATM   29  C   UNL     1      37.367 -11.392   1.637  1.00  0.00     0.049 C 
ENDBRANCH   1  22
BRANCH  10  30
HETATM   30  C   UNL     1      40.522 -15.028   4.138  1.00  0.00     0.294 C 
HETATM   31  O   UNL     1      40.016 -14.793   5.224  1.00  0.00    -0.259 OA
BRANCH  30  32
HETATM   32  O   UNL     1      40.814 -16.221   3.593  1.00  0.00    -0.313 OA
BRANCH  32  33
HETATM   33  C   UNL     1      41.311 -17.229   4.491  1.00  0.00     0.217 C 
BRANCH  33  34
HETATM   34  C   UNL     1      42.351 -18.077   3.806  1.00  0.00    -0.034 A 
HETATM   35  C   UNL     1      42.432 -18.129   2.406  1.00  0.00     0.009 A 
HETATM   36  C   UNL     1      43.417 -18.893   1.778  1.00  0.00     0.001 A 
HETATM   37  C   UNL     1      44.341 -19.604   2.541  1.00  0.00     0.000 A 
HETATM   38  C   UNL     1      44.277 -19.555   3.932  1.00  0.00     0.001 A 
HETATM   39  C   UNL     1      43.286 -18.799   4.562  1.00  0.00     0.009 A 
ENDBRANCH  33  34
ENDBRANCH  32  33
ENDBRANCH  30  32
ENDBRANCH  10  30
TORSDOF 10
ENDMDL
MODEL 7
REMARK VINA RESULT:      -6.1      3.378      7.978
REMARK  10 active torsions:
REMARK  status: ('A' for Active; 'I' for Inactive)
REMARK    1  A    between atoms: C_4  and  C_5 
REMARK    2  A    between atoms: C_7  and  C_8 
REMARK    3  A    between atoms: C_8  and  C_9 
REMARK       I    between atoms: C_9  and  N_10 
REMARK    4  A    between atoms: N_10  and  C_11 
REMARK    5  A    between atoms: C_11  and  C_12 
REMARK    6  A    between atoms: C_12  and  N_13 
REMARK    7  A    between atoms: C_24  and  C_25 
REMARK    8  A    between atoms: C_25  and  O_26 
REMARK    9  A    between atoms: O_26  and  C_27 
REMARK   10  A    between atoms: C_27  and  C_28 
ROOT
HETATM    1  C   UNL     1      40.233 -12.306   1.095  1.00  0.00     0.166 C 
HETATM    2  N   UNL     1      39.815 -10.898   0.935  1.00  0.00    -0.318 N 
HETATM    3  C   UNL     1      38.703 -10.240   0.917  1.00  0.00     0.011 C 
HETATM    4  C   UNL     1      41.017  -9.970   0.625  1.00  0.00     0.170 C 
HETATM    5  S   UNL     1      40.610  -8.312   0.906  1.00  0.00    -0.086 SA
HETATM    6  C   UNL     1      38.841  -8.737   0.775  1.00  0.00     0.135 C 
HETATM    7  N   UNL     1      42.100 -10.361   0.048  1.00  0.00    -0.229 NA
HETATM    8  C   UNL     1      42.097 -11.653  -0.454  1.00  0.00     0.048 C 
HETATM    9  C   UNL     1      43.082 -11.862  -1.580  1.00  0.00     0.071 C 
HETATM   10  C   UNL     1      41.195 -12.574  -0.045  1.00  0.00     0.069 C 
ENDROOT
BRANCH   3  11
HETATM   11  C   UNL     1      37.361 -10.912   0.969  1.00  0.00     0.156 C 
BRANCH  11  12
HETATM   12  C   UNL     1      36.743 -11.126  -0.398  1.00  0.00     0.223 C 
HETATM   13  N   UNL     1      37.403 -12.029  -1.190  1.00  0.00    -0.359 N 
HETATM   14  H   UNL     1      38.296 -12.384  -0.853  1.00  0.00     0.162 HD
HETATM   15  O   UNL     1      35.734 -10.522  -0.751  1.00  0.00    -0.273 OA
BRANCH  13  16
HETATM   16  C   UNL     1      37.177 -12.271  -2.620  1.00  0.00     0.150 C 
BRANCH  16  17
HETATM   17  C   UNL     1      38.041 -11.502  -3.642  1.00  0.00     0.253 C 
BRANCH  17  18
HETATM   18  N   UNL     1      39.454 -11.240  -3.160  1.00  0.00    -0.077 N 
HETATM   19  H   UNL     1      39.569 -11.795  -2.290  1.00  0.00     0.279 HD
HETATM   20  C   UNL     1      40.528 -11.675  -4.119  1.00  0.00     0.269 C 
HETATM   21  C   UNL     1      39.643  -9.798  -2.771  1.00  0.00     0.269 C 
ENDBRANCH  17  18
ENDBRANCH  16  17
ENDBRANCH  13  16
ENDBRANCH  11  12
ENDBRANCH   3  11
BRANCH   1  22
HETATM   22  C   UNL     1      40.841 -12.613   2.495  1.00  0.00    -0.024 A 
HETATM   23  C   UNL     1      42.141 -13.191   2.546  1.00  0.00     0.017 A 
HETATM   24  C   UNL     1      42.799 -13.506   3.744  1.00  0.00    -0.061 A 
HETATM   25  C   UNL     1      44.187 -14.082   3.726  1.00  0.00     0.048 C 
HETATM   26  C   UNL     1      42.170 -13.229   4.946  1.00  0.00     0.007 A 
HETATM   27  C   UNL     1      40.881 -12.711   4.943  1.00  0.00     0.008 A 
HETATM   28  C   UNL     1      40.186 -12.434   3.744  1.00  0.00    -0.053 A 
HETATM   29  C   UNL     1      38.771 -11.967   3.939  1.00  0.00     0.049 C 
ENDBRANCH   1  22
BRANCH  10  30
HETATM   30  C   UNL     1      40.947 -13.839  -0.756  1.00  0.00     0.294 C 
HETATM   31  O   UNL     1      40.030 -13.920  -1.559  1.00  0.00    -0.259 OA
BRANCH  30  32
HETATM   32  O   UNL     1      41.783 -14.805  -0.343  1.00  0.00    -0.313 OA
BRANCH  32  33
HETATM   33  C   UNL     1      41.174 -16.028   0.106  1.00  0.00     0.217 C 
BRANCH  33  34
HETATM   34  C   UNL     1      41.928 -16.591   1.283  1.00  0.00    -0.034 A 
HETATM   35  C   UNL     1      41.293 -16.786   2.519  1.00  0.00     0.009 A 
HETATM   36  C   UNL     1      41.988 -17.335   3.598  1.00  0.00     0.001 A 
HETATM   37  C   UNL     1      43.322 -17.708   3.450  1.00  0.00     0.000 A 
HETATM   38  C   UNL     1      43.963 -17.527   2.227  1.00  0.00     0.001 A 
HETATM   39  C   UNL     1      43.272 -16.969   1.150  1.00  0.00     0.009 A 
ENDBRANCH  33  34
ENDBRANCH  32  33
ENDBRANCH  30  32
ENDBRANCH  10  30
TORSDOF 10
ENDMDL
MODEL 8
REMARK VINA RESULT:      -6.1      2.807      8.033
REMARK  10 active torsions:
REMARK  status: ('A' for Active; 'I' for Inactive)
REMARK    1  A    between atoms: C_4  and  C_5 
REMARK    2  A    between atoms: C_7  and  C_8 
REMARK    3  A    between atoms: C_8  and  C_9 
REMARK       I    between atoms: C_9  and  N_10 
REMARK    4  A    between atoms: N_10  and  C_11 
REMARK    5  A    between atoms: C_11  and  C_12 
REMARK    6  A    between atoms: C_12  and  N_13 
REMARK    7  A    between atoms: C_24  and  C_25 
REMARK    8  A    between atoms: C_25  and  O_26 
REMARK    9  A    between atoms: O_26  and  C_27 
REMARK   10  A    between atoms: C_27  and  C_28 
ROOT
HETATM    1  C   UNL     1      40.280 -13.430   3.875  1.00  0.00     0.166 C 
HETATM    2  N   UNL     1      40.535 -13.211   2.437  1.00  0.00    -0.318 N 
HETATM    3  C   UNL     1      39.861 -13.287   1.337  1.00  0.00     0.011 C 
HETATM    4  C   UNL     1      42.024 -12.885   2.156  1.00  0.00     0.170 C 
HETATM    5  S   UNL     1      42.220 -12.179   0.589  1.00  0.00    -0.086 SA
HETATM    6  C   UNL     1      40.614 -12.881   0.085  1.00  0.00     0.135 C 
HETATM    7  N   UNL     1      42.999 -13.270   2.904  1.00  0.00    -0.229 NA
HETATM    8  C   UNL     1      42.682 -14.156   3.921  1.00  0.00     0.048 C 
HETATM    9  C   UNL     1      43.851 -15.004   4.365  1.00  0.00     0.071 C 
HETATM   10  C   UNL     1      41.412 -14.315   4.356  1.00  0.00     0.069 C 
ENDROOT
BRANCH   3  11
HETATM   11  C   UNL     1      38.450 -13.797   1.283  1.00  0.00     0.156 C 
BRANCH  11  12
HETATM   12  C   UNL     1      37.667 -13.275   0.094  1.00  0.00     0.223 C 
HETATM   13  N   UNL     1      37.891 -13.949  -1.079  1.00  0.00    -0.359 N 
HETATM   14  H   UNL     1      38.630 -14.648  -1.085  1.00  0.00     0.162 HD
HETATM   15  O   UNL     1      36.905 -12.318   0.194  1.00  0.00    -0.273 OA
BRANCH  13  16
HETATM   16  C   UNL     1      37.458 -13.539  -2.420  1.00  0.00     0.150 C 
BRANCH  16  17
HETATM   17  C   UNL     1      38.099 -14.230  -3.643  1.00  0.00     0.253 C 
BRANCH  17  18
HETATM   18  N   UNL     1      39.141 -15.267  -3.272  1.00  0.00    -0.077 N 
HETATM   19  H   UNL     1      38.986 -15.484  -2.269  1.00  0.00     0.279 HD
HETATM   20  C   UNL     1      39.033 -16.558  -4.036  1.00  0.00     0.269 C 
HETATM   21  C   UNL     1      40.534 -14.705  -3.374  1.00  0.00     0.269 C 
ENDBRANCH  17  18
ENDBRANCH  16  17
ENDBRANCH  13  16
ENDBRANCH  11  12
ENDBRANCH   3  11
BRANCH   1  22
HETATM   22  C   UNL     1      40.150 -12.107   4.686  1.00  0.00    -0.024 A 
HETATM   23  C   UNL     1      41.003 -11.928   5.812  1.00  0.00     0.017 A 
HETATM   24  C   UNL     1      40.987 -10.780   6.617  1.00  0.00    -0.061 A 
HETATM   25  C   UNL     1      41.941 -10.640   7.771  1.00  0.00     0.048 C 
HETATM   26  C   UNL     1      40.116  -9.751   6.298  1.00  0.00     0.007 A 
HETATM   27  C   UNL     1      39.231  -9.904   5.239  1.00  0.00     0.008 A 
HETATM   28  C   UNL     1      39.201 -11.076   4.449  1.00  0.00    -0.053 A 
HETATM   29  C   UNL     1      38.116 -11.097   3.409  1.00  0.00     0.049 C 
ENDBRANCH   1  22
BRANCH  10  30
HETATM   30  C   UNL     1      40.976 -15.446   5.194  1.00  0.00     0.294 C 
HETATM   31  O   UNL     1      40.839 -15.298   6.398  1.00  0.00    -0.259 OA
BRANCH  30  32
HETATM   32  O   UNL     1      40.846 -16.569   4.469  1.00  0.00    -0.313 OA
BRANCH  32  33
HETATM   33  C   UNL     1      41.415 -17.763   5.035  1.00  0.00     0.217 C 
BRANCH  33  34
HETATM   34  C   UNL     1      42.453 -18.342   4.109  1.00  0.00    -0.034 A 
HETATM   35  C   UNL     1      43.491 -19.148   4.601  1.00  0.00     0.009 A 
HETATM   36  C   UNL     1      44.432 -19.705   3.734  1.00  0.00     0.001 A 
HETATM   37  C   UNL     1      44.340 -19.474   2.363  1.00  0.00     0.000 A 
HETATM   38  C   UNL     1      43.311 -18.682   1.859  1.00  0.00     0.001 A 
HETATM   39  C   UNL     1      42.374 -18.116   2.726  1.00  0.00     0.009 A 
ENDBRANCH  33  34
ENDBRANCH  32  33
ENDBRANCH  30  32
ENDBRANCH  10  30
TORSDOF 10
ENDMDL
MODEL 9
REMARK VINA RESULT:      -6.1      3.410      7.467
REMARK  10 active torsions:
REMARK  status: ('A' for Active; 'I' for Inactive)
REMARK    1  A    between atoms: C_4  and  C_5 
REMARK    2  A    between atoms: C_7  and  C_8 
REMARK    3  A    between atoms: C_8  and  C_9 
REMARK       I    between atoms: C_9  and  N_10 
REMARK    4  A    between atoms: N_10  and  C_11 
REMARK    5  A    between atoms: C_11  and  C_12 
REMARK    6  A    between atoms: C_12  and  N_13 
REMARK    7  A    between atoms: C_24  and  C_25 
REMARK    8  A    between atoms: C_25  and  O_26 
REMARK    9  A    between atoms: O_26  and  C_27 
REMARK   10  A    between atoms: C_27  and  C_28 
ROOT
HETATM    1  C   UNL     1      40.612 -11.707   1.711  1.00  0.00     0.166 C 
HETATM    2  N   UNL     1      39.162 -11.440   1.626  1.00  0.00    -0.318 N 
HETATM    3  C   UNL     1      38.325 -10.602   2.143  1.00  0.00     0.011 C 
HETATM    4  C   UNL     1      38.430 -12.492   0.754  1.00  0.00     0.170 C 
HETATM    5  S   UNL     1      36.868 -11.924   0.277  1.00  0.00    -0.086 SA
HETATM    6  C   UNL     1      36.895 -10.728   1.654  1.00  0.00     0.135 C 
HETATM    7  N   UNL     1      38.847 -13.698   0.577  1.00  0.00    -0.229 NA
HETATM    8  C   UNL     1      39.927 -14.094   1.350  1.00  0.00     0.048 C 
HETATM    9  C   UNL     1      40.003 -15.589   1.553  1.00  0.00     0.071 C 
HETATM   10  C   UNL     1      40.735 -13.197   1.958  1.00  0.00     0.069 C 
ENDROOT
BRANCH   3  11
HETATM   11  C   UNL     1      38.717  -9.609   3.198  1.00  0.00     0.156 C 
BRANCH  11  12
HETATM   12  C   UNL     1      38.773 -10.204   4.592  1.00  0.00     0.223 C 
HETATM   13  N   UNL     1      39.387  -9.412   5.528  1.00  0.00    -0.359 N 
HETATM   14  H   UNL     1      39.848  -8.567   5.197  1.00  0.00     0.162 HD
HETATM   15  O   UNL     1      38.306 -11.312   4.839  1.00  0.00    -0.273 OA
BRANCH  13  16
HETATM   16  C   UNL     1      39.785  -9.808   6.883  1.00  0.00     0.150 C 
BRANCH  16  17
HETATM   17  C   UNL     1      41.022 -10.716   7.052  1.00  0.00     0.253 C 
BRANCH  17  18
HETATM   18  N   UNL     1      41.273 -11.133   8.488  1.00  0.00    -0.077 N 
HETATM   19  H   UNL     1      41.345 -12.169   8.479  1.00  0.00     0.279 HD
HETATM   20  C   UNL     1      42.548 -10.596   9.078  1.00  0.00     0.269 C 
HETATM   21  C   UNL     1      40.098 -10.797   9.369  1.00  0.00     0.269 C 
ENDBRANCH  17  18
ENDBRANCH  16  17
ENDBRANCH  13  16
ENDBRANCH  11  12
ENDBRANCH   3  11
BRANCH   1  22
HETATM   22  C   UNL     1      41.402 -11.226   0.458  1.00  0.00    -0.024 A 
HETATM   23  C   UNL     1      41.838 -12.210  -0.474  1.00  0.00     0.017 A 
HETATM   24  C   UNL     1      42.550 -11.903  -1.643  1.00  0.00    -0.061 A 
HETATM   25  C   UNL     1      42.950 -12.989  -2.603  1.00  0.00     0.048 C 
HETATM   26  C   UNL     1      42.831 -10.577  -1.927  1.00  0.00     0.007 A 
HETATM   27  C   UNL     1      42.467  -9.588  -1.021  1.00  0.00     0.008 A 
HETATM   28  C   UNL     1      41.794  -9.887   0.185  1.00  0.00    -0.053 A 
HETATM   29  C   UNL     1      41.566  -8.701   1.080  1.00  0.00     0.049 C 
ENDBRANCH   1  22
BRANCH  10  30
HETATM   30  C   UNL     1      41.686 -13.553   3.025  1.00  0.00     0.294 C 
HETATM   31  O   UNL     1      41.387 -13.376   4.196  1.00  0.00    -0.259 OA
BRANCH  30  32
HETATM   32  O   UNL     1      42.849 -13.992   2.517  1.00  0.00    -0.313 OA
BRANCH  32  33
HETATM   33  C   UNL     1      43.621 -14.870   3.355  1.00  0.00     0.217 C 
BRANCH  33  34
HETATM   34  C   UNL     1      43.491 -16.296   2.885  1.00  0.00    -0.034 A 
HETATM   35  C   UNL     1      43.087 -17.311   3.765  1.00  0.00     0.009 A 
HETATM   36  C   UNL     1      42.939 -18.625   3.316  1.00  0.00     0.001 A 
HETATM   37  C   UNL     1      43.181 -18.936   1.980  1.00  0.00     0.000 A 
HETATM   38  C   UNL     1      43.575 -17.937   1.094  1.00  0.00     0.001 A 
HETATM   39  C   UNL     1      43.733 -16.624   1.543  1.00  0.00     0.009 A 
ENDBRANCH  33  34
ENDBRANCH  32  33
ENDBRANCH  30  32
ENDBRANCH  10  30
TORSDOF 10
ENDMDL
MODEL 10
REMARK VINA RESULT:      -6.0      1.783      2.615
REMARK  10 active torsions:
REMARK  status: ('A' for Active; 'I' for Inactive)
REMARK    1  A    between atoms: C_4  and  C_5 
REMARK    2  A    between atoms: C_7  and  C_8 
REMARK    3  A    between atoms: C_8  and  C_9 
REMARK       I    between atoms: C_9  and  N_10 
REMARK    4  A    between atoms: N_10  and  C_11 
REMARK    5  A    between atoms: C_11  and  C_12 
REMARK    6  A    between atoms: C_12  and  N_13 
REMARK    7  A    between atoms: C_24  and  C_25 
REMARK    8  A    between atoms: C_25  and  O_26 
REMARK    9  A    between atoms: O_26  and  C_27 
REMARK   10  A    between atoms: C_27  and  C_28 
ROOT
HETATM    1  C   UNL     1      40.541 -13.026  -0.283  1.00  0.00     0.166 C 
HETATM    2  N   UNL     1      40.720 -13.734   1.000  1.00  0.00    -0.318 N 
HETATM    3  C   UNL     1      41.254 -14.841   1.401  1.00  0.00     0.011 C 
HETATM    4  C   UNL     1      40.011 -13.004   2.169  1.00  0.00     0.170 C 
HETATM    5  S   UNL     1      40.605 -13.554   3.697  1.00  0.00    -0.086 SA
HETATM    6  C   UNL     1      41.217 -15.075   2.898  1.00  0.00     0.135 C 
HETATM    7  N   UNL     1      38.983 -12.241   2.024  1.00  0.00    -0.229 NA
HETATM    8  C   UNL     1      38.407 -12.218   0.764  1.00  0.00     0.048 C 
HETATM    9  C   UNL     1      36.949 -11.822   0.777  1.00  0.00     0.071 C 
HETATM   10  C   UNL     1      39.075 -12.644  -0.332  1.00  0.00     0.069 C 
ENDROOT
BRANCH   3  11
HETATM   11  C   UNL     1      41.820 -15.859   0.453  1.00  0.00     0.156 C 
BRANCH  11  12
HETATM   12  C   UNL     1      41.797 -17.271   1.004  1.00  0.00     0.223 C 
HETATM   13  N   UNL     1      43.021 -17.756   1.385  1.00  0.00    -0.359 N 
HETATM   14  H   UNL     1      43.839 -17.192   1.164  1.00  0.00     0.162 HD
HETATM   15  O   UNL     1      40.755 -17.914   1.087  1.00  0.00    -0.273 OA
BRANCH  13  16
HETATM   16  C   UNL     1      43.342 -19.144   1.737  1.00  0.00     0.150 C 
BRANCH  16  17
HETATM   17  C   UNL     1      44.368 -19.401   2.862  1.00  0.00     0.253 C 
BRANCH  17  18
HETATM   18  N   UNL     1      43.785 -19.252   4.254  1.00  0.00    -0.077 N 
HETATM   19  H   UNL     1      42.783 -19.517   4.176  1.00  0.00     0.279 HD
HETATM   20  C   UNL     1      44.410 -20.147   5.289  1.00  0.00     0.269 C 
HETATM   21  C   UNL     1      43.809 -17.817   4.708  1.00  0.00     0.269 C 
ENDBRANCH  17  18
ENDBRANCH  16  17
ENDBRANCH  13  16
ENDBRANCH  11  12
ENDBRANCH   3  11
BRANCH   1  22
HETATM   22  C   UNL     1      41.497 -11.809  -0.455  1.00  0.00    -0.024 A 
HETATM   23  C   UNL     1      41.178 -10.607   0.238  1.00  0.00     0.017 A 
HETATM   24  C   UNL     1      41.962  -9.446   0.171  1.00  0.00    -0.061 A 
HETATM   25  C   UNL     1      41.586  -8.221   0.957  1.00  0.00     0.048 C 
HETATM   26  C   UNL     1      43.120  -9.464  -0.589  1.00  0.00     0.007 A 
HETATM   27  C   UNL     1      43.444 -10.600  -1.321  1.00  0.00     0.008 A 
HETATM   28  C   UNL     1      42.637 -11.759  -1.302  1.00  0.00    -0.053 A 
HETATM   29  C   UNL     1      43.096 -12.851  -2.227  1.00  0.00     0.049 C 
ENDBRANCH   1  22
BRANCH  10  30
HETATM   30  C   UNL     1      38.421 -12.935  -1.619  1.00  0.00     0.294 C 
HETATM   31  O   UNL     1      37.957 -14.044  -1.834  1.00  0.00    -0.259 OA
BRANCH  30  32
HETATM   32  O   UNL     1      38.491 -11.883  -2.452  1.00  0.00    -0.313 OA
BRANCH  32  33
HETATM   33  C   UNL     1      39.290 -12.057  -3.635  1.00  0.00     0.217 C 
BRANCH  33  34
HETATM   34  C   UNL     1      40.234 -10.896  -3.808  1.00  0.00    -0.034 A 
HETATM   35  C   UNL     1      41.344 -10.989  -4.662  1.00  0.00     0.009 A 
HETATM   36  C   UNL     1      42.197  -9.899  -4.841  1.00  0.00     0.001 A 
HETATM   37  C   UNL     1      41.945  -8.699  -4.180  1.00  0.00     0.000 A 
HETATM   38  C   UNL     1      40.842  -8.590  -3.336  1.00  0.00     0.001 A 
HETATM   39  C   UNL     1      39.993  -9.682  -3.148  1.00  0.00     0.009 A 
ENDBRANCH  33  34
ENDBRANCH  32  33
ENDBRANCH  30  32
ENDBRANCH  10  30
TORSDOF 10
ENDMDL
