MODEL 1
REMARK VINA RESULT:      -9.3      0.000      0.000
REMARK  3 active torsions:
REMARK  status: ('A' for Active; 'I' for Inactive)
REMARK    1  A    between atoms: C_8  and  C_9 
REMARK    2  A    between atoms: C_12  and  C_13 
REMARK    3  A    between atoms: C_24  and  N_25 
ROOT
HETATM    1  C   UNL     1      44.116 -14.998   6.536  1.00  0.00     0.073 C 
HETATM    2  C   UNL     1      43.929 -16.351   7.115  1.00  0.00     0.062 A 
HETATM    3  N   UNL     1      43.618 -16.494   8.415  1.00  0.00    -0.177 NA
HETATM    4  N   UNL     1      43.517 -17.828   8.588  1.00  0.00    -0.256 N 
HETATM    5  H   UNL     1      43.293 -18.186   9.509  1.00  0.00     0.191 HD
HETATM    6  C   UNL     1      43.752 -18.524   7.448  1.00  0.00     0.175 A 
HETATM    7  C   UNL     1      44.016 -17.606   6.466  1.00  0.00     0.034 A 
HETATM    8  C   UNL     1      44.334 -18.063   5.085  1.00  0.00     0.105 A 
HETATM    9  C   UNL     1      44.333 -19.592   5.014  1.00  0.00     0.080 A 
HETATM   10  C   UNL     1      44.697 -20.170   3.763  1.00  0.00     0.100 C 
HETATM   11  N   UNL     1      44.991 -20.645   2.746  1.00  0.00    -0.191 NA
HETATM   12  C   UNL     1      44.051 -20.383   6.086  1.00  0.00     0.140 A 
HETATM   13  O   UNL     1      43.726 -19.847   7.346  1.00  0.00    -0.279 OA
ENDROOT
BRANCH   8  14
HETATM   14  C   UNL     1      43.301 -17.406   4.179  1.00  0.00    -0.044 A 
HETATM   15  C   UNL     1      43.728 -16.548   3.155  1.00  0.00     0.009 A 
HETATM   16  C   UNL     1      42.802 -15.906   2.326  1.00  0.00     0.013 A 
HETATM   17  C   UNL     1      41.422 -16.104   2.487  1.00  0.00    -0.026 A 
HETATM   18  C   UNL     1      41.001 -16.982   3.497  1.00  0.00     0.013 A 
HETATM   19  C   UNL     1      41.922 -17.626   4.330  1.00  0.00     0.009 A 
BRANCH  17  20
HETATM   20  C   UNL     1      40.448 -15.400   1.633  1.00  0.00    -0.026 A 
HETATM   21  C   UNL     1      40.805 -14.926   0.359  1.00  0.00     0.012 A 
HETATM   22  C   UNL     1      39.883 -14.247  -0.443  1.00  0.00     0.001 A 
HETATM   23  C   UNL     1      38.587 -14.029   0.015  1.00  0.00     0.000 A 
HETATM   24  C   UNL     1      38.211 -14.492   1.273  1.00  0.00     0.001 A 
HETATM   25  C   UNL     1      39.133 -15.170   2.074  1.00  0.00     0.012 A 
ENDBRANCH  17  20
ENDBRANCH   8  14
BRANCH  12  26
HETATM   26  N   UNL     1      44.048 -21.760   6.083  1.00  0.00    -0.282 NA
HETATM   27  H   UNL     1      43.962 -22.203   6.995  1.00  0.00     0.126 HD
HETATM   28  H   UNL     1      44.806 -22.144   5.522  1.00  0.00     0.126 HD
ENDBRANCH  12  26
TORSDOF 3
ENDMDL
MODEL 2
REMARK VINA RESULT:      -9.2      4.572      7.519
REMARK  3 active torsions:
REMARK  status: ('A' for Active; 'I' for Inactive)
REMARK    1  A    between atoms: C_8  and  C_9 
REMARK    2  A    between atoms: C_12  and  C_13 
REMARK    3  A    between atoms: C_24  and  N_25 
ROOT
HETATM    1  C   UNL     1      40.464 -14.546   3.877  1.00  0.00     0.073 C 
HETATM    2  C   UNL     1      41.104 -13.586   2.946  1.00  0.00     0.062 A 
HETATM    3  N   UNL     1      41.573 -12.412   3.401  1.00  0.00    -0.177 NA
HETATM    4  N   UNL     1      42.085 -11.811   2.308  1.00  0.00    -0.256 N 
HETATM    5  H   UNL     1      42.497 -10.890   2.403  1.00  0.00     0.191 HD
HETATM    6  C   UNL     1      41.955 -12.563   1.187  1.00  0.00     0.175 A 
HETATM    7  C   UNL     1      41.330 -13.725   1.555  1.00  0.00     0.034 A 
HETATM    8  C   UNL     1      41.026 -14.764   0.533  1.00  0.00     0.105 A 
HETATM    9  C   UNL     1      41.477 -14.298  -0.854  1.00  0.00     0.080 A 
HETATM   10  C   UNL     1      41.177 -15.166  -1.944  1.00  0.00     0.100 C 
HETATM   11  N   UNL     1      40.938 -15.871  -2.835  1.00  0.00    -0.191 NA
HETATM   12  C   UNL     1      42.089 -13.100  -1.070  1.00  0.00     0.140 A 
HETATM   13  O   UNL     1      42.364 -12.202  -0.023  1.00  0.00    -0.279 OA
ENDROOT
BRANCH   8  14
HETATM   14  C   UNL     1      41.718 -16.034   1.008  1.00  0.00    -0.044 A 
HETATM   15  C   UNL     1      40.951 -17.175   1.287  1.00  0.00     0.009 A 
HETATM   16  C   UNL     1      41.555 -18.347   1.754  1.00  0.00     0.013 A 
HETATM   17  C   UNL     1      42.943 -18.422   1.952  1.00  0.00    -0.026 A 
HETATM   18  C   UNL     1      43.708 -17.286   1.649  1.00  0.00     0.013 A 
HETATM   19  C   UNL     1      43.109 -16.111   1.182  1.00  0.00     0.009 A 
BRANCH  17  20
HETATM   20  C   UNL     1      43.571 -19.649   2.476  1.00  0.00    -0.026 A 
HETATM   21  C   UNL     1      43.541 -20.850   1.747  1.00  0.00     0.012 A 
HETATM   22  C   UNL     1      44.126 -22.015   2.253  1.00  0.00     0.001 A 
HETATM   23  C   UNL     1      44.751 -21.999   3.497  1.00  0.00     0.000 A 
HETATM   24  C   UNL     1      44.794 -20.819   4.234  1.00  0.00     0.001 A 
HETATM   25  C   UNL     1      44.209 -19.655   3.728  1.00  0.00     0.012 A 
ENDBRANCH  17  20
ENDBRANCH   8  14
BRANCH  12  26
HETATM   26  N   UNL     1      42.502 -12.625  -2.295  1.00  0.00    -0.282 NA
HETATM   27  H   UNL     1      42.919 -13.314  -2.917  1.00  0.00     0.126 HD
HETATM   28  H   UNL     1      43.057 -11.776  -2.209  1.00  0.00     0.126 HD
ENDBRANCH  12  26
TORSDOF 3
ENDMDL
MODEL 3
REMARK VINA RESULT:      -8.9      3.606      7.049
REMARK  3 active torsions:
REMARK  status: ('A' for Active; 'I' for Inactive)
REMARK    1  A    between atoms: C_8  and  C_9 
REMARK    2  A    between atoms: C_12  and  C_13 
REMARK    3  A    between atoms: C_24  and  N_25 
ROOT
HETATM    1  C   UNL     1      41.144 -15.206  -0.096  1.00  0.00     0.073 C 
HETATM    2  C   UNL     1      40.430 -14.618   1.064  1.00  0.00     0.062 A 
HETATM    3  N   UNL     1      39.116 -14.345   0.981  1.00  0.00    -0.177 NA
HETATM    4  N   UNL     1      38.804 -13.841   2.193  1.00  0.00    -0.256 N 
HETATM    5  H   UNL     1      37.850 -13.548   2.371  1.00  0.00     0.191 HD
HETATM    6  C   UNL     1      39.871 -13.789   3.030  1.00  0.00     0.175 A 
HETATM    7  C   UNL     1      40.944 -14.289   2.341  1.00  0.00     0.034 A 
HETATM    8  C   UNL     1      42.283 -14.350   2.990  1.00  0.00     0.105 A 
HETATM    9  C   UNL     1      42.217 -13.775   4.407  1.00  0.00     0.080 A 
HETATM   10  C   UNL     1      43.449 -13.701   5.121  1.00  0.00     0.100 C 
HETATM   11  N   UNL     1      44.449 -13.641   5.706  1.00  0.00    -0.191 NA
HETATM   12  C   UNL     1      41.065 -13.306   4.963  1.00  0.00     0.140 A 
HETATM   13  O   UNL     1      39.839 -13.327   4.273  1.00  0.00    -0.279 OA
ENDROOT
BRANCH   8  14
HETATM   14  C   UNL     1      42.705 -15.812   2.940  1.00  0.00    -0.044 A 
HETATM   15  C   UNL     1      42.099 -16.736   3.806  1.00  0.00     0.009 A 
HETATM   16  C   UNL     1      42.488 -18.079   3.805  1.00  0.00     0.013 A 
HETATM   17  C   UNL     1      43.487 -18.547   2.937  1.00  0.00    -0.026 A 
HETATM   18  C   UNL     1      44.073 -17.625   2.057  1.00  0.00     0.013 A 
HETATM   19  C   UNL     1      43.689 -16.280   2.054  1.00  0.00     0.009 A 
BRANCH  17  20
HETATM   20  C   UNL     1      43.916 -19.957   2.962  1.00  0.00    -0.026 A 
HETATM   21  C   UNL     1      43.823 -20.767   1.817  1.00  0.00     0.012 A 
HETATM   22  C   UNL     1      44.218 -22.108   1.848  1.00  0.00     0.001 A 
HETATM   23  C   UNL     1      44.714 -22.663   3.025  1.00  0.00     0.000 A 
HETATM   24  C   UNL     1      44.817 -21.878   4.170  1.00  0.00     0.001 A 
HETATM   25  C   UNL     1      44.421 -20.538   4.138  1.00  0.00     0.012 A 
ENDBRANCH  17  20
ENDBRANCH   8  14
BRANCH  12  26
HETATM   26  N   UNL     1      40.951 -12.766   6.225  1.00  0.00    -0.282 NA
HETATM   27  H   UNL     1      41.164 -13.396   6.995  1.00  0.00     0.126 HD
HETATM   28  H   UNL     1      40.074 -12.265   6.349  1.00  0.00     0.126 HD
ENDBRANCH  12  26
TORSDOF 3
ENDMDL
MODEL 4
REMARK VINA RESULT:      -8.2      1.870      4.128
REMARK  3 active torsions:
REMARK  status: ('A' for Active; 'I' for Inactive)
REMARK    1  A    between atoms: C_8  and  C_9 
REMARK    2  A    between atoms: C_12  and  C_13 
REMARK    3  A    between atoms: C_24  and  N_25 
ROOT
HETATM    1  C   UNL     1      43.092 -20.402   1.953  1.00  0.00     0.073 C 
HETATM    2  C   UNL     1      43.842 -19.906   3.133  1.00  0.00     0.062 A 
HETATM    3  N   UNL     1      45.066 -20.388   3.408  1.00  0.00    -0.177 NA
HETATM    4  N   UNL     1      45.444 -19.722   4.519  1.00  0.00    -0.256 N 
HETATM    5  H   UNL     1      46.349 -19.925   4.928  1.00  0.00     0.191 HD
HETATM    6  C   UNL     1      44.505 -18.842   4.948  1.00  0.00     0.175 A 
HETATM    7  C   UNL     1      43.452 -18.924   4.075  1.00  0.00     0.034 A 
HETATM    8  C   UNL     1      42.241 -18.084   4.288  1.00  0.00     0.105 A 
HETATM    9  C   UNL     1      42.394 -17.236   5.553  1.00  0.00     0.080 A 
HETATM   10  C   UNL     1      41.273 -16.435   5.921  1.00  0.00     0.100 C 
HETATM   11  N   UNL     1      40.364 -15.780   6.222  1.00  0.00    -0.191 NA
HETATM   12  C   UNL     1      43.511 -17.262   6.332  1.00  0.00     0.140 A 
HETATM   13  O   UNL     1      44.621 -18.070   6.021  1.00  0.00    -0.279 OA
ENDROOT
BRANCH   8  14
HETATM   14  C   UNL     1      42.074 -17.263   3.016  1.00  0.00    -0.044 A 
HETATM   15  C   UNL     1      40.863 -17.325   2.309  1.00  0.00     0.009 A 
HETATM   16  C   UNL     1      40.690 -16.607   1.121  1.00  0.00     0.013 A 
HETATM   17  C   UNL     1      41.714 -15.799   0.604  1.00  0.00    -0.026 A 
HETATM   18  C   UNL     1      42.914 -15.721   1.327  1.00  0.00     0.013 A 
HETATM   19  C   UNL     1      43.093 -16.438   2.515  1.00  0.00     0.009 A 
BRANCH  17  20
HETATM   20  C   UNL     1      41.539 -15.069  -0.665  1.00  0.00    -0.026 A 
HETATM   21  C   UNL     1      41.095 -15.725  -1.826  1.00  0.00     0.012 A 
HETATM   22  C   UNL     1      40.944 -15.033  -3.032  1.00  0.00     0.001 A 
HETATM   23  C   UNL     1      41.234 -13.673  -3.098  1.00  0.00     0.000 A 
HETATM   24  C   UNL     1      41.673 -13.004  -1.959  1.00  0.00     0.001 A 
HETATM   25  C   UNL     1      41.825 -13.696  -0.754  1.00  0.00     0.012 A 
ENDBRANCH  17  20
ENDBRANCH   8  14
BRANCH  12  26
HETATM   26  N   UNL     1      43.698 -16.533   7.485  1.00  0.00    -0.282 NA
HETATM   27  H   UNL     1      43.849 -17.077   8.331  1.00  0.00     0.126 HD
HETATM   28  H   UNL     1      42.994 -15.807   7.597  1.00  0.00     0.126 HD
ENDBRANCH  12  26
TORSDOF 3
ENDMDL
MODEL 5
REMARK VINA RESULT:      -7.9      4.488      7.374
REMARK  3 active torsions:
REMARK  status: ('A' for Active; 'I' for Inactive)
REMARK    1  A    between atoms: C_8  and  C_9 
REMARK    2  A    between atoms: C_12  and  C_13 
REMARK    3  A    between atoms: C_24  and  N_25 
ROOT
HETATM    1  C   UNL     1      40.199 -14.029   5.449  1.00  0.00     0.073 C 
HETATM    2  C   UNL     1      40.646 -12.902   4.594  1.00  0.00     0.062 A 
HETATM    3  N   UNL     1      41.148 -11.787   5.153  1.00  0.00    -0.177 NA
HETATM    4  N   UNL     1      41.452 -10.997   4.103  1.00  0.00    -0.256 N 
HETATM    5  H   UNL     1      41.846 -10.079   4.279  1.00  0.00     0.191 HD
HETATM    6  C   UNL     1      41.160 -11.573   2.910  1.00  0.00     0.175 A 
HETATM    7  C   UNL     1      40.641 -12.812   3.181  1.00  0.00     0.034 A 
HETATM    8  C   UNL     1      40.202 -13.696   2.067  1.00  0.00     0.105 A 
HETATM    9  C   UNL     1      40.401 -12.997   0.719  1.00  0.00     0.080 A 
HETATM   10  C   UNL     1      39.951 -13.702  -0.435  1.00  0.00     0.100 C 
HETATM   11  N   UNL     1      39.588 -14.274  -1.377  1.00  0.00    -0.191 NA
HETATM   12  C   UNL     1      40.932 -11.748   0.605  1.00  0.00     0.140 A 
HETATM   13  O   UNL     1      41.350 -11.007   1.726  1.00  0.00    -0.279 OA
ENDROOT
BRANCH   8  14
HETATM   14  C   UNL     1      41.003 -14.983   2.214  1.00  0.00    -0.044 A 
HETATM   15  C   UNL     1      40.326 -16.205   2.352  1.00  0.00     0.009 A 
HETATM   16  C   UNL     1      41.033 -17.400   2.520  1.00  0.00     0.013 A 
HETATM   17  C   UNL     1      42.437 -17.417   2.548  1.00  0.00    -0.026 A 
HETATM   18  C   UNL     1      43.109 -16.197   2.386  1.00  0.00     0.013 A 
HETATM   19  C   UNL     1      42.407 -14.998   2.219  1.00  0.00     0.009 A 
BRANCH  17  20
HETATM   20  C   UNL     1      43.178 -18.674   2.758  1.00  0.00    -0.026 A 
HETATM   21  C   UNL     1      43.987 -18.862   3.892  1.00  0.00     0.012 A 
HETATM   22  C   UNL     1      44.699 -20.050   4.081  1.00  0.00     0.001 A 
HETATM   23  C   UNL     1      44.615 -21.072   3.139  1.00  0.00     0.000 A 
HETATM   24  C   UNL     1      43.817 -20.908   2.010  1.00  0.00     0.001 A 
HETATM   25  C   UNL     1      43.106 -19.720   1.822  1.00  0.00     0.012 A 
ENDBRANCH  17  20
ENDBRANCH   8  14
BRANCH  12  26
HETATM   26  N   UNL     1      41.121 -11.067  -0.577  1.00  0.00    -0.282 NA
HETATM   27  H   UNL     1      41.145 -11.640  -1.417  1.00  0.00     0.126 HD
HETATM   28  H   UNL     1      41.893 -10.407  -0.520  1.00  0.00     0.126 HD
ENDBRANCH  12  26
TORSDOF 3
ENDMDL
MODEL 6
REMARK VINA RESULT:      -7.8      4.359      7.743
REMARK  3 active torsions:
REMARK  status: ('A' for Active; 'I' for Inactive)
REMARK    1  A    between atoms: C_8  and  C_9 
REMARK    2  A    between atoms: C_12  and  C_13 
REMARK    3  A    between atoms: C_24  and  N_25 
ROOT
HETATM    1  C   UNL     1      41.694 -14.165  -0.505  1.00  0.00     0.073 C 
HETATM    2  C   UNL     1      40.462 -13.669   0.155  1.00  0.00     0.062 A 
HETATM    3  N   UNL     1      39.303 -13.623  -0.523  1.00  0.00    -0.177 NA
HETATM    4  N   UNL     1      38.414 -13.140   0.368  1.00  0.00    -0.256 N 
HETATM    5  H   UNL     1      37.452 -13.007   0.078  1.00  0.00     0.191 HD
HETATM    6  C   UNL     1      38.971 -12.882   1.578  1.00  0.00     0.175 A 
HETATM    7  C   UNL     1      40.297 -13.217   1.487  1.00  0.00     0.034 A 
HETATM    8  C   UNL     1      41.195 -13.031   2.660  1.00  0.00     0.105 A 
HETATM    9  C   UNL     1      40.421 -12.430   3.836  1.00  0.00     0.080 A 
HETATM   10  C   UNL     1      41.177 -12.127   5.005  1.00  0.00     0.100 C 
HETATM   11  N   UNL     1      41.788 -11.881   5.961  1.00  0.00    -0.191 NA
HETATM   12  C   UNL     1      39.090 -12.143   3.778  1.00  0.00     0.140 A 
HETATM   13  O   UNL     1      38.322 -12.393   2.626  1.00  0.00    -0.279 OA
ENDROOT
BRANCH   8  14
HETATM   14  C   UNL     1      41.789 -14.402   2.953  1.00  0.00    -0.044 A 
HETATM   15  C   UNL     1      43.172 -14.597   2.822  1.00  0.00     0.009 A 
HETATM   16  C   UNL     1      43.743 -15.852   3.055  1.00  0.00     0.013 A 
HETATM   17  C   UNL     1      42.956 -16.951   3.432  1.00  0.00    -0.026 A 
HETATM   18  C   UNL     1      41.577 -16.746   3.585  1.00  0.00     0.013 A 
HETATM   19  C   UNL     1      40.999 -15.492   3.352  1.00  0.00     0.009 A 
BRANCH  17  20
HETATM   20  C   UNL     1      43.557 -18.281   3.645  1.00  0.00    -0.026 A 
HETATM   21  C   UNL     1      43.877 -19.117   2.561  1.00  0.00     0.012 A 
HETATM   22  C   UNL     1      44.434 -20.383   2.767  1.00  0.00     0.001 A 
HETATM   23  C   UNL     1      44.682 -20.834   4.060  1.00  0.00     0.000 A 
HETATM   24  C   UNL     1      44.376 -20.021   5.147  1.00  0.00     0.001 A 
HETATM   25  C   UNL     1      43.818 -18.757   4.941  1.00  0.00     0.012 A 
ENDBRANCH  17  20
ENDBRANCH   8  14
BRANCH  12  26
HETATM   26  N   UNL     1      38.348 -11.591   4.798  1.00  0.00    -0.282 NA
HETATM   27  H   UNL     1      37.637 -10.921   4.512  1.00  0.00     0.126 HD
HETATM   28  H   UNL     1      38.933 -11.254   5.558  1.00  0.00     0.126 HD
ENDBRANCH  12  26
TORSDOF 3
ENDMDL
MODEL 7
REMARK VINA RESULT:      -7.6      4.784      8.547
REMARK  3 active torsions:
REMARK  status: ('A' for Active; 'I' for Inactive)
REMARK    1  A    between atoms: C_8  and  C_9 
REMARK    2  A    between atoms: C_12  and  C_13 
REMARK    3  A    between atoms: C_24  and  N_25 
ROOT
HETATM    1  C   UNL     1      41.353 -15.286  -2.625  1.00  0.00     0.073 C 
HETATM    2  C   UNL     1      40.017 -14.804  -2.199  1.00  0.00     0.062 A 
HETATM    3  N   UNL     1      38.945 -14.999  -2.986  1.00  0.00    -0.177 NA
HETATM    4  N   UNL     1      37.922 -14.454  -2.296  1.00  0.00    -0.256 N 
HETATM    5  H   UNL     1      36.993 -14.473  -2.701  1.00  0.00     0.191 HD
HETATM    6  C   UNL     1      38.312 -13.925  -1.109  1.00  0.00     0.175 A 
HETATM    7  C   UNL     1      39.662 -14.136  -1.002  1.00  0.00     0.034 A 
HETATM    8  C   UNL     1      40.398 -13.650   0.197  1.00  0.00     0.105 A 
HETATM    9  C   UNL     1      39.447 -12.925   1.152  1.00  0.00     0.080 A 
HETATM   10  C   UNL     1      40.034 -12.340   2.312  1.00  0.00     0.100 C 
HETATM   11  N   UNL     1      40.508 -11.864   3.258  1.00  0.00    -0.191 NA
HETATM   12  C   UNL     1      38.113 -12.790   0.908  1.00  0.00     0.140 A 
HETATM   13  O   UNL     1      37.507 -13.321  -0.245  1.00  0.00    -0.279 OA
ENDROOT
BRANCH   8  14
HETATM   14  C   UNL     1      41.062 -14.878   0.806  1.00  0.00    -0.044 A 
HETATM   15  C   UNL     1      42.456 -14.902   0.964  1.00  0.00     0.009 A 
HETATM   16  C   UNL     1      43.097 -16.028   1.492  1.00  0.00     0.013 A 
HETATM   17  C   UNL     1      42.369 -17.162   1.886  1.00  0.00    -0.026 A 
HETATM   18  C   UNL     1      40.974 -17.123   1.748  1.00  0.00     0.013 A 
HETATM   19  C   UNL     1      40.327 -16.001   1.220  1.00  0.00     0.009 A 
BRANCH  17  20
HETATM   20  C   UNL     1      43.052 -18.358   2.411  1.00  0.00    -0.026 A 
HETATM   21  C   UNL     1      43.636 -18.361   3.689  1.00  0.00     0.012 A 
HETATM   22  C   UNL     1      44.295 -19.493   4.179  1.00  0.00     0.001 A 
HETATM   23  C   UNL     1      44.381 -20.643   3.398  1.00  0.00     0.000 A 
HETATM   24  C   UNL     1      43.806 -20.663   2.131  1.00  0.00     0.001 A 
HETATM   25  C   UNL     1      43.149 -19.531   1.642  1.00  0.00     0.012 A 
ENDBRANCH  17  20
ENDBRANCH   8  14
BRANCH  12  26
HETATM   26  N   UNL     1      37.215 -12.138   1.723  1.00  0.00    -0.282 NA
HETATM   27  H   UNL     1      37.248 -11.122   1.692  1.00  0.00     0.126 HD
HETATM   28  H   UNL     1      37.218 -12.510   2.671  1.00  0.00     0.126 HD
ENDBRANCH  12  26
TORSDOF 3
ENDMDL
MODEL 8
REMARK VINA RESULT:      -6.9      3.187      5.510
REMARK  3 active torsions:
REMARK  status: ('A' for Active; 'I' for Inactive)
REMARK    1  A    between atoms: C_8  and  C_9 
REMARK    2  A    between atoms: C_12  and  C_13 
REMARK    3  A    between atoms: C_24  and  N_25 
ROOT
HETATM    1  C   UNL     1      41.792 -17.660   4.161  1.00  0.00     0.073 C 
HETATM    2  C   UNL     1      42.445 -16.587   4.950  1.00  0.00     0.062 A 
HETATM    3  N   UNL     1      43.659 -16.788   5.490  1.00  0.00    -0.177 NA
HETATM    4  N   UNL     1      43.941 -15.627   6.116  1.00  0.00    -0.256 N 
HETATM    5  H   UNL     1      44.821 -15.540   6.613  1.00  0.00     0.191 HD
HETATM    6  C   UNL     1      42.952 -14.708   5.988  1.00  0.00     0.175 A 
HETATM    7  C   UNL     1      41.965 -15.286   5.234  1.00  0.00     0.034 A 
HETATM    8  C   UNL     1      40.721 -14.527   4.928  1.00  0.00     0.105 A 
HETATM    9  C   UNL     1      40.763 -13.144   5.581  1.00  0.00     0.080 A 
HETATM   10  C   UNL     1      39.599 -12.335   5.433  1.00  0.00     0.100 C 
HETATM   11  N   UNL     1      38.654 -11.672   5.312  1.00  0.00    -0.191 NA
HETATM   12  C   UNL     1      41.824 -12.703   6.314  1.00  0.00     0.140 A 
HETATM   13  O   UNL     1      42.973 -13.491   6.514  1.00  0.00    -0.279 OA
ENDROOT
BRANCH   8  14
HETATM   14  C   UNL     1      40.621 -14.485   3.409  1.00  0.00    -0.044 A 
HETATM   15  C   UNL     1      39.462 -14.966   2.779  1.00  0.00     0.009 A 
HETATM   16  C   UNL     1      39.353 -14.968   1.385  1.00  0.00     0.013 A 
HETATM   17  C   UNL     1      40.392 -14.485   0.573  1.00  0.00    -0.026 A 
HETATM   18  C   UNL     1      41.538 -13.983   1.207  1.00  0.00     0.013 A 
HETATM   19  C   UNL     1      41.653 -13.979   2.602  1.00  0.00     0.009 A 
BRANCH  17  20
HETATM   20  C   UNL     1      40.286 -14.520  -0.897  1.00  0.00    -0.026 A 
HETATM   21  C   UNL     1      39.454 -13.623  -1.589  1.00  0.00     0.012 A 
HETATM   22  C   UNL     1      39.345 -13.668  -2.982  1.00  0.00     0.001 A 
HETATM   23  C   UNL     1      40.068 -14.610  -3.708  1.00  0.00     0.000 A 
HETATM   24  C   UNL     1      40.901 -15.506  -3.044  1.00  0.00     0.001 A 
HETATM   25  C   UNL     1      41.008 -15.461  -1.651  1.00  0.00     0.012 A 
ENDBRANCH  17  20
ENDBRANCH   8  14
BRANCH  12  26
HETATM   26  N   UNL     1      41.910 -11.477   6.935  1.00  0.00    -0.282 NA
HETATM   27  H   UNL     1      42.779 -10.968   6.786  1.00  0.00     0.126 HD
HETATM   28  H   UNL     1      41.635 -11.523   7.913  1.00  0.00     0.126 HD
ENDBRANCH  12  26
TORSDOF 3
ENDMDL
MODEL 9
REMARK VINA RESULT:      -6.7      2.463      4.651
REMARK  3 active torsions:
REMARK  status: ('A' for Active; 'I' for Inactive)
REMARK    1  A    between atoms: C_8  and  C_9 
REMARK    2  A    between atoms: C_12  and  C_13 
REMARK    3  A    between atoms: C_24  and  N_25 
ROOT
HETATM    1  C   UNL     1      41.770 -18.306   4.733  1.00  0.00     0.073 C 
HETATM    2  C   UNL     1      42.861 -17.655   5.498  1.00  0.00     0.062 A 
HETATM    3  N   UNL     1      43.889 -18.384   5.964  1.00  0.00    -0.177 NA
HETATM    4  N   UNL     1      44.678 -17.485   6.588  1.00  0.00    -0.256 N 
HETATM    5  H   UNL     1      45.529 -17.808   7.034  1.00  0.00     0.191 HD
HETATM    6  C   UNL     1      44.185 -16.223   6.528  1.00  0.00     0.175 A 
HETATM    7  C   UNL     1      43.011 -16.285   5.824  1.00  0.00     0.034 A 
HETATM    8  C   UNL     1      42.211 -15.050   5.600  1.00  0.00     0.105 A 
HETATM    9  C   UNL     1      42.884 -13.848   6.268  1.00  0.00     0.080 A 
HETATM   10  C   UNL     1      42.185 -12.608   6.196  1.00  0.00     0.100 C 
HETATM   11  N   UNL     1      41.620 -11.595   6.138  1.00  0.00    -0.191 NA
HETATM   12  C   UNL     1      44.063 -13.940   6.944  1.00  0.00     0.140 A 
HETATM   13  O   UNL     1      44.760 -15.156   7.068  1.00  0.00    -0.279 OA
ENDROOT
BRANCH   8  14
HETATM   14  C   UNL     1      42.070 -14.913   4.090  1.00  0.00    -0.044 A 
HETATM   15  C   UNL     1      40.791 -14.916   3.513  1.00  0.00     0.009 A 
HETATM   16  C   UNL     1      40.630 -14.823   2.126  1.00  0.00     0.013 A 
HETATM   17  C   UNL     1      41.739 -14.715   1.271  1.00  0.00    -0.026 A 
HETATM   18  C   UNL     1      43.014 -14.688   1.854  1.00  0.00     0.013 A 
HETATM   19  C   UNL     1      43.181 -14.782   3.240  1.00  0.00     0.009 A 
BRANCH  17  20
HETATM   20  C   UNL     1      41.566 -14.650  -0.192  1.00  0.00    -0.026 A 
HETATM   21  C   UNL     1      41.842 -13.470  -0.905  1.00  0.00     0.012 A 
HETATM   22  C   UNL     1      41.664 -13.407  -2.290  1.00  0.00     0.001 A 
HETATM   23  C   UNL     1      41.208 -14.523  -2.987  1.00  0.00     0.000 A 
HETATM   24  C   UNL     1      40.932 -15.702  -2.300  1.00  0.00     0.001 A 
HETATM   25  C   UNL     1      41.109 -15.764  -0.916  1.00  0.00     0.012 A 
ENDBRANCH  17  20
ENDBRANCH   8  14
BRANCH  12  26
HETATM   26  N   UNL     1      44.705 -12.898   7.574  1.00  0.00    -0.282 NA
HETATM   27  H   UNL     1      44.100 -12.217   8.028  1.00  0.00     0.126 HD
HETATM   28  H   UNL     1      45.415 -12.471   6.983  1.00  0.00     0.126 HD
ENDBRANCH  12  26
TORSDOF 3
ENDMDL
MODEL 10
REMARK VINA RESULT:      -6.7      5.075      6.435
REMARK  3 active torsions:
REMARK  status: ('A' for Active; 'I' for Inactive)
REMARK    1  A    between atoms: C_8  and  C_9 
REMARK    2  A    between atoms: C_12  and  C_13 
REMARK    3  A    between atoms: C_24  and  N_25 
ROOT
HETATM    1  C   UNL     1      44.164 -14.595   6.568  1.00  0.00     0.073 C 
HETATM    2  C   UNL     1      43.396 -15.696   5.937  1.00  0.00     0.062 A 
HETATM    3  N   UNL     1      43.512 -16.953   6.397  1.00  0.00    -0.177 NA
HETATM    4  N   UNL     1      42.685 -17.673   5.612  1.00  0.00    -0.256 N 
HETATM    5  H   UNL     1      42.609 -18.672   5.767  1.00  0.00     0.191 HD
HETATM    6  C   UNL     1      42.055 -16.915   4.680  1.00  0.00     0.175 A 
HETATM    7  C   UNL     1      42.481 -15.625   4.858  1.00  0.00     0.034 A 
HETATM    8  C   UNL     1      41.978 -14.545   3.966  1.00  0.00     0.105 A 
HETATM    9  C   UNL     1      41.023 -15.118   2.916  1.00  0.00     0.080 A 
HETATM   10  C   UNL     1      40.523 -14.203   1.945  1.00  0.00     0.100 C 
HETATM   11  N   UNL     1      40.111 -13.460   1.154  1.00  0.00    -0.191 NA
HETATM   12  C   UNL     1      40.692 -16.438   2.860  1.00  0.00     0.140 A 
HETATM   13  O   UNL     1      41.198 -17.376   3.778  1.00  0.00    -0.279 OA
ENDROOT
BRANCH   8  14
HETATM   14  C   UNL     1      41.334 -13.513   4.883  1.00  0.00    -0.044 A 
HETATM   15  C   UNL     1      41.878 -12.222   4.959  1.00  0.00     0.009 A 
HETATM   16  C   UNL     1      41.328 -11.262   5.815  1.00  0.00     0.013 A 
HETATM   17  C   UNL     1      40.213 -11.555   6.616  1.00  0.00    -0.026 A 
HETATM   18  C   UNL     1      39.657 -12.840   6.518  1.00  0.00     0.013 A 
HETATM   19  C   UNL     1      40.205 -13.804   5.665  1.00  0.00     0.009 A 
BRANCH  17  20
HETATM   20  C   UNL     1      39.656 -10.551   7.540  1.00  0.00    -0.026 A 
HETATM   21  C   UNL     1      39.399  -9.235   7.117  1.00  0.00     0.012 A 
HETATM   22  C   UNL     1      38.884  -8.281   8.000  1.00  0.00     0.001 A 
HETATM   23  C   UNL     1      38.616  -8.627   9.322  1.00  0.00     0.000 A 
HETATM   24  C   UNL     1      38.859  -9.925   9.761  1.00  0.00     0.001 A 
HETATM   25  C   UNL     1      39.375 -10.878   8.878  1.00  0.00     0.012 A 
ENDBRANCH  17  20
ENDBRANCH   8  14
BRANCH  12  26
HETATM   26  N   UNL     1      39.851 -17.010   1.931  1.00  0.00    -0.282 NA
HETATM   27  H   UNL     1      38.938 -16.572   1.834  1.00  0.00     0.126 HD
HETATM   28  H   UNL     1      39.801 -18.022   2.032  1.00  0.00     0.126 HD
ENDBRANCH  12  26
TORSDOF 3
ENDMDL
