MODEL 1
REMARK VINA RESULT:      -8.4      0.000      0.000
REMARK  8 active torsions:
REMARK  status: ('A' for Active; 'I' for Inactive)
REMARK    1  A    between atoms: C_2  and  C_3 
REMARK    2  A    between atoms: C_3  and  C_4 
REMARK       I    between atoms: C_4  and  N_5 
REMARK    3  A    between atoms: N_8  and  C_9 
REMARK    4  A    between atoms: C_13  and  N_14 
REMARK    5  A    between atoms: N_14  and  C_15 
REMARK    6  A    between atoms: C_15  and  N_16 
REMARK       I    between atoms: N_16  and  C_17 
REMARK    7  A    between atoms: C_17  and  C_18 
REMARK    8  A    between atoms: C_19  and  O_20 
ROOT
HETATM    1  C   UNL     1      42.285 -15.211   5.517  1.00  0.00     0.052 A 
HETATM    2  C   UNL     1      43.031 -14.063   5.879  1.00  0.00     0.062 A 
HETATM    3 CL   UNL     1      44.742 -14.131   6.178  1.00  0.00    -0.082 Cl
HETATM    4  C   UNL     1      42.412 -12.822   6.120  1.00  0.00     0.055 A 
HETATM    5  C   UNL     1      41.025 -12.715   6.082  1.00  0.00     0.036 A 
HETATM    6  C   UNL     1      40.277 -13.815   5.677  1.00  0.00     0.032 A 
HETATM    7  C   UNL     1      40.897 -15.035   5.391  1.00  0.00     0.033 A 
ENDROOT
BRANCH   5   8
HETATM    8  N   UNL     1      40.427 -11.485   6.419  1.00  0.00    -0.333 N 
HETATM    9  H   UNL     1      39.407 -11.446   6.403  1.00  0.00     0.168 HD
BRANCH   8  10
HETATM   10  C   UNL     1      41.027 -10.251   6.525  1.00  0.00     0.179 C 
HETATM   11  S   UNL     1      41.310  -9.127   5.313  1.00  0.00    -0.040 SA
BRANCH  10  12
HETATM   12  N   UNL     1      41.432  -9.895   7.792  1.00  0.00    -0.299 N 
HETATM   13  C   UNL     1      41.033 -10.412   9.014  1.00  0.00     0.260 C 
HETATM   14  O   UNL     1      39.936 -10.939   9.185  1.00  0.00    -0.267 OA
HETATM   15  H   UNL     1      42.282  -9.342   7.790  1.00  0.00     0.171 HD
BRANCH  13  16
HETATM   16  C   UNL     1      41.998 -10.254  10.154  1.00  0.00     0.065 A 
HETATM   17  C   UNL     1      43.369 -10.573  10.082  1.00  0.00     0.084 A 
HETATM   18  C   UNL     1      44.189 -10.401  11.205  1.00  0.00     0.038 A 
HETATM   19  C   UNL     1      43.649  -9.961  12.412  1.00  0.00     0.003 A 
HETATM   20  C   UNL     1      42.291  -9.671  12.501  1.00  0.00     0.001 A 
HETATM   21  C   UNL     1      41.471  -9.812  11.380  1.00  0.00     0.020 A 
BRANCH  17  22
HETATM   22  O   UNL     1      43.913 -10.975   8.887  1.00  0.00    -0.355 OA
HETATM   23  C   UNL     1      44.951 -11.949   9.033  1.00  0.00     0.210 C 
ENDBRANCH  17  22
ENDBRANCH  13  16
ENDBRANCH  10  12
ENDBRANCH   8  10
ENDBRANCH   5   8
BRANCH   1  24
HETATM   24  N   UNL     1      42.870 -16.477   5.361  1.00  0.00    -0.376 N 
HETATM   25  C   UNL     1      42.899 -17.025   3.988  1.00  0.00     0.143 C 
HETATM   26  C   UNL     1      43.975 -18.129   3.900  1.00  0.00     0.145 C 
HETATM   27  N   UNL     1      43.840 -19.159   4.946  1.00  0.00    -0.349 N 
HETATM   28  C   UNL     1      44.434 -20.417   4.868  1.00  0.00     0.219 C 
HETATM   29  C   UNL     1      43.582 -18.651   6.299  1.00  0.00     0.145 C 
HETATM   30  O   UNL     1      44.461 -21.182   5.835  1.00  0.00    -0.273 OA
HETATM   31  C   UNL     1      42.543 -17.523   6.353  1.00  0.00     0.143 C 
BRANCH  28  32
HETATM   32  C   UNL     1      45.049 -20.811   3.534  1.00  0.00     0.103 C 
BRANCH  32  33
HETATM   33  C   UNL     1      44.390 -22.063   2.952  1.00  0.00     0.005 C 
HETATM   34  C   UNL     1      43.926 -21.841   1.522  1.00  0.00     0.005 C 
ENDBRANCH  32  33
ENDBRANCH  28  32
ENDBRANCH   1  24
TORSDOF 8
ENDMDL
MODEL 2
REMARK VINA RESULT:      -8.0      5.525      8.703
REMARK  8 active torsions:
REMARK  status: ('A' for Active; 'I' for Inactive)
REMARK    1  A    between atoms: C_2  and  C_3 
REMARK    2  A    between atoms: C_3  and  C_4 
REMARK       I    between atoms: C_4  and  N_5 
REMARK    3  A    between atoms: N_8  and  C_9 
REMARK    4  A    between atoms: C_13  and  N_14 
REMARK    5  A    between atoms: N_14  and  C_15 
REMARK    6  A    between atoms: C_15  and  N_16 
REMARK       I    between atoms: N_16  and  C_17 
REMARK    7  A    between atoms: C_17  and  C_18 
REMARK    8  A    between atoms: C_19  and  O_20 
ROOT
HETATM    1  C   UNL     1      41.346 -14.657   1.897  1.00  0.00     0.052 A 
HETATM    2  C   UNL     1      40.991 -15.686   2.804  1.00  0.00     0.062 A 
HETATM    3 CL   UNL     1      39.888 -16.957   2.371  1.00  0.00    -0.082 Cl
HETATM    4  C   UNL     1      41.427 -15.678   4.142  1.00  0.00     0.055 A 
HETATM    5  C   UNL     1      42.166 -14.603   4.629  1.00  0.00     0.036 A 
HETATM    6  C   UNL     1      42.571 -13.610   3.743  1.00  0.00     0.032 A 
HETATM    7  C   UNL     1      42.176 -13.644   2.402  1.00  0.00     0.033 A 
ENDROOT
BRANCH   5   8
HETATM    8  N   UNL     1      42.510 -14.575   5.994  1.00  0.00    -0.333 N 
HETATM    9  H   UNL     1      41.869 -14.091   6.624  1.00  0.00     0.168 HD
BRANCH   8  10
HETATM   10  C   UNL     1      43.720 -14.892   6.570  1.00  0.00     0.179 C 
HETATM   11  S   UNL     1      44.786 -13.877   7.370  1.00  0.00    -0.040 SA
BRANCH  10  12
HETATM   12  N   UNL     1      44.087 -16.217   6.486  1.00  0.00    -0.299 N 
HETATM   13  C   UNL     1      43.321 -17.351   6.702  1.00  0.00     0.260 C 
HETATM   14  O   UNL     1      42.338 -17.358   7.438  1.00  0.00    -0.267 OA
HETATM   15  H   UNL     1      44.964 -16.350   5.994  1.00  0.00     0.171 HD
BRANCH  13  16
HETATM   16  C   UNL     1      43.783 -18.609   6.022  1.00  0.00     0.065 A 
HETATM   17  C   UNL     1      44.088 -18.701   4.648  1.00  0.00     0.084 A 
HETATM   18  C   UNL     1      44.501 -19.923   4.102  1.00  0.00     0.038 A 
HETATM   19  C   UNL     1      44.566 -21.065   4.898  1.00  0.00     0.003 A 
HETATM   20  C   UNL     1      44.240 -20.990   6.249  1.00  0.00     0.001 A 
HETATM   21  C   UNL     1      43.854 -19.771   6.809  1.00  0.00     0.020 A 
BRANCH  17  22
HETATM   22  O   UNL     1      44.057 -17.573   3.867  1.00  0.00    -0.355 OA
HETATM   23  C   UNL     1      44.011 -17.852   2.464  1.00  0.00     0.210 C 
ENDBRANCH  17  22
ENDBRANCH  13  16
ENDBRANCH  10  12
ENDBRANCH   8  10
ENDBRANCH   5   8
BRANCH   1  24
HETATM   24  N   UNL     1      40.848 -14.597   0.586  1.00  0.00    -0.376 N 
HETATM   25  C   UNL     1      39.397 -14.360   0.443  1.00  0.00     0.143 C 
HETATM   26  C   UNL     1      39.101 -13.833  -0.979  1.00  0.00     0.145 C 
HETATM   27  N   UNL     1      39.671 -14.678  -2.044  1.00  0.00    -0.349 N 
HETATM   28  C   UNL     1      39.250 -14.632  -3.371  1.00  0.00     0.219 C 
HETATM   29  C   UNL     1      41.053 -15.123  -1.821  1.00  0.00     0.145 C 
HETATM   30  O   UNL     1      39.869 -15.208  -4.267  1.00  0.00    -0.273 OA
HETATM   31  C   UNL     1      41.331 -15.599  -0.389  1.00  0.00     0.143 C 
BRANCH  28  32
HETATM   32  C   UNL     1      37.986 -13.839  -3.668  1.00  0.00     0.103 C 
BRANCH  32  33
HETATM   33  C   UNL     1      36.802 -14.755  -3.980  1.00  0.00     0.005 C 
HETATM   34  C   UNL     1      35.780 -14.067  -4.870  1.00  0.00     0.005 C 
ENDBRANCH  32  33
ENDBRANCH  28  32
ENDBRANCH   1  24
TORSDOF 8
ENDMDL
MODEL 3
REMARK VINA RESULT:      -8.0      2.648      9.982
REMARK  8 active torsions:
REMARK  status: ('A' for Active; 'I' for Inactive)
REMARK    1  A    between atoms: C_2  and  C_3 
REMARK    2  A    between atoms: C_3  and  C_4 
REMARK       I    between atoms: C_4  and  N_5 
REMARK    3  A    between atoms: N_8  and  C_9 
REMARK    4  A    between atoms: C_13  and  N_14 
REMARK    5  A    between atoms: N_14  and  C_15 
REMARK    6  A    between atoms: C_15  and  N_16 
REMARK       I    between atoms: N_16  and  C_17 
REMARK    7  A    between atoms: C_17  and  C_18 
REMARK    8  A    between atoms: C_19  and  O_20 
ROOT
HETATM    1  C   UNL     1      43.089 -13.657   6.103  1.00  0.00     0.052 A 
HETATM    2  C   UNL     1      43.205 -15.067   6.015  1.00  0.00     0.062 A 
HETATM    3 CL   UNL     1      43.748 -16.033   7.354  1.00  0.00    -0.082 Cl
HETATM    4  C   UNL     1      42.990 -15.754   4.806  1.00  0.00     0.055 A 
HETATM    5  C   UNL     1      42.729 -15.045   3.637  1.00  0.00     0.036 A 
HETATM    6  C   UNL     1      42.557 -13.667   3.711  1.00  0.00     0.032 A 
HETATM    7  C   UNL     1      42.725 -12.990   4.923  1.00  0.00     0.033 A 
ENDROOT
BRANCH   5   8
HETATM    8  N   UNL     1      42.610 -15.751   2.424  1.00  0.00    -0.333 N 
HETATM    9  H   UNL     1      43.082 -15.355   1.609  1.00  0.00     0.168 HD
BRANCH   8  10
HETATM   10  C   UNL     1      41.737 -16.770   2.118  1.00  0.00     0.179 C 
HETATM   11  S   UNL     1      40.100 -16.665   1.769  1.00  0.00    -0.040 SA
BRANCH  10  12
HETATM   12  N   UNL     1      42.288 -18.031   2.081  1.00  0.00    -0.299 N 
HETATM   13  C   UNL     1      43.620 -18.400   1.993  1.00  0.00     0.260 C 
HETATM   14  O   UNL     1      44.474 -17.684   1.476  1.00  0.00    -0.267 OA
HETATM   15  H   UNL     1      41.637 -18.751   2.376  1.00  0.00     0.171 HD
BRANCH  13  16
HETATM   16  C   UNL     1      43.973 -19.761   2.522  1.00  0.00     0.065 A 
HETATM   17  C   UNL     1      44.450 -20.006   3.826  1.00  0.00     0.084 A 
HETATM   18  C   UNL     1      44.764 -21.312   4.225  1.00  0.00     0.038 A 
HETATM   19  C   UNL     1      44.655 -22.369   3.324  1.00  0.00     0.003 A 
HETATM   20  C   UNL     1      44.212 -22.134   2.026  1.00  0.00     0.001 A 
HETATM   21  C   UNL     1      43.870 -20.841   1.627  1.00  0.00     0.020 A 
BRANCH  17  22
HETATM   22  O   UNL     1      44.528 -18.972   4.726  1.00  0.00    -0.355 OA
HETATM   23  C   UNL     1      43.925 -19.271   5.989  1.00  0.00     0.210 C 
ENDBRANCH  17  22
ENDBRANCH  13  16
ENDBRANCH  10  12
ENDBRANCH   8  10
ENDBRANCH   5   8
BRANCH   1  24
HETATM   24  N   UNL     1      43.387 -12.944   7.274  1.00  0.00    -0.376 N 
HETATM   25  C   UNL     1      42.725 -11.633   7.434  1.00  0.00     0.143 C 
HETATM   26  C   UNL     1      42.747 -11.225   8.924  1.00  0.00     0.145 C 
HETATM   27  N   UNL     1      44.091 -11.287   9.525  1.00  0.00    -0.349 N 
HETATM   28  C   UNL     1      44.436 -10.638  10.709  1.00  0.00     0.219 C 
HETATM   29  C   UNL     1      44.872 -12.488   9.198  1.00  0.00     0.145 C 
HETATM   30  O   UNL     1      45.504 -10.860  11.282  1.00  0.00    -0.273 OA
HETATM   31  C   UNL     1      44.796 -12.896   7.721  1.00  0.00     0.143 C 
BRANCH  28  32
HETATM   32  C   UNL     1      43.435  -9.637  11.265  1.00  0.00     0.103 C 
BRANCH  32  33
HETATM   33  C   UNL     1      42.882 -10.079  12.620  1.00  0.00     0.005 C 
HETATM   34  C   UNL     1      43.351  -9.168  13.743  1.00  0.00     0.005 C 
ENDBRANCH  32  33
ENDBRANCH  28  32
ENDBRANCH   1  24
TORSDOF 8
ENDMDL
MODEL 4
REMARK VINA RESULT:      -7.9      6.007      8.844
REMARK  8 active torsions:
REMARK  status: ('A' for Active; 'I' for Inactive)
REMARK    1  A    between atoms: C_2  and  C_3 
REMARK    2  A    between atoms: C_3  and  C_4 
REMARK       I    between atoms: C_4  and  N_5 
REMARK    3  A    between atoms: N_8  and  C_9 
REMARK    4  A    between atoms: C_13  and  N_14 
REMARK    5  A    between atoms: N_14  and  C_15 
REMARK    6  A    between atoms: C_15  and  N_16 
REMARK       I    between atoms: N_16  and  C_17 
REMARK    7  A    between atoms: C_17  and  C_18 
REMARK    8  A    between atoms: C_19  and  O_20 
ROOT
HETATM    1  C   UNL     1      40.961 -15.440   2.497  1.00  0.00     0.052 A 
HETATM    2  C   UNL     1      41.316 -14.070   2.540  1.00  0.00     0.062 A 
HETATM    3 CL   UNL     1      42.864 -13.536   3.125  1.00  0.00    -0.082 Cl
HETATM    4  C   UNL     1      40.399 -13.055   2.211  1.00  0.00     0.055 A 
HETATM    5  C   UNL     1      39.080 -13.379   1.905  1.00  0.00     0.036 A 
HETATM    6  C   UNL     1      38.723 -14.720   1.806  1.00  0.00     0.032 A 
HETATM    7  C   UNL     1      39.649 -15.728   2.087  1.00  0.00     0.033 A 
ENDROOT
BRANCH   5   8
HETATM    8  N   UNL     1      38.159 -12.339   1.671  1.00  0.00    -0.333 N 
HETATM    9  H   UNL     1      37.957 -11.714   2.453  1.00  0.00     0.168 HD
BRANCH   8  10
HETATM   10  C   UNL     1      37.297 -12.194   0.608  1.00  0.00     0.179 C 
HETATM   11  S   UNL     1      35.868 -11.320   0.543  1.00  0.00    -0.040 SA
BRANCH  10  12
HETATM   12  N   UNL     1      37.669 -12.840  -0.549  1.00  0.00    -0.299 N 
HETATM   13  C   UNL     1      38.847 -12.732  -1.269  1.00  0.00     0.260 C 
HETATM   14  O   UNL     1      39.547 -11.723  -1.251  1.00  0.00    -0.267 OA
HETATM   15  H   UNL     1      37.085 -13.643  -0.754  1.00  0.00     0.171 HD
BRANCH  13  16
HETATM   16  C   UNL     1      39.215 -13.908  -2.130  1.00  0.00     0.065 A 
HETATM   17  C   UNL     1      38.427 -14.387  -3.196  1.00  0.00     0.084 A 
HETATM   18  C   UNL     1      38.850 -15.500  -3.936  1.00  0.00     0.038 A 
HETATM   19  C   UNL     1      40.023 -16.169  -3.594  1.00  0.00     0.003 A 
HETATM   20  C   UNL     1      40.793 -15.721  -2.524  1.00  0.00     0.001 A 
HETATM   21  C   UNL     1      40.395 -14.596  -1.799  1.00  0.00     0.020 A 
BRANCH  17  22
HETATM   22  O   UNL     1      37.288 -13.712  -3.558  1.00  0.00    -0.355 OA
HETATM   23  C   UNL     1      36.420 -14.471  -4.405  1.00  0.00     0.210 C 
ENDBRANCH  17  22
ENDBRANCH  13  16
ENDBRANCH  10  12
ENDBRANCH   8  10
ENDBRANCH   5   8
BRANCH   1  24
HETATM   24  N   UNL     1      41.830 -16.462   2.908  1.00  0.00    -0.376 N 
HETATM   25  C   UNL     1      42.059 -17.560   1.946  1.00  0.00     0.143 C 
HETATM   26  C   UNL     1      43.364 -18.300   2.312  1.00  0.00     0.145 C 
HETATM   27  N   UNL     1      43.416 -18.728   3.721  1.00  0.00    -0.349 N 
HETATM   28  C   UNL     1      44.288 -19.704   4.198  1.00  0.00     0.219 C 
HETATM   29  C   UNL     1      42.976 -17.724   4.699  1.00  0.00     0.145 C 
HETATM   30  O   UNL     1      44.440 -19.904   5.404  1.00  0.00    -0.273 OA
HETATM   31  C   UNL     1      41.703 -16.973   4.290  1.00  0.00     0.143 C 
BRANCH  28  32
HETATM   32  C   UNL     1      45.047 -20.518   3.161  1.00  0.00     0.103 C 
BRANCH  32  33
HETATM   33  C   UNL     1      44.353 -21.848   2.864  1.00  0.00     0.005 C 
HETATM   34  C   UNL     1      43.950 -21.958   1.403  1.00  0.00     0.005 C 
ENDBRANCH  32  33
ENDBRANCH  28  32
ENDBRANCH   1  24
TORSDOF 8
ENDMDL
MODEL 5
REMARK VINA RESULT:      -7.9      7.660     11.316
REMARK  8 active torsions:
REMARK  status: ('A' for Active; 'I' for Inactive)
REMARK    1  A    between atoms: C_2  and  C_3 
REMARK    2  A    between atoms: C_3  and  C_4 
REMARK       I    between atoms: C_4  and  N_5 
REMARK    3  A    between atoms: N_8  and  C_9 
REMARK    4  A    between atoms: C_13  and  N_14 
REMARK    5  A    between atoms: N_14  and  C_15 
REMARK    6  A    between atoms: C_15  and  N_16 
REMARK       I    between atoms: N_16  and  C_17 
REMARK    7  A    between atoms: C_17  and  C_18 
REMARK    8  A    between atoms: C_19  and  O_20 
ROOT
HETATM    1  C   UNL     1      39.419 -14.161  -1.377  1.00  0.00     0.052 A 
HETATM    2  C   UNL     1      40.767 -14.508  -1.641  1.00  0.00     0.062 A 
HETATM    3 CL   UNL     1      41.357 -14.749  -3.258  1.00  0.00    -0.082 Cl
HETATM    4  C   UNL     1      41.679 -14.782  -0.605  1.00  0.00     0.055 A 
HETATM    5  C   UNL     1      41.250 -14.791   0.719  1.00  0.00     0.036 A 
HETATM    6  C   UNL     1      39.945 -14.401   1.005  1.00  0.00     0.032 A 
HETATM    7  C   UNL     1      39.053 -14.084  -0.023  1.00  0.00     0.033 A 
ENDROOT
BRANCH   5   8
HETATM    8  N   UNL     1      42.160 -15.159   1.728  1.00  0.00    -0.333 N 
HETATM    9  H   UNL     1      43.151 -15.007   1.537  1.00  0.00     0.168 HD
BRANCH   8  10
HETATM   10  C   UNL     1      41.923 -15.932   2.842  1.00  0.00     0.179 C 
HETATM   11  S   UNL     1      41.272 -15.461   4.314  1.00  0.00    -0.040 SA
BRANCH  10  12
HETATM   12  N   UNL     1      42.252 -17.264   2.721  1.00  0.00    -0.299 N 
HETATM   13  C   UNL     1      43.338 -17.840   2.082  1.00  0.00     0.260 C 
HETATM   14  O   UNL     1      43.919 -17.300   1.144  1.00  0.00    -0.267 OA
HETATM   15  H   UNL     1      41.744 -17.853   3.372  1.00  0.00     0.171 HD
BRANCH  13  16
HETATM   16  C   UNL     1      43.750 -19.203   2.562  1.00  0.00     0.065 A 
HETATM   17  C   UNL     1      44.305 -19.462   3.832  1.00  0.00     0.084 A 
HETATM   18  C   UNL     1      44.669 -20.768   4.185  1.00  0.00     0.038 A 
HETATM   19  C   UNL     1      44.532 -21.810   3.270  1.00  0.00     0.003 A 
HETATM   20  C   UNL     1      44.012 -21.560   2.004  1.00  0.00     0.001 A 
HETATM   21  C   UNL     1      43.620 -20.267   1.652  1.00  0.00     0.020 A 
BRANCH  17  22
HETATM   22  O   UNL     1      44.411 -18.445   4.748  1.00  0.00    -0.355 OA
HETATM   23  C   UNL     1      43.542 -18.600   5.874  1.00  0.00     0.210 C 
ENDBRANCH  17  22
ENDBRANCH  13  16
ENDBRANCH  10  12
ENDBRANCH   8  10
ENDBRANCH   5   8
BRANCH   1  24
HETATM   24  N   UNL     1      38.471 -13.973  -2.394  1.00  0.00    -0.376 N 
HETATM   25  C   UNL     1      37.537 -12.841  -2.224  1.00  0.00     0.143 C 
HETATM   26  C   UNL     1      36.926 -12.470  -3.593  1.00  0.00     0.145 C 
HETATM   27  N   UNL     1      36.338 -13.621  -4.300  1.00  0.00    -0.349 N 
HETATM   28  C   UNL     1      35.427 -13.498  -5.347  1.00  0.00     0.219 C 
HETATM   29  C   UNL     1      37.151 -14.845  -4.294  1.00  0.00     0.145 C 
HETATM   30  O   UNL     1      35.100 -14.465  -6.039  1.00  0.00    -0.273 OA
HETATM   31  C   UNL     1      37.782 -15.166  -2.933  1.00  0.00     0.143 C 
BRANCH  28  32
HETATM   32  C   UNL     1      34.847 -12.115  -5.600  1.00  0.00     0.103 C 
BRANCH  32  33
HETATM   33  C   UNL     1      33.392 -12.016  -5.139  1.00  0.00     0.005 C 
HETATM   34  C   UNL     1      33.287 -11.468  -3.726  1.00  0.00     0.005 C 
ENDBRANCH  32  33
ENDBRANCH  28  32
ENDBRANCH   1  24
TORSDOF 8
ENDMDL
MODEL 6
REMARK VINA RESULT:      -7.8      0.943      1.892
REMARK  8 active torsions:
REMARK  status: ('A' for Active; 'I' for Inactive)
REMARK    1  A    between atoms: C_2  and  C_3 
REMARK    2  A    between atoms: C_3  and  C_4 
REMARK       I    between atoms: C_4  and  N_5 
REMARK    3  A    between atoms: N_8  and  C_9 
REMARK    4  A    between atoms: C_13  and  N_14 
REMARK    5  A    between atoms: N_14  and  C_15 
REMARK    6  A    between atoms: C_15  and  N_16 
REMARK       I    between atoms: N_16  and  C_17 
REMARK    7  A    between atoms: C_17  and  C_18 
REMARK    8  A    between atoms: C_19  and  O_20 
ROOT
HETATM    1  C   UNL     1      41.989 -14.986   5.183  1.00  0.00     0.052 A 
HETATM    2  C   UNL     1      42.559 -13.773   4.725  1.00  0.00     0.062 A 
HETATM    3 CL   UNL     1      44.112 -13.719   3.945  1.00  0.00    -0.082 Cl
HETATM    4  C   UNL     1      41.949 -12.528   4.969  1.00  0.00     0.055 A 
HETATM    5  C   UNL     1      40.795 -12.457   5.744  1.00  0.00     0.036 A 
HETATM    6  C   UNL     1      40.190 -13.639   6.158  1.00  0.00     0.032 A 
HETATM    7  C   UNL     1      40.772 -14.878   5.874  1.00  0.00     0.033 A 
ENDROOT
BRANCH   5   8
HETATM    8  N   UNL     1      40.257 -11.192   6.051  1.00  0.00    -0.333 N 
HETATM    9  H   UNL     1      39.436 -10.896   5.522  1.00  0.00     0.168 HD
BRANCH   8  10
HETATM   10  C   UNL     1      40.832 -10.184   6.792  1.00  0.00     0.179 C 
HETATM   11  S   UNL     1      41.243  -8.636   6.296  1.00  0.00    -0.040 SA
BRANCH  10  12
HETATM   12  N   UNL     1      41.087 -10.488   8.111  1.00  0.00    -0.299 N 
HETATM   13  C   UNL     1      42.296 -10.772   8.723  1.00  0.00     0.260 C 
HETATM   14  O   UNL     1      43.254 -11.245   8.115  1.00  0.00    -0.267 OA
HETATM   15  H   UNL     1      40.313 -10.254   8.723  1.00  0.00     0.171 HD
BRANCH  13  16
HETATM   16  C   UNL     1      42.372 -10.519  10.202  1.00  0.00     0.065 A 
HETATM   17  C   UNL     1      41.248 -10.399  11.045  1.00  0.00     0.084 A 
HETATM   18  C   UNL     1      41.420 -10.151  12.413  1.00  0.00     0.038 A 
HETATM   19  C   UNL     1      42.697  -9.972  12.942  1.00  0.00     0.003 A 
HETATM   20  C   UNL     1      43.812 -10.060  12.113  1.00  0.00     0.001 A 
HETATM   21  C   UNL     1      43.652 -10.335  10.753  1.00  0.00     0.020 A 
BRANCH  17  22
HETATM   22  O   UNL     1      39.990 -10.607  10.535  1.00  0.00    -0.355 OA
HETATM   23  C   UNL     1      39.023  -9.662  11.003  1.00  0.00     0.210 C 
ENDBRANCH  17  22
ENDBRANCH  13  16
ENDBRANCH  10  12
ENDBRANCH   8  10
ENDBRANCH   5   8
BRANCH   1  24
HETATM   24  N   UNL     1      42.625 -16.227   5.030  1.00  0.00    -0.376 N 
HETATM   25  C   UNL     1      42.589 -16.825   3.679  1.00  0.00     0.143 C 
HETATM   26  C   UNL     1      43.711 -17.879   3.554  1.00  0.00     0.145 C 
HETATM   27  N   UNL     1      43.700 -18.874   4.641  1.00  0.00    -0.349 N 
HETATM   28  C   UNL     1      44.349 -20.104   4.566  1.00  0.00     0.219 C 
HETATM   29  C   UNL     1      43.509 -18.327   5.991  1.00  0.00     0.145 C 
HETATM   30  O   UNL     1      44.480 -20.829   5.554  1.00  0.00    -0.273 OA
HETATM   31  C   UNL     1      42.420 -17.250   6.078  1.00  0.00     0.143 C 
BRANCH  28  32
HETATM   32  C   UNL     1      44.891 -20.518   3.206  1.00  0.00     0.103 C 
BRANCH  32  33
HETATM   33  C   UNL     1      44.417 -21.916   2.808  1.00  0.00     0.005 C 
HETATM   34  C   UNL     1      43.946 -21.960   1.364  1.00  0.00     0.005 C 
ENDBRANCH  32  33
ENDBRANCH  28  32
ENDBRANCH   1  24
TORSDOF 8
ENDMDL
MODEL 7
REMARK VINA RESULT:      -7.6      2.892     10.120
REMARK  8 active torsions:
REMARK  status: ('A' for Active; 'I' for Inactive)
REMARK    1  A    between atoms: C_2  and  C_3 
REMARK    2  A    between atoms: C_3  and  C_4 
REMARK       I    between atoms: C_4  and  N_5 
REMARK    3  A    between atoms: N_8  and  C_9 
REMARK    4  A    between atoms: C_13  and  N_14 
REMARK    5  A    between atoms: N_14  and  C_15 
REMARK    6  A    between atoms: C_15  and  N_16 
REMARK       I    between atoms: N_16  and  C_17 
REMARK    7  A    between atoms: C_17  and  C_18 
REMARK    8  A    between atoms: C_19  and  O_20 
ROOT
HETATM    1  C   UNL     1      40.684 -13.693   5.432  1.00  0.00     0.052 A 
HETATM    2  C   UNL     1      40.182 -13.502   4.121  1.00  0.00     0.062 A 
HETATM    3 CL   UNL     1      39.405 -12.025   3.637  1.00  0.00    -0.082 Cl
HETATM    4  C   UNL     1      40.189 -14.537   3.167  1.00  0.00     0.055 A 
HETATM    5  C   UNL     1      40.626 -15.810   3.521  1.00  0.00     0.036 A 
HETATM    6  C   UNL     1      41.172 -16.006   4.785  1.00  0.00     0.032 A 
HETATM    7  C   UNL     1      41.208 -14.964   5.717  1.00  0.00     0.033 A 
ENDROOT
BRANCH   5   8
HETATM    8  N   UNL     1      40.534 -16.850   2.575  1.00  0.00    -0.333 N 
HETATM    9  H   UNL     1      39.932 -17.639   2.811  1.00  0.00     0.168 HD
BRANCH   8  10
HETATM   10  C   UNL     1      41.340 -17.074   1.482  1.00  0.00     0.179 C 
HETATM   11  S   UNL     1      41.374 -16.240   0.028  1.00  0.00    -0.040 SA
BRANCH  10  12
HETATM   12  N   UNL     1      42.240 -18.109   1.611  1.00  0.00    -0.299 N 
HETATM   13  C   UNL     1      43.307 -18.234   2.484  1.00  0.00     0.260 C 
HETATM   14  O   UNL     1      43.895 -17.264   2.958  1.00  0.00    -0.267 OA
HETATM   15  H   UNL     1      41.928 -18.958   1.153  1.00  0.00     0.171 HD
BRANCH  13  16
HETATM   16  C   UNL     1      43.757 -19.633   2.795  1.00  0.00     0.065 A 
HETATM   17  C   UNL     1      44.410 -20.010   3.986  1.00  0.00     0.084 A 
HETATM   18  C   UNL     1      44.802 -21.341   4.181  1.00  0.00     0.038 A 
HETATM   19  C   UNL     1      44.594 -22.290   3.182  1.00  0.00     0.003 A 
HETATM   20  C   UNL     1      43.976 -21.922   1.991  1.00  0.00     0.001 A 
HETATM   21  C   UNL     1      43.557 -20.604   1.799  1.00  0.00     0.020 A 
BRANCH  17  22
HETATM   22  O   UNL     1      44.587 -19.086   4.987  1.00  0.00    -0.355 OA
HETATM   23  C   UNL     1      43.815 -19.362   6.160  1.00  0.00     0.210 C 
ENDBRANCH  17  22
ENDBRANCH  13  16
ENDBRANCH  10  12
ENDBRANCH   8  10
ENDBRANCH   5   8
BRANCH   1  24
HETATM   24  N   UNL     1      40.605 -12.705   6.425  1.00  0.00    -0.376 N 
HETATM   25  C   UNL     1      39.252 -12.381   6.926  1.00  0.00     0.143 C 
HETATM   26  C   UNL     1      39.366 -11.689   8.301  1.00  0.00     0.145 C 
HETATM   27  N   UNL     1      40.288 -10.539   8.300  1.00  0.00    -0.349 N 
HETATM   28  C   UNL     1      40.287  -9.550   9.282  1.00  0.00     0.219 C 
HETATM   29  C   UNL     1      41.564 -10.756   7.606  1.00  0.00     0.145 C 
HETATM   30  O   UNL     1      41.186  -8.711   9.357  1.00  0.00    -0.273 OA
HETATM   31  C   UNL     1      41.427 -11.486   6.264  1.00  0.00     0.143 C 
BRANCH  28  32
HETATM   32  C   UNL     1      39.123  -9.549  10.260  1.00  0.00     0.103 C 
BRANCH  32  33
HETATM   33  C   UNL     1      39.590  -9.774  11.699  1.00  0.00     0.005 C 
HETATM   34  C   UNL     1      40.335 -11.090  11.849  1.00  0.00     0.005 C 
ENDBRANCH  32  33
ENDBRANCH  28  32
ENDBRANCH   1  24
TORSDOF 8
ENDMDL
MODEL 8
REMARK VINA RESULT:      -7.5      1.640      2.063
REMARK  8 active torsions:
REMARK  status: ('A' for Active; 'I' for Inactive)
REMARK    1  A    between atoms: C_2  and  C_3 
REMARK    2  A    between atoms: C_3  and  C_4 
REMARK       I    between atoms: C_4  and  N_5 
REMARK    3  A    between atoms: N_8  and  C_9 
REMARK    4  A    between atoms: C_13  and  N_14 
REMARK    5  A    between atoms: N_14  and  C_15 
REMARK    6  A    between atoms: C_15  and  N_16 
REMARK       I    between atoms: N_16  and  C_17 
REMARK    7  A    between atoms: C_17  and  C_18 
REMARK    8  A    between atoms: C_19  and  O_20 
ROOT
HETATM    1  C   UNL     1      42.121 -15.179   4.720  1.00  0.00     0.052 A 
HETATM    2  C   UNL     1      41.069 -15.055   5.662  1.00  0.00     0.062 A 
HETATM    3 CL   UNL     1      40.230 -16.439   6.295  1.00  0.00    -0.082 Cl
HETATM    4  C   UNL     1      40.574 -13.799   6.058  1.00  0.00     0.055 A 
HETATM    5  C   UNL     1      41.062 -12.637   5.466  1.00  0.00     0.036 A 
HETATM    6  C   UNL     1      42.130 -12.733   4.580  1.00  0.00     0.032 A 
HETATM    7  C   UNL     1      42.653 -13.979   4.223  1.00  0.00     0.033 A 
ENDROOT
BRANCH   5   8
HETATM    8  N   UNL     1      40.484 -11.400   5.812  1.00  0.00    -0.333 N 
HETATM    9  H   UNL     1      39.466 -11.340   5.779  1.00  0.00     0.168 HD
BRANCH   8  10
HETATM   10  C   UNL     1      41.109 -10.181   5.947  1.00  0.00     0.179 C 
HETATM   11  S   UNL     1      41.230  -8.946   4.820  1.00  0.00    -0.040 SA
BRANCH  10  12
HETATM   12  N   UNL     1      41.694  -9.947   7.172  1.00  0.00    -0.299 N 
HETATM   13  C   UNL     1      41.346 -10.447   8.416  1.00  0.00     0.260 C 
HETATM   14  O   UNL     1      40.203 -10.803   8.693  1.00  0.00    -0.267 OA
HETATM   15  H   UNL     1      42.617  -9.534   7.092  1.00  0.00     0.171 HD
BRANCH  13  16
HETATM   16  C   UNL     1      42.437 -10.491   9.448  1.00  0.00     0.065 A 
HETATM   17  C   UNL     1      43.635 -11.220   9.305  1.00  0.00     0.084 A 
HETATM   18  C   UNL     1      44.591 -11.207  10.330  1.00  0.00     0.038 A 
HETATM   19  C   UNL     1      44.344 -10.516  11.515  1.00  0.00     0.003 A 
HETATM   20  C   UNL     1      43.152  -9.816  11.677  1.00  0.00     0.001 A 
HETATM   21  C   UNL     1      42.207  -9.800  10.650  1.00  0.00     0.020 A 
BRANCH  17  22
HETATM   22  O   UNL     1      43.897 -11.875   8.127  1.00  0.00    -0.355 OA
HETATM   23  C   UNL     1      44.713 -13.039   8.292  1.00  0.00     0.210 C 
ENDBRANCH  17  22
ENDBRANCH  13  16
ENDBRANCH  10  12
ENDBRANCH   8  10
ENDBRANCH   5   8
BRANCH   1  24
HETATM   24  N   UNL     1      42.568 -16.421   4.244  1.00  0.00    -0.376 N 
HETATM   25  C   UNL     1      43.949 -16.806   4.602  1.00  0.00     0.143 C 
HETATM   26  C   UNL     1      44.110 -18.335   4.453  1.00  0.00     0.145 C 
HETATM   27  N   UNL     1      43.677 -18.841   3.139  1.00  0.00    -0.349 N 
HETATM   28  C   UNL     1      44.051 -20.083   2.631  1.00  0.00     0.219 C 
HETATM   29  C   UNL     1      42.404 -18.300   2.645  1.00  0.00     0.145 C 
HETATM   30  O   UNL     1      43.525 -20.555   1.621  1.00  0.00    -0.273 OA
HETATM   31  C   UNL     1      42.251 -16.787   2.846  1.00  0.00     0.143 C 
BRANCH  28  32
HETATM   32  C   UNL     1      45.143 -20.835   3.376  1.00  0.00     0.103 C 
BRANCH  32  33
HETATM   33  C   UNL     1      44.630 -22.155   3.955  1.00  0.00     0.005 C 
HETATM   34  C   UNL     1      44.569 -22.117   5.473  1.00  0.00     0.005 C 
ENDBRANCH  32  33
ENDBRANCH  28  32
ENDBRANCH   1  24
TORSDOF 8
ENDMDL
MODEL 9
REMARK VINA RESULT:      -7.5      7.532     11.283
REMARK  8 active torsions:
REMARK  status: ('A' for Active; 'I' for Inactive)
REMARK    1  A    between atoms: C_2  and  C_3 
REMARK    2  A    between atoms: C_3  and  C_4 
REMARK       I    between atoms: C_4  and  N_5 
REMARK    3  A    between atoms: N_8  and  C_9 
REMARK    4  A    between atoms: C_13  and  N_14 
REMARK    5  A    between atoms: N_14  and  C_15 
REMARK    6  A    between atoms: C_15  and  N_16 
REMARK       I    between atoms: N_16  and  C_17 
REMARK    7  A    between atoms: C_17  and  C_18 
REMARK    8  A    between atoms: C_19  and  O_20 
ROOT
HETATM    1  C   UNL     1      39.468 -14.357  -0.895  1.00  0.00     0.052 A 
HETATM    2  C   UNL     1      39.134 -14.392   0.482  1.00  0.00     0.062 A 
HETATM    3 CL   UNL     1      37.595 -13.840   1.071  1.00  0.00    -0.082 Cl
HETATM    4  C   UNL     1      40.068 -14.775   1.462  1.00  0.00     0.055 A 
HETATM    5  C   UNL     1      41.382 -15.059   1.101  1.00  0.00     0.036 A 
HETATM    6  C   UNL     1      41.718 -15.083  -0.249  1.00  0.00     0.032 A 
HETATM    7  C   UNL     1      40.776 -14.747  -1.226  1.00  0.00     0.033 A 
ENDROOT
BRANCH   5   8
HETATM    8  N   UNL     1      42.319 -15.349   2.112  1.00  0.00    -0.333 N 
HETATM    9  H   UNL     1      43.286 -15.071   1.940  1.00  0.00     0.168 HD
BRANCH   8  10
HETATM   10  C   UNL     1      42.166 -16.183   3.196  1.00  0.00     0.179 C 
HETATM   11  S   UNL     1      41.664 -15.788   4.746  1.00  0.00    -0.040 SA
BRANCH  10  12
HETATM   12  N   UNL     1      42.449 -17.511   2.968  1.00  0.00    -0.299 N 
HETATM   13  C   UNL     1      43.533 -18.073   2.313  1.00  0.00     0.260 C 
HETATM   14  O   UNL     1      44.167 -17.477   1.445  1.00  0.00    -0.267 OA
HETATM   15  H   UNL     1      41.898 -18.134   3.547  1.00  0.00     0.171 HD
BRANCH  13  16
HETATM   16  C   UNL     1      43.878 -19.488   2.683  1.00  0.00     0.065 A 
HETATM   17  C   UNL     1      44.466 -19.867   3.906  1.00  0.00     0.084 A 
HETATM   18  C   UNL     1      44.761 -21.213   4.156  1.00  0.00     0.038 A 
HETATM   19  C   UNL     1      44.522 -22.179   3.181  1.00  0.00     0.003 A 
HETATM   20  C   UNL     1      43.967 -21.812   1.958  1.00  0.00     0.001 A 
HETATM   21  C   UNL     1      43.644 -20.476   1.712  1.00  0.00     0.020 A 
BRANCH  17  22
HETATM   22  O   UNL     1      44.674 -18.923   4.883  1.00  0.00    -0.355 OA
HETATM   23  C   UNL     1      43.825 -19.087   6.023  1.00  0.00     0.210 C 
ENDBRANCH  17  22
ENDBRANCH  13  16
ENDBRANCH  10  12
ENDBRANCH   8  10
ENDBRANCH   5   8
BRANCH   1  24
HETATM   24  N   UNL     1      38.582 -13.891  -1.878  1.00  0.00    -0.376 N 
HETATM   25  C   UNL     1      38.502 -14.685  -3.122  1.00  0.00     0.143 C 
HETATM   26  C   UNL     1      37.182 -14.359  -3.854  1.00  0.00     0.145 C 
HETATM   27  N   UNL     1      36.970 -12.915  -4.059  1.00  0.00    -0.349 N 
HETATM   28  C   UNL     1      36.072 -12.393  -4.987  1.00  0.00     0.219 C 
HETATM   29  C   UNL     1      37.261 -12.066  -2.896  1.00  0.00     0.145 C 
HETATM   30  O   UNL     1      35.780 -11.195  -5.004  1.00  0.00    -0.273 OA
HETATM   31  C   UNL     1      38.555 -12.440  -2.161  1.00  0.00     0.143 C 
BRANCH  28  32
HETATM   32  C   UNL     1      35.466 -13.366  -5.987  1.00  0.00     0.103 C 
BRANCH  32  33
HETATM   33  C   UNL     1      34.460 -12.678  -6.911  1.00  0.00     0.005 C 
HETATM   34  C   UNL     1      34.716 -13.016  -8.370  1.00  0.00     0.005 C 
ENDBRANCH  32  33
ENDBRANCH  28  32
ENDBRANCH   1  24
TORSDOF 8
ENDMDL
MODEL 10
REMARK VINA RESULT:      -7.5      6.289     10.364
REMARK  8 active torsions:
REMARK  status: ('A' for Active; 'I' for Inactive)
REMARK    1  A    between atoms: C_2  and  C_3 
REMARK    2  A    between atoms: C_3  and  C_4 
REMARK       I    between atoms: C_4  and  N_5 
REMARK    3  A    between atoms: N_8  and  C_9 
REMARK    4  A    between atoms: C_13  and  N_14 
REMARK    5  A    between atoms: N_14  and  C_15 
REMARK    6  A    between atoms: C_15  and  N_16 
REMARK       I    between atoms: N_16  and  C_17 
REMARK    7  A    between atoms: C_17  and  C_18 
REMARK    8  A    between atoms: C_19  and  O_20 
ROOT
HETATM    1  C   UNL     1      41.381 -13.581   1.014  1.00  0.00     0.052 A 
HETATM    2  C   UNL     1      40.202 -14.354   1.157  1.00  0.00     0.062 A 
HETATM    3 CL   UNL     1      38.868 -14.216   0.051  1.00  0.00    -0.082 Cl
HETATM    4  C   UNL     1      40.000 -15.199   2.264  1.00  0.00     0.055 A 
HETATM    5  C   UNL     1      40.935 -15.236   3.294  1.00  0.00     0.036 A 
HETATM    6  C   UNL     1      42.123 -14.528   3.149  1.00  0.00     0.032 A 
HETATM    7  C   UNL     1      42.343 -13.724   2.026  1.00  0.00     0.033 A 
ENDROOT
BRANCH   5   8
HETATM    8  N   UNL     1      40.664 -16.019   4.433  1.00  0.00    -0.333 N 
HETATM    9  H   UNL     1      39.815 -15.799   4.955  1.00  0.00     0.168 HD
BRANCH   8  10
HETATM   10  C   UNL     1      41.513 -16.880   5.091  1.00  0.00     0.179 C 
HETATM   11  S   UNL     1      42.045 -16.801   6.679  1.00  0.00    -0.040 SA
BRANCH  10  12
HETATM   12  N   UNL     1      41.969 -17.947   4.349  1.00  0.00    -0.299 N 
HETATM   13  C   UNL     1      43.166 -18.088   3.667  1.00  0.00     0.260 C 
HETATM   14  O   UNL     1      43.803 -17.129   3.237  1.00  0.00    -0.267 OA
HETATM   15  H   UNL     1      41.443 -18.796   4.521  1.00  0.00     0.171 HD
BRANCH  13  16
HETATM   16  C   UNL     1      43.638 -19.494   3.428  1.00  0.00     0.065 A 
HETATM   17  C   UNL     1      44.331 -20.270   4.380  1.00  0.00     0.084 A 
HETATM   18  C   UNL     1      44.740 -21.572   4.060  1.00  0.00     0.038 A 
HETATM   19  C   UNL     1      44.511 -22.089   2.787  1.00  0.00     0.003 A 
HETATM   20  C   UNL     1      43.853 -21.321   1.831  1.00  0.00     0.001 A 
HETATM   21  C   UNL     1      43.416 -20.034   2.150  1.00  0.00     0.020 A 
BRANCH  17  22
HETATM   22  O   UNL     1      44.531 -19.777   5.645  1.00  0.00    -0.355 OA
HETATM   23  C   UNL     1      43.856 -20.525   6.661  1.00  0.00     0.210 C 
ENDBRANCH  17  22
ENDBRANCH  13  16
ENDBRANCH  10  12
ENDBRANCH   8  10
ENDBRANCH   5   8
BRANCH   1  24
HETATM   24  N   UNL     1      41.563 -12.664  -0.033  1.00  0.00    -0.376 N 
HETATM   25  C   UNL     1      42.115 -13.204  -1.293  1.00  0.00     0.143 C 
HETATM   26  C   UNL     1      41.791 -12.235  -2.451  1.00  0.00     0.145 C 
HETATM   27  N   UNL     1      42.193 -10.844  -2.177  1.00  0.00    -0.349 N 
HETATM   28  C   UNL     1      42.348  -9.877  -3.168  1.00  0.00     0.219 C 
HETATM   29  C   UNL     1      41.857 -10.345  -0.837  1.00  0.00     0.145 C 
HETATM   30  O   UNL     1      42.499  -8.685  -2.893  1.00  0.00    -0.273 OA
HETATM   31  C   UNL     1      42.147 -11.345   0.290  1.00  0.00     0.143 C 
BRANCH  28  32
HETATM   32  C   UNL     1      42.323 -10.357  -4.612  1.00  0.00     0.103 C 
BRANCH  32  33
HETATM   33  C   UNL     1      42.530  -9.205  -5.596  1.00  0.00     0.005 C 
HETATM   34  C   UNL     1      41.434  -9.161  -6.648  1.00  0.00     0.005 C 
ENDBRANCH  32  33
ENDBRANCH  28  32
ENDBRANCH   1  24
TORSDOF 8
ENDMDL
