MODEL 1
REMARK VINA RESULT:      -9.3      0.000      0.000
REMARK  5 active torsions:
REMARK  status: ('A' for Active; 'I' for Inactive)
REMARK    1  A    between atoms: C_2  and  C_3 
REMARK    2  A    between atoms: C_8  and  C_9 
REMARK       I    between atoms: C_9  and  N_10 
REMARK    3  A    between atoms: N_10  and  C_11 
REMARK    4  A    between atoms: C_11  and  C_12 
REMARK    5  A    between atoms: C_19  and  C_20 
ROOT
HETATM    1  C   UNL     1      42.935 -17.339   5.022  1.00  0.00     0.118 C 
HETATM    2  N   UNL     1      44.148 -16.789   5.634  1.00  0.00    -0.366 N 
HETATM    3  C   UNL     1      44.093 -15.554   6.171  1.00  0.00     0.123 A 
HETATM    4  N   UNL     1      43.323 -14.597   5.585  1.00  0.00    -0.240 N 
HETATM    5  N   UNL     1      43.284 -13.432   6.251  1.00  0.00    -0.165 NA
HETATM    6  C   UNL     1      44.159 -13.627   7.266  1.00  0.00     0.148 A 
HETATM    7  C   UNL     1      44.698 -14.947   7.239  1.00  0.00     0.088 A 
HETATM    8  C   UNL     1      42.578 -14.832   4.369  1.00  0.00     0.221 C 
HETATM    9  C   UNL     1      42.048 -16.278   4.330  1.00  0.00     0.066 C 
HETATM   10  H   UNL     1      44.694 -17.499   6.126  1.00  0.00     0.161 HD
ENDROOT
BRANCH   6  11
HETATM   11  C   UNL     1      44.470 -12.575   8.248  1.00  0.00     0.272 C 
HETATM   12  N   UNL     1      43.350 -11.961   8.763  1.00  0.00    -0.353 N 
HETATM   13  H   UNL     1      42.480 -12.186   8.288  1.00  0.00     0.162 HD
HETATM   14  O   UNL     1      45.616 -12.266   8.559  1.00  0.00    -0.266 OA
BRANCH  12  15
HETATM   15  C   UNL     1      43.424 -10.772   9.585  1.00  0.00     0.155 C 
BRANCH  15  16
HETATM   16  C   UNL     1      43.300 -11.091  11.075  1.00  0.00     0.139 C 
HETATM   17  O   UNL     1      43.966 -10.086  11.864  1.00  0.00    -0.384 OA
HETATM   18  C   UNL     1      43.296 -10.002  13.131  1.00  0.00     0.168 C 
HETATM   19  C   UNL     1      42.049 -10.865  13.051  1.00  0.00     0.029 C 
HETATM   20  C   UNL     1      41.865 -11.076  11.568  1.00  0.00     0.035 C 
ENDBRANCH  15  16
ENDBRANCH  12  15
ENDBRANCH   6  11
BRANCH   8  21
HETATM   21  C   UNL     1      43.432 -14.497   3.168  1.00  0.00     0.409 C 
HETATM   22  F   UNL     1      43.932 -15.602   2.568  1.00  0.00    -0.169 F 
HETATM   23  F   UNL     1      42.796 -13.773   2.226  1.00  0.00    -0.169 F 
HETATM   24  F   UNL     1      44.508 -13.762   3.561  1.00  0.00    -0.169 F 
ENDBRANCH   8  21
BRANCH   1  25
HETATM   25  C   UNL     1      43.287 -18.493   4.098  1.00  0.00    -0.035 A 
HETATM   26  C   UNL     1      44.187 -19.482   4.530  1.00  0.00     0.011 A 
HETATM   27  C   UNL     1      44.522 -20.556   3.700  1.00  0.00     0.024 A 
HETATM   28  C   UNL     1      43.956 -20.654   2.432  1.00  0.00     0.034 A 
HETATM   29  C   UNL     1      43.058 -19.688   1.987  1.00  0.00     0.024 A 
HETATM   30 CL   UNL     1      44.373 -21.973   1.410  1.00  0.00    -0.084 Cl
HETATM   31  C   UNL     1      42.725 -18.613   2.817  1.00  0.00     0.011 A 
ENDBRANCH   1  25
TORSDOF 5
ENDMDL
MODEL 2
REMARK VINA RESULT:      -9.1      5.463      8.541
REMARK  5 active torsions:
REMARK  status: ('A' for Active; 'I' for Inactive)
REMARK    1  A    between atoms: C_2  and  C_3 
REMARK    2  A    between atoms: C_8  and  C_9 
REMARK       I    between atoms: C_9  and  N_10 
REMARK    3  A    between atoms: N_10  and  C_11 
REMARK    4  A    between atoms: C_11  and  C_12 
REMARK    5  A    between atoms: C_19  and  C_20 
ROOT
HETATM    1  C   UNL     1      43.310 -17.396   3.323  1.00  0.00     0.118 C 
HETATM    2  N   UNL     1      42.043 -17.582   2.610  1.00  0.00    -0.366 N 
HETATM    3  C   UNL     1      41.231 -16.516   2.455  1.00  0.00     0.123 A 
HETATM    4  N   UNL     1      41.143 -15.585   3.444  1.00  0.00    -0.240 N 
HETATM    5  N   UNL     1      40.367 -14.532   3.146  1.00  0.00    -0.165 NA
HETATM    6  C   UNL     1      39.851 -14.860   1.937  1.00  0.00     0.148 A 
HETATM    7  C   UNL     1      40.363 -16.110   1.478  1.00  0.00     0.088 A 
HETATM    8  C   UNL     1      41.860 -15.705   4.693  1.00  0.00     0.221 C 
HETATM    9  C   UNL     1      43.236 -16.358   4.466  1.00  0.00     0.066 C 
HETATM   10  H   UNL     1      42.126 -18.236   1.829  1.00  0.00     0.161 HD
ENDROOT
BRANCH   6  11
HETATM   11  C   UNL     1      38.894 -13.994   1.230  1.00  0.00     0.272 C 
HETATM   12  N   UNL     1      38.673 -14.374  -0.074  1.00  0.00    -0.353 N 
HETATM   13  H   UNL     1      39.309 -15.082  -0.430  1.00  0.00     0.162 HD
HETATM   14  O   UNL     1      38.362 -13.018   1.752  1.00  0.00    -0.266 OA
BRANCH  12  15
HETATM   15  C   UNL     1      37.930 -13.553  -1.008  1.00  0.00     0.155 C 
BRANCH  15  16
HETATM   16  C   UNL     1      38.287 -13.866  -2.462  1.00  0.00     0.139 C 
HETATM   17  O   UNL     1      39.641 -14.353  -2.555  1.00  0.00    -0.384 OA
HETATM   18  C   UNL     1      39.716 -15.236  -3.685  1.00  0.00     0.168 C 
HETATM   19  C   UNL     1      38.304 -15.446  -4.200  1.00  0.00     0.029 C 
HETATM   20  C   UNL     1      37.440 -14.976  -3.055  1.00  0.00     0.035 C 
ENDBRANCH  15  16
ENDBRANCH  12  15
ENDBRANCH   6  11
BRANCH   8  21
HETATM   21  C   UNL     1      41.021 -16.459   5.700  1.00  0.00     0.409 C 
HETATM   22  F   UNL     1      39.907 -15.777   6.052  1.00  0.00    -0.169 F 
HETATM   23  F   UNL     1      40.639 -17.683   5.289  1.00  0.00    -0.169 F 
HETATM   24  F   UNL     1      41.732 -16.638   6.845  1.00  0.00    -0.169 F 
ENDBRANCH   8  21
BRANCH   1  25
HETATM   25  C   UNL     1      43.854 -18.736   3.790  1.00  0.00    -0.035 A 
HETATM   26  C   UNL     1      43.976 -18.996   5.166  1.00  0.00     0.011 A 
HETATM   27  C   UNL     1      44.470 -20.222   5.621  1.00  0.00     0.024 A 
HETATM   28  C   UNL     1      44.840 -21.203   4.704  1.00  0.00     0.034 A 
HETATM   29  C   UNL     1      44.720 -20.967   3.338  1.00  0.00     0.024 A 
HETATM   30 CL   UNL     1      45.451 -22.710   5.265  1.00  0.00    -0.084 Cl
HETATM   31  C   UNL     1      44.230 -19.739   2.884  1.00  0.00     0.011 A 
ENDBRANCH   1  25
TORSDOF 5
ENDMDL
MODEL 3
REMARK VINA RESULT:      -8.6      6.310      8.539
REMARK  5 active torsions:
REMARK  status: ('A' for Active; 'I' for Inactive)
REMARK    1  A    between atoms: C_2  and  C_3 
REMARK    2  A    between atoms: C_8  and  C_9 
REMARK       I    between atoms: C_9  and  N_10 
REMARK    3  A    between atoms: N_10  and  C_11 
REMARK    4  A    between atoms: C_11  and  C_12 
REMARK    5  A    between atoms: C_19  and  C_20 
ROOT
HETATM    1  C   UNL     1      43.653 -17.237   2.032  1.00  0.00     0.118 C 
HETATM    2  N   UNL     1      42.549 -17.511   1.107  1.00  0.00    -0.366 N 
HETATM    3  C   UNL     1      41.864 -16.467   0.598  1.00  0.00     0.123 A 
HETATM    4  N   UNL     1      41.641 -15.366   1.367  1.00  0.00    -0.240 N 
HETATM    5  N   UNL     1      41.018 -14.363   0.730  1.00  0.00    -0.165 NA
HETATM    6  C   UNL     1      40.740 -14.893  -0.485  1.00  0.00     0.148 A 
HETATM    7  C   UNL     1      41.246 -16.221  -0.599  1.00  0.00     0.088 A 
HETATM    8  C   UNL     1      42.076 -15.276   2.742  1.00  0.00     0.221 C 
HETATM    9  C   UNL     1      43.419 -16.002   2.934  1.00  0.00     0.066 C 
HETATM   10  H   UNL     1      42.745 -18.300   0.488  1.00  0.00     0.161 HD
ENDROOT
BRANCH   6  11
HETATM   11  C   UNL     1      40.011 -14.142  -1.520  1.00  0.00     0.272 C 
HETATM   12  N   UNL     1      40.797 -13.790  -2.594  1.00  0.00    -0.353 N 
HETATM   13  H   UNL     1      41.795 -13.938  -2.465  1.00  0.00     0.162 HD
HETATM   14  O   UNL     1      38.824 -13.845  -1.422  1.00  0.00    -0.266 OA
BRANCH  12  15
HETATM   15  C   UNL     1      40.343 -12.881  -3.626  1.00  0.00     0.155 C 
BRANCH  15  16
HETATM   16  C   UNL     1      41.056 -11.530  -3.560  1.00  0.00     0.139 C 
HETATM   17  O   UNL     1      40.477 -10.704  -2.530  1.00  0.00    -0.384 OA
HETATM   18  C   UNL     1      41.503  -9.830  -2.035  1.00  0.00     0.168 C 
HETATM   19  C   UNL     1      42.818 -10.263  -2.660  1.00  0.00     0.029 C 
HETATM   20  C   UNL     1      42.519 -11.649  -3.178  1.00  0.00     0.035 C 
ENDBRANCH  15  16
ENDBRANCH  12  15
ENDBRANCH   6  11
BRANCH   8  21
HETATM   21  C   UNL     1      40.997 -15.803   3.661  1.00  0.00     0.409 C 
HETATM   22  F   UNL     1      39.826 -15.141   3.511  1.00  0.00    -0.169 F 
HETATM   23  F   UNL     1      40.745 -17.118   3.514  1.00  0.00    -0.169 F 
HETATM   24  F   UNL     1      41.369 -15.622   4.956  1.00  0.00    -0.169 F 
ENDBRANCH   8  21
BRANCH   1  25
HETATM   25  C   UNL     1      43.994 -18.483   2.831  1.00  0.00    -0.035 A 
HETATM   26  C   UNL     1      44.119 -19.719   2.173  1.00  0.00     0.011 A 
HETATM   27  C   UNL     1      44.436 -20.880   2.886  1.00  0.00     0.024 A 
HETATM   28  C   UNL     1      44.638 -20.813   4.262  1.00  0.00     0.034 A 
HETATM   29  C   UNL     1      44.526 -19.598   4.931  1.00  0.00     0.024 A 
HETATM   30 CL   UNL     1      45.025 -22.242   5.138  1.00  0.00    -0.084 Cl
HETATM   31  C   UNL     1      44.205 -18.439   4.218  1.00  0.00     0.011 A 
ENDBRANCH   1  25
TORSDOF 5
ENDMDL
MODEL 4
REMARK VINA RESULT:      -8.6      1.846      2.409
REMARK  5 active torsions:
REMARK  status: ('A' for Active; 'I' for Inactive)
REMARK    1  A    between atoms: C_2  and  C_3 
REMARK    2  A    between atoms: C_8  and  C_9 
REMARK       I    between atoms: C_9  and  N_10 
REMARK    3  A    between atoms: N_10  and  C_11 
REMARK    4  A    between atoms: C_11  and  C_12 
REMARK    5  A    between atoms: C_19  and  C_20 
ROOT
HETATM    1  C   UNL     1      41.978 -17.224   4.255  1.00  0.00     0.118 C 
HETATM    2  N   UNL     1      42.900 -16.261   4.863  1.00  0.00    -0.366 N 
HETATM    3  C   UNL     1      42.470 -14.999   5.065  1.00  0.00     0.123 A 
HETATM    4  N   UNL     1      41.629 -14.421   4.165  1.00  0.00    -0.240 N 
HETATM    5  N   UNL     1      41.207 -13.195   4.509  1.00  0.00    -0.165 NA
HETATM    6  C   UNL     1      41.897 -12.938   5.646  1.00  0.00     0.148 A 
HETATM    7  C   UNL     1      42.713 -14.047   6.018  1.00  0.00     0.088 A 
HETATM    8  C   UNL     1      41.197 -15.091   2.959  1.00  0.00     0.221 C 
HETATM    9  C   UNL     1      41.021 -16.600   3.212  1.00  0.00     0.066 C 
HETATM   10  H   UNL     1      43.489 -16.685   5.583  1.00  0.00     0.161 HD
ENDROOT
BRANCH   6  11
HETATM   11  C   UNL     1      41.775 -11.660   6.367  1.00  0.00     0.272 C 
HETATM   12  N   UNL     1      42.337 -11.686   7.623  1.00  0.00    -0.353 N 
HETATM   13  H   UNL     1      42.608 -12.609   7.955  1.00  0.00     0.162 HD
HETATM   14  O   UNL     1      41.209 -10.678   5.897  1.00  0.00    -0.266 OA
BRANCH  12  15
HETATM   15  C   UNL     1      42.157 -10.613   8.579  1.00  0.00     0.155 C 
BRANCH  15  16
HETATM   16  C   UNL     1      43.214 -10.640   9.683  1.00  0.00     0.139 C 
HETATM   17  O   UNL     1      42.678 -11.235  10.881  1.00  0.00    -0.384 OA
HETATM   18  C   UNL     1      43.761 -11.855  11.590  1.00  0.00     0.168 C 
HETATM   19  C   UNL     1      44.988 -11.798  10.698  1.00  0.00     0.029 C 
HETATM   20  C   UNL     1      44.416 -11.498   9.334  1.00  0.00     0.035 C 
ENDBRANCH  15  16
ENDBRANCH  12  15
ENDBRANCH   6  11
BRANCH   8  21
HETATM   21  C   UNL     1      42.164 -14.802   1.833  1.00  0.00     0.409 C 
HETATM   22  F   UNL     1      43.389 -15.331   2.060  1.00  0.00    -0.169 F 
HETATM   23  F   UNL     1      41.748 -15.236   0.627  1.00  0.00    -0.169 F 
HETATM   24  F   UNL     1      42.348 -13.459   1.720  1.00  0.00    -0.169 F 
ENDBRANCH   8  21
BRANCH   1  25
HETATM   25  C   UNL     1      42.745 -18.412   3.700  1.00  0.00    -0.035 A 
HETATM   26  C   UNL     1      42.544 -18.810   2.367  1.00  0.00     0.011 A 
HETATM   27  C   UNL     1      43.241 -19.897   1.832  1.00  0.00     0.024 A 
HETATM   28  C   UNL     1      44.152 -20.593   2.624  1.00  0.00     0.034 A 
HETATM   29  C   UNL     1      44.370 -20.211   3.944  1.00  0.00     0.024 A 
HETATM   30 CL   UNL     1      45.006 -21.933   1.965  1.00  0.00    -0.084 Cl
HETATM   31  C   UNL     1      43.670 -19.126   4.479  1.00  0.00     0.011 A 
ENDBRANCH   1  25
TORSDOF 5
ENDMDL
MODEL 5
REMARK VINA RESULT:      -8.4      2.879      3.418
REMARK  5 active torsions:
REMARK  status: ('A' for Active; 'I' for Inactive)
REMARK    1  A    between atoms: C_2  and  C_3 
REMARK    2  A    between atoms: C_8  and  C_9 
REMARK       I    between atoms: C_9  and  N_10 
REMARK    3  A    between atoms: N_10  and  C_11 
REMARK    4  A    between atoms: C_11  and  C_12 
REMARK    5  A    between atoms: C_19  and  C_20 
ROOT
HETATM    1  C   UNL     1      42.745 -16.013   3.588  1.00  0.00     0.118 C 
HETATM    2  N   UNL     1      41.531 -15.986   4.409  1.00  0.00    -0.366 N 
HETATM    3  C   UNL     1      41.233 -14.854   5.078  1.00  0.00     0.123 A 
HETATM    4  N   UNL     1      42.235 -14.096   5.601  1.00  0.00    -0.240 N 
HETATM    5  N   UNL     1      41.824 -12.955   6.175  1.00  0.00    -0.165 NA
HETATM    6  C   UNL     1      40.474 -13.039   6.101  1.00  0.00     0.148 A 
HETATM    7  C   UNL     1      40.066 -14.229   5.428  1.00  0.00     0.088 A 
HETATM    8  C   UNL     1      43.627 -14.472   5.508  1.00  0.00     0.221 C 
HETATM    9  C   UNL     1      43.909 -15.176   4.168  1.00  0.00     0.066 C 
HETATM   10  H   UNL     1      40.760 -16.506   3.984  1.00  0.00     0.161 HD
ENDROOT
BRANCH   6  11
HETATM   11  C   UNL     1      39.591 -12.000   6.655  1.00  0.00     0.272 C 
HETATM   12  N   UNL     1      39.877 -11.682   7.964  1.00  0.00    -0.353 N 
HETATM   13  H   UNL     1      40.532 -12.308   8.426  1.00  0.00     0.162 HD
HETATM   14  O   UNL     1      38.679 -11.485   6.015  1.00  0.00    -0.266 OA
BRANCH  12  15
HETATM   15  C   UNL     1      39.014 -10.840   8.766  1.00  0.00     0.155 C 
BRANCH  15  16
HETATM   16  C   UNL     1      39.751 -10.226   9.957  1.00  0.00     0.139 C 
HETATM   17  O   UNL     1      40.966 -10.952  10.226  1.00  0.00    -0.384 OA
HETATM   18  C   UNL     1      41.910 -10.037  10.804  1.00  0.00     0.168 C 
HETATM   19  C   UNL     1      41.312  -8.644  10.717  1.00  0.00     0.029 C 
HETATM   20  C   UNL     1      40.205  -8.801   9.703  1.00  0.00     0.035 C 
ENDBRANCH  15  16
ENDBRANCH  12  15
ENDBRANCH   6  11
BRANCH   8  21
HETATM   21  C   UNL     1      44.013 -15.320   6.699  1.00  0.00     0.409 C 
HETATM   22  F   UNL     1      44.481 -14.577   7.728  1.00  0.00    -0.169 F 
HETATM   23  F   UNL     1      43.013 -16.090   7.172  1.00  0.00    -0.169 F 
HETATM   24  F   UNL     1      45.022 -16.164   6.353  1.00  0.00    -0.169 F 
ENDBRANCH   8  21
BRANCH   1  25
HETATM   25  C   UNL     1      43.152 -17.448   3.295  1.00  0.00    -0.035 A 
HETATM   26  C   UNL     1      43.676 -18.247   4.325  1.00  0.00     0.011 A 
HETATM   27  C   UNL     1      44.054 -19.571   4.082  1.00  0.00     0.024 A 
HETATM   28  C   UNL     1      43.904 -20.110   2.806  1.00  0.00     0.034 A 
HETATM   29  C   UNL     1      43.381 -19.337   1.774  1.00  0.00     0.024 A 
HETATM   30 CL   UNL     1      44.373 -21.738   2.506  1.00  0.00    -0.084 Cl
HETATM   31  C   UNL     1      43.007 -18.012   2.018  1.00  0.00     0.011 A 
ENDBRANCH   1  25
TORSDOF 5
ENDMDL
MODEL 6
REMARK VINA RESULT:      -8.3      3.633      4.431
REMARK  5 active torsions:
REMARK  status: ('A' for Active; 'I' for Inactive)
REMARK    1  A    between atoms: C_2  and  C_3 
REMARK    2  A    between atoms: C_8  and  C_9 
REMARK       I    between atoms: C_9  and  N_10 
REMARK    3  A    between atoms: N_10  and  C_11 
REMARK    4  A    between atoms: C_11  and  C_12 
REMARK    5  A    between atoms: C_19  and  C_20 
ROOT
HETATM    1  C   UNL     1      43.332 -16.558   3.665  1.00  0.00     0.118 C 
HETATM    2  N   UNL     1      42.054 -16.115   3.102  1.00  0.00    -0.366 N 
HETATM    3  C   UNL     1      41.444 -15.046   3.654  1.00  0.00     0.123 A 
HETATM    4  N   UNL     1      41.522 -14.846   4.999  1.00  0.00    -0.240 N 
HETATM    5  N   UNL     1      40.945 -13.711   5.423  1.00  0.00    -0.165 NA
HETATM    6  C   UNL     1      40.381 -13.210   4.297  1.00  0.00     0.148 A 
HETATM    7  C   UNL     1      40.664 -14.033   3.167  1.00  0.00     0.088 A 
HETATM    8  C   UNL     1      42.204 -15.760   5.885  1.00  0.00     0.221 C 
HETATM    9  C   UNL     1      43.443 -16.360   5.195  1.00  0.00     0.066 C 
HETATM   10  H   UNL     1      42.021 -16.210   2.085  1.00  0.00     0.161 HD
ENDROOT
BRANCH   6  11
HETATM   11  C   UNL     1      39.594 -11.967   4.300  1.00  0.00     0.272 C 
HETATM   12  N   UNL     1      40.085 -11.012   5.161  1.00  0.00    -0.353 N 
HETATM   13  H   UNL     1      40.808 -11.337   5.798  1.00  0.00     0.162 HD
HETATM   14  O   UNL     1      38.588 -11.809   3.614  1.00  0.00    -0.266 OA
BRANCH  12  15
HETATM   15  C   UNL     1      39.358  -9.798   5.473  1.00  0.00     0.155 C 
BRANCH  15  16
HETATM   16  C   UNL     1      39.394  -9.472   6.967  1.00  0.00     0.139 C 
HETATM   17  O   UNL     1      38.917 -10.592   7.739  1.00  0.00    -0.384 OA
HETATM   18  C   UNL     1      39.568 -10.556   9.018  1.00  0.00     0.168 C 
HETATM   19  C   UNL     1      40.630  -9.472   8.964  1.00  0.00     0.029 C 
HETATM   20  C   UNL     1      40.797  -9.218   7.486  1.00  0.00     0.035 C 
ENDBRANCH  15  16
ENDBRANCH  12  15
ENDBRANCH   6  11
BRANCH   8  21
HETATM   21  C   UNL     1      41.243 -16.821   6.372  1.00  0.00     0.409 C 
HETATM   22  F   UNL     1      40.021 -16.315   6.655  1.00  0.00    -0.169 F 
HETATM   23  F   UNL     1      41.074 -17.845   5.513  1.00  0.00    -0.169 F 
HETATM   24  F   UNL     1      41.706 -17.360   7.532  1.00  0.00    -0.169 F 
ENDBRANCH   8  21
BRANCH   1  25
HETATM   25  C   UNL     1      43.629 -17.986   3.241  1.00  0.00    -0.035 A 
HETATM   26  C   UNL     1      43.271 -18.419   1.953  1.00  0.00     0.011 A 
HETATM   27  C   UNL     1      43.538 -19.728   1.538  1.00  0.00     0.024 A 
HETATM   28  C   UNL     1      44.172 -20.613   2.407  1.00  0.00     0.034 A 
HETATM   29  C   UNL     1      44.540 -20.202   3.684  1.00  0.00     0.024 A 
HETATM   30 CL   UNL     1      44.495 -22.224   1.897  1.00  0.00    -0.084 Cl
HETATM   31  C   UNL     1      44.270 -18.895   4.098  1.00  0.00     0.011 A 
ENDBRANCH   1  25
TORSDOF 5
ENDMDL
MODEL 7
REMARK VINA RESULT:      -8.3      5.172      6.447
REMARK  5 active torsions:
REMARK  status: ('A' for Active; 'I' for Inactive)
REMARK    1  A    between atoms: C_2  and  C_3 
REMARK    2  A    between atoms: C_8  and  C_9 
REMARK       I    between atoms: C_9  and  N_10 
REMARK    3  A    between atoms: N_10  and  C_11 
REMARK    4  A    between atoms: C_11  and  C_12 
REMARK    5  A    between atoms: C_19  and  C_20 
ROOT
HETATM    1  C   UNL     1      43.124 -17.346   3.233  1.00  0.00     0.118 C 
HETATM    2  N   UNL     1      41.762 -17.545   2.728  1.00  0.00    -0.366 N 
HETATM    3  C   UNL     1      40.953 -16.471   2.624  1.00  0.00     0.123 A 
HETATM    4  N   UNL     1      41.027 -15.478   3.552  1.00  0.00    -0.240 N 
HETATM    5  N   UNL     1      40.231 -14.427   3.302  1.00  0.00    -0.165 NA
HETATM    6  C   UNL     1      39.536 -14.818   2.207  1.00  0.00     0.148 A 
HETATM    7  C   UNL     1      39.955 -16.106   1.761  1.00  0.00     0.088 A 
HETATM    8  C   UNL     1      41.920 -15.536   4.686  1.00  0.00     0.221 C 
HETATM    9  C   UNL     1      43.237 -16.235   4.303  1.00  0.00     0.066 C 
HETATM   10  H   UNL     1      41.719 -18.248   1.988  1.00  0.00     0.161 HD
ENDROOT
BRANCH   6  11
HETATM   11  C   UNL     1      38.498 -13.974   1.593  1.00  0.00     0.272 C 
HETATM   12  N   UNL     1      38.621 -12.640   1.910  1.00  0.00    -0.353 N 
HETATM   13  H   UNL     1      39.291 -12.432   2.645  1.00  0.00     0.162 HD
HETATM   14  O   UNL     1      37.602 -14.423   0.885  1.00  0.00    -0.266 OA
BRANCH  12  15
HETATM   15  C   UNL     1      37.600 -11.666   1.584  1.00  0.00     0.155 C 
BRANCH  15  16
HETATM   16  C   UNL     1      37.779 -10.360   2.360  1.00  0.00     0.139 C 
HETATM   17  O   UNL     1      38.014 -10.631   3.756  1.00  0.00    -0.384 OA
HETATM   18  C   UNL     1      38.819  -9.565   4.284  1.00  0.00     0.168 C 
HETATM   19  C   UNL     1      39.252  -8.695   3.118  1.00  0.00     0.029 C 
HETATM   20  C   UNL     1      38.994  -9.567   1.914  1.00  0.00     0.035 C 
ENDBRANCH  15  16
ENDBRANCH  12  15
ENDBRANCH   6  11
BRANCH   8  21
HETATM   21  C   UNL     1      41.228 -16.203   5.853  1.00  0.00     0.409 C 
HETATM   22  F   UNL     1      42.055 -16.372   6.911  1.00  0.00    -0.169 F 
HETATM   23  F   UNL     1      40.134 -15.550   6.290  1.00  0.00    -0.169 F 
HETATM   24  F   UNL     1      40.819 -17.449   5.492  1.00  0.00    -0.169 F 
ENDBRANCH   8  21
BRANCH   1  25
HETATM   25  C   UNL     1      43.711 -18.666   3.702  1.00  0.00    -0.035 A 
HETATM   26  C   UNL     1      43.873 -18.906   5.078  1.00  0.00     0.011 A 
HETATM   27  C   UNL     1      44.407 -20.115   5.535  1.00  0.00     0.024 A 
HETATM   28  C   UNL     1      44.778 -21.097   4.620  1.00  0.00     0.034 A 
HETATM   29  C   UNL     1      44.620 -20.882   3.255  1.00  0.00     0.024 A 
HETATM   30 CL   UNL     1      45.439 -22.582   5.184  1.00  0.00    -0.084 Cl
HETATM   31  C   UNL     1      44.089 -19.672   2.799  1.00  0.00     0.011 A 
ENDBRANCH   1  25
TORSDOF 5
ENDMDL
MODEL 8
REMARK VINA RESULT:      -8.1      6.331      8.144
REMARK  5 active torsions:
REMARK  status: ('A' for Active; 'I' for Inactive)
REMARK    1  A    between atoms: C_2  and  C_3 
REMARK    2  A    between atoms: C_8  and  C_9 
REMARK       I    between atoms: C_9  and  N_10 
REMARK    3  A    between atoms: N_10  and  C_11 
REMARK    4  A    between atoms: C_11  and  C_12 
REMARK    5  A    between atoms: C_19  and  C_20 
ROOT
HETATM    1  C   UNL     1      43.652 -17.187   2.113  1.00  0.00     0.118 C 
HETATM    2  N   UNL     1      42.531 -17.443   1.204  1.00  0.00    -0.366 N 
HETATM    3  C   UNL     1      41.847 -16.389   0.715  1.00  0.00     0.123 A 
HETATM    4  N   UNL     1      41.647 -15.293   1.497  1.00  0.00    -0.240 N 
HETATM    5  N   UNL     1      41.023 -14.278   0.879  1.00  0.00    -0.165 NA
HETATM    6  C   UNL     1      40.720 -14.795  -0.336  1.00  0.00     0.148 A 
HETATM    7  C   UNL     1      41.211 -16.127  -0.469  1.00  0.00     0.088 A 
HETATM    8  C   UNL     1      42.106 -15.217   2.865  1.00  0.00     0.221 C 
HETATM    9  C   UNL     1      43.445 -15.958   3.028  1.00  0.00     0.066 C 
HETATM   10  H   UNL     1      42.708 -18.229   0.576  1.00  0.00     0.161 HD
ENDROOT
BRANCH   6  11
HETATM   11  C   UNL     1      39.982 -14.029  -1.353  1.00  0.00     0.272 C 
HETATM   12  N   UNL     1      39.703 -12.737  -0.968  1.00  0.00    -0.353 N 
HETATM   13  H   UNL     1      39.886 -12.530   0.011  1.00  0.00     0.162 HD
HETATM   14  O   UNL     1      39.634 -14.505  -2.429  1.00  0.00    -0.266 OA
BRANCH  12  15
HETATM   15  C   UNL     1      38.818 -11.874  -1.722  1.00  0.00     0.155 C 
BRANCH  15  16
HETATM   16  C   UNL     1      37.758 -11.218  -0.835  1.00  0.00     0.139 C 
HETATM   17  O   UNL     1      36.660 -10.737  -1.634  1.00  0.00    -0.384 OA
HETATM   18  C   UNL     1      35.473 -10.779  -0.826  1.00  0.00     0.168 C 
HETATM   19  C   UNL     1      35.823 -11.491   0.469  1.00  0.00     0.029 C 
HETATM   20  C   UNL     1      37.123 -12.186   0.146  1.00  0.00     0.035 C 
ENDBRANCH  15  16
ENDBRANCH  12  15
ENDBRANCH   6  11
BRANCH   8  21
HETATM   21  C   UNL     1      41.037 -15.742   3.797  1.00  0.00     0.409 C 
HETATM   22  F   UNL     1      41.398 -15.646   5.098  1.00  0.00    -0.169 F 
HETATM   23  F   UNL     1      39.842 -15.135   3.660  1.00  0.00    -0.169 F 
HETATM   24  F   UNL     1      40.830 -17.065   3.559  1.00  0.00    -0.169 F 
ENDBRANCH   8  21
BRANCH   1  25
HETATM   25  C   UNL     1      43.994 -18.443   2.896  1.00  0.00    -0.035 A 
HETATM   26  C   UNL     1      44.155 -19.664   2.218  1.00  0.00     0.011 A 
HETATM   27  C   UNL     1      44.474 -20.833   2.916  1.00  0.00     0.024 A 
HETATM   28  C   UNL     1      44.643 -20.790   4.298  1.00  0.00     0.034 A 
HETATM   29  C   UNL     1      44.494 -19.590   4.986  1.00  0.00     0.024 A 
HETATM   30 CL   UNL     1      45.031 -22.229   5.155  1.00  0.00    -0.084 Cl
HETATM   31  C   UNL     1      44.172 -18.423   4.288  1.00  0.00     0.011 A 
ENDBRANCH   1  25
TORSDOF 5
ENDMDL
MODEL 9
REMARK VINA RESULT:      -8.0      5.021      6.856
REMARK  5 active torsions:
REMARK  status: ('A' for Active; 'I' for Inactive)
REMARK    1  A    between atoms: C_2  and  C_3 
REMARK    2  A    between atoms: C_8  and  C_9 
REMARK       I    between atoms: C_9  and  N_10 
REMARK    3  A    between atoms: N_10  and  C_11 
REMARK    4  A    between atoms: C_11  and  C_12 
REMARK    5  A    between atoms: C_19  and  C_20 
ROOT
HETATM    1  C   UNL     1      43.240 -16.814   3.440  1.00  0.00     0.118 C 
HETATM    2  N   UNL     1      41.928 -16.515   2.858  1.00  0.00    -0.366 N 
HETATM    3  C   UNL     1      41.276 -15.412   3.278  1.00  0.00     0.123 A 
HETATM    4  N   UNL     1      41.370 -15.027   4.581  1.00  0.00    -0.240 N 
HETATM    5  N   UNL     1      40.744 -13.875   4.865  1.00  0.00    -0.165 NA
HETATM    6  C   UNL     1      40.132 -13.560   3.698  1.00  0.00     0.148 A 
HETATM    7  C   UNL     1      40.434 -14.513   2.681  1.00  0.00     0.088 A 
HETATM    8  C   UNL     1      42.117 -15.779   5.563  1.00  0.00     0.221 C 
HETATM    9  C   UNL     1      43.371 -16.406   4.926  1.00  0.00     0.066 C 
HETATM   10  H   UNL     1      41.880 -16.747   1.864  1.00  0.00     0.161 HD
ENDROOT
BRANCH   6  11
HETATM   11  C   UNL     1      39.282 -12.367   3.555  1.00  0.00     0.272 C 
HETATM   12  N   UNL     1      39.158 -11.937   2.253  1.00  0.00    -0.353 N 
HETATM   13  H   UNL     1      39.790 -12.380   1.592  1.00  0.00     0.162 HD
HETATM   14  O   UNL     1      38.752 -11.804   4.509  1.00  0.00    -0.266 OA
BRANCH  12  15
HETATM   15  C   UNL     1      38.539 -10.674   1.906  1.00  0.00     0.155 C 
BRANCH  15  16
HETATM   16  C   UNL     1      37.021 -10.795   1.767  1.00  0.00     0.139 C 
HETATM   17  O   UNL     1      36.442  -9.517   1.439  1.00  0.00    -0.384 OA
HETATM   18  C   UNL     1      35.249  -9.754   0.675  1.00  0.00     0.168 C 
HETATM   19  C   UNL     1      35.191 -11.239   0.363  1.00  0.00     0.029 C 
HETATM   20  C   UNL     1      36.600 -11.709   0.632  1.00  0.00     0.035 C 
ENDBRANCH  15  16
ENDBRANCH  12  15
ENDBRANCH   6  11
BRANCH   8  21
HETATM   21  C   UNL     1      41.222 -16.810   6.214  1.00  0.00     0.409 C 
HETATM   22  F   UNL     1      40.998 -17.875   5.411  1.00  0.00    -0.169 F 
HETATM   23  F   UNL     1      41.686 -17.275   7.391  1.00  0.00    -0.169 F 
HETATM   24  F   UNL     1      40.002 -16.264   6.466  1.00  0.00    -0.169 F 
ENDBRANCH   8  21
BRANCH   1  25
HETATM   25  C   UNL     1      43.602 -18.271   3.205  1.00  0.00    -0.035 A 
HETATM   26  C   UNL     1      44.291 -18.986   4.199  1.00  0.00     0.011 A 
HETATM   27  C   UNL     1      44.632 -20.329   4.007  1.00  0.00     0.024 A 
HETATM   28  C   UNL     1      44.280 -20.970   2.822  1.00  0.00     0.034 A 
HETATM   29  C   UNL     1      43.591 -20.281   1.828  1.00  0.00     0.024 A 
HETATM   30 CL   UNL     1      44.703 -22.620   2.586  1.00  0.00    -0.084 Cl
HETATM   31  C   UNL     1      43.254 -18.938   2.019  1.00  0.00     0.011 A 
ENDBRANCH   1  25
TORSDOF 5
ENDMDL
MODEL 10
REMARK VINA RESULT:      -8.0      4.865      6.564
REMARK  5 active torsions:
REMARK  status: ('A' for Active; 'I' for Inactive)
REMARK    1  A    between atoms: C_2  and  C_3 
REMARK    2  A    between atoms: C_8  and  C_9 
REMARK       I    between atoms: C_9  and  N_10 
REMARK    3  A    between atoms: N_10  and  C_11 
REMARK    4  A    between atoms: C_11  and  C_12 
REMARK    5  A    between atoms: C_19  and  C_20 
ROOT
HETATM    1  C   UNL     1      43.165 -16.854   3.430  1.00  0.00     0.118 C 
HETATM    2  N   UNL     1      41.840 -16.607   2.856  1.00  0.00    -0.366 N 
HETATM    3  C   UNL     1      41.158 -15.516   3.262  1.00  0.00     0.123 A 
HETATM    4  N   UNL     1      41.254 -15.103   4.555  1.00  0.00    -0.240 N 
HETATM    5  N   UNL     1      40.595 -13.965   4.823  1.00  0.00    -0.165 NA
HETATM    6  C   UNL     1      39.962 -13.692   3.657  1.00  0.00     0.148 A 
HETATM    7  C   UNL     1      40.283 -14.655   2.656  1.00  0.00     0.088 A 
HETATM    8  C   UNL     1      42.033 -15.812   5.544  1.00  0.00     0.221 C 
HETATM    9  C   UNL     1      43.299 -16.413   4.906  1.00  0.00     0.066 C 
HETATM   10  H   UNL     1      41.788 -16.861   1.867  1.00  0.00     0.161 HD
ENDROOT
BRANCH   6  11
HETATM   11  C   UNL     1      39.074 -12.529   3.500  1.00  0.00     0.272 C 
HETATM   12  N   UNL     1      38.577 -12.390   2.224  1.00  0.00    -0.353 N 
HETATM   13  H   UNL     1      39.008 -12.990   1.526  1.00  0.00     0.162 HD
HETATM   14  O   UNL     1      38.820 -11.751   4.416  1.00  0.00    -0.266 OA
BRANCH  12  15
HETATM   15  C   UNL     1      37.851 -11.212   1.796  1.00  0.00     0.155 C 
BRANCH  15  16
HETATM   16  C   UNL     1      38.725 -10.262   0.976  1.00  0.00     0.139 C 
HETATM   17  O   UNL     1      39.533  -9.443   1.845  1.00  0.00    -0.384 OA
HETATM   18  C   UNL     1      40.741  -9.112   1.144  1.00  0.00     0.168 C 
HETATM   19  C   UNL     1      40.760  -9.915  -0.145  1.00  0.00     0.029 C 
HETATM   20  C   UNL     1      39.725 -10.987   0.095  1.00  0.00     0.035 C 
ENDBRANCH  15  16
ENDBRANCH  12  15
ENDBRANCH   6  11
BRANCH   8  21
HETATM   21  C   UNL     1      41.177 -16.856   6.225  1.00  0.00     0.409 C 
HETATM   22  F   UNL     1      39.965 -16.374   6.580  1.00  0.00    -0.169 F 
HETATM   23  F   UNL     1      40.976 -17.967   5.488  1.00  0.00    -0.169 F 
HETATM   24  F   UNL     1      41.776 -17.259   7.378  1.00  0.00    -0.169 F 
ENDBRANCH   8  21
BRANCH   1  25
HETATM   25  C   UNL     1      43.570 -18.304   3.218  1.00  0.00    -0.035 A 
HETATM   26  C   UNL     1      43.206 -18.962   2.031  1.00  0.00     0.011 A 
HETATM   27  C   UNL     1      43.570 -20.294   1.811  1.00  0.00     0.024 A 
HETATM   28  C   UNL     1      44.307 -20.978   2.775  1.00  0.00     0.034 A 
HETATM   29  C   UNL     1      44.683 -20.342   3.954  1.00  0.00     0.024 A 
HETATM   30 CL   UNL     1      44.751 -22.618   2.505  1.00  0.00    -0.084 Cl
HETATM   31  C   UNL     1      44.315 -19.011   4.174  1.00  0.00     0.011 A 
ENDBRANCH   1  25
TORSDOF 5
ENDMDL
