MODEL 1
REMARK VINA RESULT:      -8.4      0.000      0.000
REMARK  8 active torsions:
REMARK  status: ('A' for Active; 'I' for Inactive)
REMARK    1  A    between atoms: C_2  and  C_3 
REMARK    2  A    between atoms: C_6  and  N_7 
REMARK    3  A    between atoms: N_7  and  S_8 
REMARK    4  A    between atoms: S_8  and  C_9 
REMARK    5  A    between atoms: C_15  and  C_16 
REMARK       I    between atoms: C_16  and  N_17 
REMARK    6  A    between atoms: N_17  and  C_18 
REMARK    7  A    between atoms: C_18  and  C_19 
REMARK    8  A    between atoms: C_19  and  O_20 
ROOT
HETATM    1  C   UNL     1      40.911 -15.048   4.573  1.00  0.00     0.081 A 
HETATM    2  C   UNL     1      40.772 -15.186   3.190  1.00  0.00     0.043 A 
HETATM    3  C   UNL     1      40.030 -14.235   2.484  1.00  0.00     0.043 A 
HETATM    4  C   UNL     1      39.454 -13.134   3.142  1.00  0.00     0.046 A 
HETATM    5  N   UNL     1      38.697 -12.209   2.414  1.00  0.00    -0.364 N 
HETATM    6  C   UNL     1      38.596 -12.306   1.048  1.00  0.00     0.109 A 
HETATM    7  C   UNL     1      39.100 -13.301   0.296  1.00  0.00     0.098 A 
HETATM    8  C   UNL     1      39.842 -14.376   1.015  1.00  0.00     0.201 A 
HETATM    9  O   UNL     1      40.290 -15.358   0.431  1.00  0.00    -0.286 OA
HETATM   10  C   UNL     1      39.596 -13.019   4.529  1.00  0.00     0.032 A 
HETATM   11  C   UNL     1      40.332 -13.969   5.246  1.00  0.00     0.027 A 
HETATM   12  H   UNL     1      38.420 -11.338   2.855  1.00  0.00     0.165 HD
ENDROOT
BRANCH   1  13
HETATM   13  S   UNL     1      41.899 -16.233   5.461  1.00  0.00     0.263 S 
HETATM   14  O   UNL     1      41.169 -17.481   5.506  1.00  0.00    -0.200 OA
HETATM   15  O   UNL     1      42.347 -15.583   6.674  1.00  0.00    -0.200 OA
BRANCH  13  16
HETATM   16  N   UNL     1      43.258 -16.397   4.477  1.00  0.00    -0.281 N 
HETATM   17  H   UNL     1      43.402 -15.593   3.869  1.00  0.00     0.179 HD
BRANCH  16  18
HETATM   18  C   UNL     1      43.603 -17.681   3.975  1.00  0.00     0.042 A 
HETATM   19  C   UNL     1      43.247 -18.036   2.676  1.00  0.00     0.030 A 
HETATM   20  C   UNL     1      43.586 -19.299   2.182  1.00  0.00     0.010 A 
HETATM   21  C   UNL     1      44.294 -20.215   2.976  1.00  0.00    -0.055 A 
HETATM   22  C   UNL     1      44.625 -19.847   4.288  1.00  0.00     0.010 A 
HETATM   23  C   UNL     1      44.277 -18.589   4.786  1.00  0.00     0.030 A 
BRANCH  21  24
HETATM   24  C   UNL     1      44.697 -21.586   2.460  1.00  0.00     0.010 C 
HETATM   25  C   UNL     1      43.890 -22.009   1.229  1.00  0.00     0.015 C 
HETATM   26  C   UNL     1      44.596 -22.637   3.567  1.00  0.00     0.015 C 
ENDBRANCH  21  24
ENDBRANCH  16  18
ENDBRANCH  13  16
ENDBRANCH   1  13
BRANCH   7  27
HETATM   27  C   UNL     1      38.871 -13.264  -1.176  1.00  0.00     0.257 C 
HETATM   28  N   UNL     1      38.274 -14.375  -1.710  1.00  0.00    -0.355 N 
HETATM   29  H   UNL     1      38.137 -15.193  -1.114  1.00  0.00     0.162 HD
HETATM   30  O   UNL     1      39.198 -12.293  -1.855  1.00  0.00    -0.267 OA
BRANCH  28  31
HETATM   31  C   UNL     1      38.030 -14.524  -3.132  1.00  0.00     0.149 C 
BRANCH  31  32
HETATM   32  C   UNL     1      38.830 -15.674  -3.746  1.00  0.00     0.186 C 
BRANCH  32  33
HETATM   33  O   UNL     1      40.152 -15.215  -4.053  1.00  0.00    -0.394 OA
HETATM   34  C   UNL     1      41.081 -15.595  -3.047  1.00  0.00     0.201 C 
ENDBRANCH  32  33
ENDBRANCH  31  32
ENDBRANCH  28  31
ENDBRANCH   7  27
TORSDOF 8
ENDMDL
MODEL 2
REMARK VINA RESULT:      -8.4      3.966      9.129
REMARK  8 active torsions:
REMARK  status: ('A' for Active; 'I' for Inactive)
REMARK    1  A    between atoms: C_2  and  C_3 
REMARK    2  A    between atoms: C_6  and  N_7 
REMARK    3  A    between atoms: N_7  and  S_8 
REMARK    4  A    between atoms: S_8  and  C_9 
REMARK    5  A    between atoms: C_15  and  C_16 
REMARK       I    between atoms: C_16  and  N_17 
REMARK    6  A    between atoms: N_17  and  C_18 
REMARK    7  A    between atoms: C_18  and  C_19 
REMARK    8  A    between atoms: C_19  and  O_20 
ROOT
HETATM    1  C   UNL     1      40.681 -14.919  -1.073  1.00  0.00     0.081 A 
HETATM    2  C   UNL     1      41.576 -15.870  -0.579  1.00  0.00     0.043 A 
HETATM    3  C   UNL     1      41.494 -16.245   0.766  1.00  0.00     0.043 A 
HETATM    4  C   UNL     1      40.508 -15.702   1.609  1.00  0.00     0.046 A 
HETATM    5  N   UNL     1      40.464 -16.078   2.956  1.00  0.00    -0.364 N 
HETATM    6  C   UNL     1      41.304 -17.049   3.441  1.00  0.00     0.109 A 
HETATM    7  C   UNL     1      42.285 -17.652   2.745  1.00  0.00     0.098 A 
HETATM    8  C   UNL     1      42.455 -17.234   1.324  1.00  0.00     0.201 A 
HETATM    9  O   UNL     1      43.356 -17.679   0.619  1.00  0.00    -0.286 OA
HETATM   10  C   UNL     1      39.628 -14.742   1.097  1.00  0.00     0.032 A 
HETATM   11  C   UNL     1      39.706 -14.356  -0.246  1.00  0.00     0.027 A 
HETATM   12  H   UNL     1      39.662 -15.813   3.518  1.00  0.00     0.165 HD
ENDROOT
BRANCH   1  13
HETATM   13  S   UNL     1      40.757 -14.481  -2.797  1.00  0.00     0.263 S 
HETATM   14  O   UNL     1      39.760 -13.463  -3.045  1.00  0.00    -0.200 OA
HETATM   15  O   UNL     1      40.765 -15.720  -3.546  1.00  0.00    -0.200 OA
BRANCH  13  16
HETATM   16  N   UNL     1      42.301 -13.822  -2.946  1.00  0.00    -0.281 N 
HETATM   17  H   UNL     1      43.034 -14.474  -2.673  1.00  0.00     0.179 HD
BRANCH  16  18
HETATM   18  C   UNL     1      42.499 -12.443  -2.668  1.00  0.00     0.042 A 
HETATM   19  C   UNL     1      42.761 -12.030  -1.364  1.00  0.00     0.030 A 
HETATM   20  C   UNL     1      42.956 -10.673  -1.090  1.00  0.00     0.010 A 
HETATM   21  C   UNL     1      42.903  -9.717  -2.117  1.00  0.00    -0.055 A 
HETATM   22  C   UNL     1      42.617 -10.150  -3.419  1.00  0.00     0.010 A 
HETATM   23  C   UNL     1      42.411 -11.505  -3.692  1.00  0.00     0.030 A 
BRANCH  21  24
HETATM   24  C   UNL     1      43.132  -8.238  -1.854  1.00  0.00     0.010 C 
HETATM   25  C   UNL     1      44.424  -7.975  -1.075  1.00  0.00     0.015 C 
HETATM   26  C   UNL     1      41.929  -7.617  -1.143  1.00  0.00     0.015 C 
ENDBRANCH  21  24
ENDBRANCH  16  18
ENDBRANCH  13  16
ENDBRANCH   1  13
BRANCH   7  27
HETATM   27  C   UNL     1      43.126 -18.668   3.440  1.00  0.00     0.257 C 
HETATM   28  N   UNL     1      43.825 -19.516   2.621  1.00  0.00    -0.355 N 
HETATM   29  H   UNL     1      43.641 -19.492   1.617  1.00  0.00     0.162 HD
HETATM   30  O   UNL     1      43.183 -18.730   4.666  1.00  0.00    -0.267 OA
BRANCH  28  31
HETATM   31  C   UNL     1      44.647 -20.596   3.134  1.00  0.00     0.149 C 
BRANCH  31  32
HETATM   32  C   UNL     1      44.326 -21.939   2.477  1.00  0.00     0.186 C 
BRANCH  32  33
HETATM   33  O   UNL     1      44.652 -22.997   3.386  1.00  0.00    -0.394 OA
HETATM   34  C   UNL     1      44.821 -22.511   4.711  1.00  0.00     0.201 C 
ENDBRANCH  32  33
ENDBRANCH  31  32
ENDBRANCH  28  31
ENDBRANCH   7  27
TORSDOF 8
ENDMDL
MODEL 3
REMARK VINA RESULT:      -8.3      4.387      8.018
REMARK  8 active torsions:
REMARK  status: ('A' for Active; 'I' for Inactive)
REMARK    1  A    between atoms: C_2  and  C_3 
REMARK    2  A    between atoms: C_6  and  N_7 
REMARK    3  A    between atoms: N_7  and  S_8 
REMARK    4  A    between atoms: S_8  and  C_9 
REMARK    5  A    between atoms: C_15  and  C_16 
REMARK       I    between atoms: C_16  and  N_17 
REMARK    6  A    between atoms: N_17  and  C_18 
REMARK    7  A    between atoms: C_18  and  C_19 
REMARK    8  A    between atoms: C_19  and  O_20 
ROOT
HETATM    1  C   UNL     1      41.574 -13.450   4.138  1.00  0.00     0.081 A 
HETATM    2  C   UNL     1      41.862 -12.412   5.026  1.00  0.00     0.043 A 
HETATM    3  C   UNL     1      41.014 -12.198   6.116  1.00  0.00     0.043 A 
HETATM    4  C   UNL     1      39.904 -13.029   6.343  1.00  0.00     0.046 A 
HETATM    5  N   UNL     1      39.059 -12.777   7.430  1.00  0.00    -0.364 N 
HETATM    6  C   UNL     1      39.359 -11.792   8.338  1.00  0.00     0.109 A 
HETATM    7  C   UNL     1      40.390 -10.932   8.246  1.00  0.00     0.098 A 
HETATM    8  C   UNL     1      41.283 -11.080   7.061  1.00  0.00     0.201 A 
HETATM    9  O   UNL     1      42.216 -10.310   6.850  1.00  0.00    -0.286 OA
HETATM   10  C   UNL     1      39.626 -14.057   5.435  1.00  0.00     0.032 A 
HETATM   11  C   UNL     1      40.465 -14.277   4.337  1.00  0.00     0.027 A 
HETATM   12  H   UNL     1      38.358 -13.465   7.683  1.00  0.00     0.165 HD
ENDROOT
BRANCH   1  13
HETATM   13  S   UNL     1      42.684 -13.752   2.778  1.00  0.00     0.263 S 
HETATM   14  O   UNL     1      43.988 -14.059   3.323  1.00  0.00    -0.200 OA
HETATM   15  O   UNL     1      42.500 -12.668   1.837  1.00  0.00    -0.200 OA
BRANCH  13  16
HETATM   16  N   UNL     1      42.024 -15.127   2.058  1.00  0.00    -0.281 N 
HETATM   17  H   UNL     1      41.007 -15.106   2.030  1.00  0.00     0.179 HD
BRANCH  16  18
HETATM   18  C   UNL     1      42.659 -16.384   2.248  1.00  0.00     0.042 A 
HETATM   19  C   UNL     1      42.400 -17.125   3.399  1.00  0.00     0.030 A 
HETATM   20  C   UNL     1      43.024 -18.361   3.586  1.00  0.00     0.010 A 
HETATM   21  C   UNL     1      43.903 -18.876   2.620  1.00  0.00    -0.055 A 
HETATM   22  C   UNL     1      44.167 -18.107   1.478  1.00  0.00     0.010 A 
HETATM   23  C   UNL     1      43.552 -16.866   1.295  1.00  0.00     0.030 A 
BRANCH  21  24
HETATM   24  C   UNL     1      44.579 -20.227   2.783  1.00  0.00     0.010 C 
HETATM   25  C   UNL     1      43.893 -21.328   1.969  1.00  0.00     0.015 C 
HETATM   26  C   UNL     1      44.671 -20.617   4.260  1.00  0.00     0.015 C 
ENDBRANCH  21  24
ENDBRANCH  16  18
ENDBRANCH  13  16
ENDBRANCH   1  13
BRANCH   7  27
HETATM   27  C   UNL     1      40.552  -9.902   9.311  1.00  0.00     0.257 C 
HETATM   28  N   UNL     1      41.725  -9.961  10.016  1.00  0.00    -0.355 N 
HETATM   29  H   UNL     1      42.348 -10.756   9.868  1.00  0.00     0.162 HD
HETATM   30  O   UNL     1      39.686  -9.059   9.530  1.00  0.00    -0.267 OA
BRANCH  28  31
HETATM   31  C   UNL     1      42.017  -9.068  11.122  1.00  0.00     0.149 C 
BRANCH  31  32
HETATM   32  C   UNL     1      42.222  -9.816  12.440  1.00  0.00     0.186 C 
BRANCH  32  33
HETATM   33  O   UNL     1      41.815 -11.180  12.274  1.00  0.00    -0.394 OA
HETATM   34  C   UNL     1      40.601 -11.448  12.962  1.00  0.00     0.201 C 
ENDBRANCH  32  33
ENDBRANCH  31  32
ENDBRANCH  28  31
ENDBRANCH   7  27
TORSDOF 8
ENDMDL
MODEL 4
REMARK VINA RESULT:      -7.9      3.602      7.337
REMARK  8 active torsions:
REMARK  status: ('A' for Active; 'I' for Inactive)
REMARK    1  A    between atoms: C_2  and  C_3 
REMARK    2  A    between atoms: C_6  and  N_7 
REMARK    3  A    between atoms: N_7  and  S_8 
REMARK    4  A    between atoms: S_8  and  C_9 
REMARK    5  A    between atoms: C_15  and  C_16 
REMARK       I    between atoms: C_16  and  N_17 
REMARK    6  A    between atoms: N_17  and  C_18 
REMARK    7  A    between atoms: C_18  and  C_19 
REMARK    8  A    between atoms: C_19  and  O_20 
ROOT
HETATM    1  C   UNL     1      40.376 -13.925   2.739  1.00  0.00     0.081 A 
HETATM    2  C   UNL     1      41.071 -13.592   3.904  1.00  0.00     0.043 A 
HETATM    3  C   UNL     1      40.633 -12.505   4.667  1.00  0.00     0.043 A 
HETATM    4  C   UNL     1      39.492 -11.772   4.294  1.00  0.00     0.046 A 
HETATM    5  N   UNL     1      39.090 -10.675   5.065  1.00  0.00    -0.364 N 
HETATM    6  C   UNL     1      39.734 -10.369   6.238  1.00  0.00     0.109 A 
HETATM    7  C   UNL     1      40.829 -10.989   6.713  1.00  0.00     0.098 A 
HETATM    8  C   UNL     1      41.372 -12.111   5.896  1.00  0.00     0.201 A 
HETATM    9  O   UNL     1      42.401 -12.704   6.209  1.00  0.00    -0.286 OA
HETATM   10  C   UNL     1      38.817 -12.116   3.118  1.00  0.00     0.032 A 
HETATM   11  C   UNL     1      39.251 -13.198   2.343  1.00  0.00     0.027 A 
HETATM   12  H   UNL     1      38.186 -10.251   4.888  1.00  0.00     0.165 HD
ENDROOT
BRANCH   1  13
HETATM   13  S   UNL     1      40.906 -15.340   1.797  1.00  0.00     0.263 S 
HETATM   14  O   UNL     1      40.842 -14.993   0.394  1.00  0.00    -0.200 OA
HETATM   15  O   UNL     1      40.192 -16.485   2.320  1.00  0.00    -0.200 OA
BRANCH  13  16
HETATM   16  N   UNL     1      42.514 -15.521   2.271  1.00  0.00    -0.281 N 
HETATM   17  H   UNL     1      43.116 -14.785   1.907  1.00  0.00     0.179 HD
BRANCH  16  18
HETATM   18  C   UNL     1      43.060 -16.827   2.395  1.00  0.00     0.042 A 
HETATM   19  C   UNL     1      43.261 -17.605   1.257  1.00  0.00     0.030 A 
HETATM   20  C   UNL     1      43.798 -18.890   1.379  1.00  0.00     0.010 A 
HETATM   21  C   UNL     1      44.151 -19.405   2.636  1.00  0.00    -0.055 A 
HETATM   22  C   UNL     1      43.921 -18.615   3.772  1.00  0.00     0.010 A 
HETATM   23  C   UNL     1      43.375 -17.335   3.652  1.00  0.00     0.030 A 
BRANCH  21  24
HETATM   24  C   UNL     1      44.757 -20.789   2.799  1.00  0.00     0.010 C 
HETATM   25  C   UNL     1      44.017 -21.852   1.982  1.00  0.00     0.015 C 
HETATM   26  C   UNL     1      44.827 -21.185   4.275  1.00  0.00     0.015 C 
ENDBRANCH  21  24
ENDBRANCH  16  18
ENDBRANCH  13  16
ENDBRANCH   1  13
BRANCH   7  27
HETATM   27  C   UNL     1      41.418 -10.506   7.995  1.00  0.00     0.257 C 
HETATM   28  N   UNL     1      40.985 -11.150   9.124  1.00  0.00    -0.355 N 
HETATM   29  H   UNL     1      40.216 -11.817   9.045  1.00  0.00     0.162 HD
HETATM   30  O   UNL     1      42.238  -9.591   8.024  1.00  0.00    -0.267 OA
BRANCH  28  31
HETATM   31  C   UNL     1      41.417 -10.768  10.455  1.00  0.00     0.149 C 
BRANCH  31  32
HETATM   32  C   UNL     1      40.444 -11.230  11.541  1.00  0.00     0.186 C 
BRANCH  32  33
HETATM   33  O   UNL     1      41.184 -11.576  12.718  1.00  0.00    -0.394 OA
HETATM   34  C   UNL     1      42.573 -11.327  12.551  1.00  0.00     0.201 C 
ENDBRANCH  32  33
ENDBRANCH  31  32
ENDBRANCH  28  31
ENDBRANCH   7  27
TORSDOF 8
ENDMDL
MODEL 5
REMARK VINA RESULT:      -7.8      3.157      6.568
REMARK  8 active torsions:
REMARK  status: ('A' for Active; 'I' for Inactive)
REMARK    1  A    between atoms: C_2  and  C_3 
REMARK    2  A    between atoms: C_6  and  N_7 
REMARK    3  A    between atoms: N_7  and  S_8 
REMARK    4  A    between atoms: S_8  and  C_9 
REMARK    5  A    between atoms: C_15  and  C_16 
REMARK       I    between atoms: C_16  and  N_17 
REMARK    6  A    between atoms: N_17  and  C_18 
REMARK    7  A    between atoms: C_18  and  C_19 
REMARK    8  A    between atoms: C_19  and  O_20 
ROOT
HETATM    1  C   UNL     1      41.593 -14.731   1.569  1.00  0.00     0.081 A 
HETATM    2  C   UNL     1      41.206 -14.531   2.895  1.00  0.00     0.043 A 
HETATM    3  C   UNL     1      41.132 -13.226   3.391  1.00  0.00     0.043 A 
HETATM    4  C   UNL     1      41.411 -12.122   2.567  1.00  0.00     0.046 A 
HETATM    5  N   UNL     1      41.352 -10.828   3.096  1.00  0.00    -0.364 N 
HETATM    6  C   UNL     1      40.923 -10.616   4.383  1.00  0.00     0.109 A 
HETATM    7  C   UNL     1      40.620 -11.577   5.274  1.00  0.00     0.098 A 
HETATM    8  C   UNL     1      40.751 -12.988   4.809  1.00  0.00     0.201 A 
HETATM    9  O   UNL     1      40.556 -13.940   5.560  1.00  0.00    -0.286 OA
HETATM   10  C   UNL     1      41.808 -12.344   1.243  1.00  0.00     0.032 A 
HETATM   11  C   UNL     1      41.891 -13.647   0.738  1.00  0.00     0.027 A 
HETATM   12  H   UNL     1      41.395 -10.033   2.467  1.00  0.00     0.165 HD
ENDROOT
BRANCH   1  13
HETATM   13  S   UNL     1      41.637 -16.391   0.926  1.00  0.00     0.263 S 
HETATM   14  O   UNL     1      41.293 -16.337  -0.478  1.00  0.00    -0.200 OA
HETATM   15  O   UNL     1      40.891 -17.219   1.849  1.00  0.00    -0.200 OA
BRANCH  13  16
HETATM   16  N   UNL     1      43.258 -16.816   1.104  1.00  0.00    -0.281 N 
HETATM   17  H   UNL     1      43.749 -16.877   0.214  1.00  0.00     0.179 HD
BRANCH  16  18
HETATM   18  C   UNL     1      43.631 -17.722   2.132  1.00  0.00     0.042 A 
HETATM   19  C   UNL     1      43.707 -17.282   3.452  1.00  0.00     0.030 A 
HETATM   20  C   UNL     1      44.074 -18.173   4.464  1.00  0.00     0.010 A 
HETATM   21  C   UNL     1      44.357 -19.516   4.170  1.00  0.00    -0.055 A 
HETATM   22  C   UNL     1      44.296 -19.936   2.834  1.00  0.00     0.010 A 
HETATM   23  C   UNL     1      43.940 -19.043   1.820  1.00  0.00     0.030 A 
BRANCH  21  24
HETATM   24  C   UNL     1      44.737 -20.515   5.251  1.00  0.00     0.010 C 
HETATM   25  C   UNL     1      44.745 -21.958   4.737  1.00  0.00     0.015 C 
HETATM   26  C   UNL     1      43.823 -20.374   6.470  1.00  0.00     0.015 C 
ENDBRANCH  21  24
ENDBRANCH  16  18
ENDBRANCH  13  16
ENDBRANCH   1  13
BRANCH   7  27
HETATM   27  C   UNL     1      40.197 -11.168   6.644  1.00  0.00     0.257 C 
HETATM   28  N   UNL     1      41.177 -11.204   7.600  1.00  0.00    -0.355 N 
HETATM   29  H   UNL     1      42.081 -11.616   7.363  1.00  0.00     0.162 HD
HETATM   30  O   UNL     1      39.044 -10.820   6.885  1.00  0.00    -0.267 OA
BRANCH  28  31
HETATM   31  C   UNL     1      40.921 -10.890   8.993  1.00  0.00     0.149 C 
BRANCH  31  32
HETATM   32  C   UNL     1      42.202 -10.580   9.769  1.00  0.00     0.186 C 
BRANCH  32  33
HETATM   33  O   UNL     1      43.322 -10.672   8.880  1.00  0.00    -0.394 OA
HETATM   34  C   UNL     1      44.277 -11.619   9.342  1.00  0.00     0.201 C 
ENDBRANCH  32  33
ENDBRANCH  31  32
ENDBRANCH  28  31
ENDBRANCH   7  27
TORSDOF 8
ENDMDL
MODEL 6
REMARK VINA RESULT:      -7.8      2.538      4.207
REMARK  8 active torsions:
REMARK  status: ('A' for Active; 'I' for Inactive)
REMARK    1  A    between atoms: C_2  and  C_3 
REMARK    2  A    between atoms: C_6  and  N_7 
REMARK    3  A    between atoms: N_7  and  S_8 
REMARK    4  A    between atoms: S_8  and  C_9 
REMARK    5  A    between atoms: C_15  and  C_16 
REMARK       I    between atoms: C_16  and  N_17 
REMARK    6  A    between atoms: N_17  and  C_18 
REMARK    7  A    between atoms: C_18  and  C_19 
REMARK    8  A    between atoms: C_19  and  O_20 
ROOT
HETATM    1  C   UNL     1      40.765 -15.551   3.829  1.00  0.00     0.081 A 
HETATM    2  C   UNL     1      40.279 -14.242   3.780  1.00  0.00     0.043 A 
HETATM    3  C   UNL     1      39.450 -13.866   2.719  1.00  0.00     0.043 A 
HETATM    4  C   UNL     1      39.079 -14.791   1.728  1.00  0.00     0.046 A 
HETATM    5  N   UNL     1      38.267 -14.381   0.665  1.00  0.00    -0.364 N 
HETATM    6  C   UNL     1      37.742 -13.112   0.632  1.00  0.00     0.109 A 
HETATM    7  C   UNL     1      38.009 -12.134   1.516  1.00  0.00     0.098 A 
HETATM    8  C   UNL     1      38.944 -12.470   2.628  1.00  0.00     0.201 A 
HETATM    9  O   UNL     1      39.300 -11.633   3.453  1.00  0.00    -0.286 OA
HETATM   10  C   UNL     1      39.585 -16.094   1.790  1.00  0.00     0.032 A 
HETATM   11  C   UNL     1      40.421 -16.480   2.844  1.00  0.00     0.027 A 
HETATM   12  H   UNL     1      37.872 -15.079   0.044  1.00  0.00     0.165 HD
ENDROOT
BRANCH   1  13
HETATM   13  S   UNL     1      41.779 -16.041   5.208  1.00  0.00     0.263 S 
HETATM   14  O   UNL     1      41.270 -17.296   5.715  1.00  0.00    -0.200 OA
HETATM   15  O   UNL     1      41.909 -14.883   6.067  1.00  0.00    -0.200 OA
BRANCH  13  16
HETATM   16  N   UNL     1      43.287 -16.279   4.494  1.00  0.00    -0.281 N 
HETATM   17  H   UNL     1      43.593 -15.477   3.945  1.00  0.00     0.179 HD
BRANCH  16  18
HETATM   18  C   UNL     1      43.643 -17.575   4.033  1.00  0.00     0.042 A 
HETATM   19  C   UNL     1      44.137 -18.519   4.930  1.00  0.00     0.030 A 
HETATM   20  C   UNL     1      44.487 -19.794   4.477  1.00  0.00     0.010 A 
HETATM   21  C   UNL     1      44.335 -20.143   3.126  1.00  0.00    -0.055 A 
HETATM   22  C   UNL     1      43.855 -19.173   2.234  1.00  0.00     0.010 A 
HETATM   23  C   UNL     1      43.516 -17.895   2.684  1.00  0.00     0.030 A 
BRANCH  21  24
HETATM   24  C   UNL     1      44.684 -21.527   2.607  1.00  0.00     0.010 C 
HETATM   25  C   UNL     1      43.835 -21.932   1.399  1.00  0.00     0.015 C 
HETATM   26  C   UNL     1      44.581 -22.571   3.721  1.00  0.00     0.015 C 
ENDBRANCH  21  24
ENDBRANCH  16  18
ENDBRANCH  13  16
ENDBRANCH   1  13
BRANCH   7  27
HETATM   27  C   UNL     1      37.372 -10.801   1.313  1.00  0.00     0.257 C 
HETATM   28  N   UNL     1      36.598 -10.352   2.350  1.00  0.00    -0.355 N 
HETATM   29  H   UNL     1      36.401 -10.986   3.126  1.00  0.00     0.162 HD
HETATM   30  O   UNL     1      37.541 -10.157   0.281  1.00  0.00    -0.267 OA
BRANCH  28  31
HETATM   31  C   UNL     1      35.864  -9.102   2.292  1.00  0.00     0.149 C 
BRANCH  31  32
HETATM   32  C   UNL     1      34.363  -9.293   2.519  1.00  0.00     0.186 C 
BRANCH  32  33
HETATM   33  O   UNL     1      33.914 -10.422   1.760  1.00  0.00    -0.394 OA
HETATM   34  C   UNL     1      32.589 -10.794   2.115  1.00  0.00     0.201 C 
ENDBRANCH  32  33
ENDBRANCH  31  32
ENDBRANCH  28  31
ENDBRANCH   7  27
TORSDOF 8
ENDMDL
MODEL 7
REMARK VINA RESULT:      -7.5      3.481      7.435
REMARK  8 active torsions:
REMARK  status: ('A' for Active; 'I' for Inactive)
REMARK    1  A    between atoms: C_2  and  C_3 
REMARK    2  A    between atoms: C_6  and  N_7 
REMARK    3  A    between atoms: N_7  and  S_8 
REMARK    4  A    between atoms: S_8  and  C_9 
REMARK    5  A    between atoms: C_15  and  C_16 
REMARK       I    between atoms: C_16  and  N_17 
REMARK    6  A    between atoms: N_17  and  C_18 
REMARK    7  A    between atoms: C_18  and  C_19 
REMARK    8  A    between atoms: C_19  and  O_20 
ROOT
HETATM    1  C   UNL     1      40.851 -14.290   1.373  1.00  0.00     0.081 A 
HETATM    2  C   UNL     1      42.032 -14.107   2.094  1.00  0.00     0.043 A 
HETATM    3  C   UNL     1      41.968 -14.006   3.487  1.00  0.00     0.043 A 
HETATM    4  C   UNL     1      40.741 -14.118   4.164  1.00  0.00     0.046 A 
HETATM    5  N   UNL     1      40.703 -13.989   5.557  1.00  0.00    -0.364 N 
HETATM    6  C   UNL     1      41.862 -13.860   6.281  1.00  0.00     0.109 A 
HETATM    7  C   UNL     1      43.098 -13.748   5.763  1.00  0.00     0.098 A 
HETATM    8  C   UNL     1      43.209 -13.781   4.276  1.00  0.00     0.201 A 
HETATM    9  O   UNL     1      44.282 -13.627   3.701  1.00  0.00    -0.286 OA
HETATM   10  C   UNL     1      39.567 -14.289   3.422  1.00  0.00     0.032 A 
HETATM   11  C   UNL     1      39.620 -14.386   2.027  1.00  0.00     0.027 A 
HETATM   12  H   UNL     1      39.851 -14.227   6.054  1.00  0.00     0.165 HD
ENDROOT
BRANCH   1  13
HETATM   13  S   UNL     1      40.942 -14.468  -0.397  1.00  0.00     0.263 S 
HETATM   14  O   UNL     1      42.134 -13.788  -0.855  1.00  0.00    -0.200 OA
HETATM   15  O   UNL     1      39.636 -14.129  -0.921  1.00  0.00    -0.200 OA
BRANCH  13  16
HETATM   16  N   UNL     1      41.119 -16.133  -0.594  1.00  0.00    -0.281 N 
HETATM   17  H   UNL     1      40.337 -16.555  -1.091  1.00  0.00     0.179 HD
BRANCH  16  18
HETATM   18  C   UNL     1      41.743 -16.893   0.432  1.00  0.00     0.042 A 
HETATM   19  C   UNL     1      43.131 -17.004   0.465  1.00  0.00     0.030 A 
HETATM   20  C   UNL     1      43.745 -17.752   1.474  1.00  0.00     0.010 A 
HETATM   21  C   UNL     1      42.981 -18.385   2.466  1.00  0.00    -0.055 A 
HETATM   22  C   UNL     1      41.584 -18.279   2.404  1.00  0.00     0.010 A 
HETATM   23  C   UNL     1      40.968 -17.541   1.389  1.00  0.00     0.030 A 
BRANCH  21  24
HETATM   24  C   UNL     1      43.620 -19.186   3.588  1.00  0.00     0.010 C 
HETATM   25  C   UNL     1      44.231 -18.293   4.671  1.00  0.00     0.015 C 
HETATM   26  C   UNL     1      44.659 -20.165   3.037  1.00  0.00     0.015 C 
ENDBRANCH  21  24
ENDBRANCH  16  18
ENDBRANCH  13  16
ENDBRANCH   1  13
BRANCH   7  27
HETATM   27  C   UNL     1      44.248 -13.585   6.698  1.00  0.00     0.257 C 
HETATM   28  N   UNL     1      43.955 -12.992   7.898  1.00  0.00    -0.355 N 
HETATM   29  H   UNL     1      43.025 -12.591   8.033  1.00  0.00     0.162 HD
HETATM   30  O   UNL     1      45.379 -13.965   6.402  1.00  0.00    -0.267 OA
BRANCH  28  31
HETATM   31  C   UNL     1      44.967 -12.709   8.897  1.00  0.00     0.149 C 
BRANCH  31  32
HETATM   32  C   UNL     1      44.923 -11.259   9.382  1.00  0.00     0.186 C 
BRANCH  32  33
HETATM   33  O   UNL     1      43.877 -11.121  10.352  1.00  0.00    -0.394 OA
HETATM   34  C   UNL     1      44.017 -12.064  11.406  1.00  0.00     0.201 C 
ENDBRANCH  32  33
ENDBRANCH  31  32
ENDBRANCH  28  31
ENDBRANCH   7  27
TORSDOF 8
ENDMDL
MODEL 8
REMARK VINA RESULT:      -7.5      3.729      9.039
REMARK  8 active torsions:
REMARK  status: ('A' for Active; 'I' for Inactive)
REMARK    1  A    between atoms: C_2  and  C_3 
REMARK    2  A    between atoms: C_6  and  N_7 
REMARK    3  A    between atoms: N_7  and  S_8 
REMARK    4  A    between atoms: S_8  and  C_9 
REMARK    5  A    between atoms: C_15  and  C_16 
REMARK       I    between atoms: C_16  and  N_17 
REMARK    6  A    between atoms: N_17  and  C_18 
REMARK    7  A    between atoms: C_18  and  C_19 
REMARK    8  A    between atoms: C_19  and  O_20 
ROOT
HETATM    1  C   UNL     1      40.427 -14.617  -1.251  1.00  0.00     0.081 A 
HETATM    2  C   UNL     1      41.398 -15.190  -0.428  1.00  0.00     0.043 A 
HETATM    3  C   UNL     1      41.159 -15.274   0.947  1.00  0.00     0.043 A 
HETATM    4  C   UNL     1      39.949 -14.819   1.499  1.00  0.00     0.046 A 
HETATM    5  N   UNL     1      39.746 -14.893   2.882  1.00  0.00    -0.364 N 
HETATM    6  C   UNL     1      40.671 -15.501   3.695  1.00  0.00     0.109 A 
HETATM    7  C   UNL     1      41.862 -15.982   3.298  1.00  0.00     0.098 A 
HETATM    8  C   UNL     1      42.190 -15.853   1.850  1.00  0.00     0.201 A 
HETATM    9  O   UNL     1      43.275 -16.206   1.395  1.00  0.00    -0.286 OA
HETATM   10  C   UNL     1      38.993 -14.237   0.659  1.00  0.00     0.032 A 
HETATM   11  C   UNL     1      39.225 -14.144  -0.718  1.00  0.00     0.027 A 
HETATM   12  H   UNL     1      38.820 -14.716   3.258  1.00  0.00     0.165 HD
ENDROOT
BRANCH   1  13
HETATM   13  S   UNL     1      40.713 -14.558  -3.007  1.00  0.00     0.263 S 
HETATM   14  O   UNL     1      39.772 -13.623  -3.584  1.00  0.00    -0.200 OA
HETATM   15  O   UNL     1      40.785 -15.929  -3.468  1.00  0.00    -0.200 OA
BRANCH  13  16
HETATM   16  N   UNL     1      42.276 -13.937  -3.109  1.00  0.00    -0.281 N 
HETATM   17  H   UNL     1      42.983 -14.595  -2.784  1.00  0.00     0.179 HD
BRANCH  16  18
HETATM   18  C   UNL     1      42.493 -12.554  -2.864  1.00  0.00     0.042 A 
HETATM   19  C   UNL     1      42.377 -11.638  -3.907  1.00  0.00     0.030 A 
HETATM   20  C   UNL     1      42.590 -10.278  -3.666  1.00  0.00     0.010 A 
HETATM   21  C   UNL     1      42.909  -9.817  -2.379  1.00  0.00    -0.055 A 
HETATM   22  C   UNL     1      43.042 -10.756  -1.346  1.00  0.00     0.010 A 
HETATM   23  C   UNL     1      42.840 -12.117  -1.588  1.00  0.00     0.030 A 
BRANCH  21  24
HETATM   24  C   UNL     1      43.124  -8.343  -2.081  1.00  0.00     0.010 C 
HETATM   25  C   UNL     1      44.300  -8.103  -1.130  1.00  0.00     0.015 C 
HETATM   26  C   UNL     1      41.844  -7.702  -1.540  1.00  0.00     0.015 C 
ENDBRANCH  21  24
ENDBRANCH  16  18
ENDBRANCH  13  16
ENDBRANCH   1  13
BRANCH   7  27
HETATM   27  C   UNL     1      42.760 -16.587   4.323  1.00  0.00     0.257 C 
HETATM   28  N   UNL     1      43.390 -17.745   3.949  1.00  0.00    -0.355 N 
HETATM   29  H   UNL     1      43.123 -18.185   3.067  1.00  0.00     0.162 HD
HETATM   30  O   UNL     1      42.919 -16.070   5.427  1.00  0.00    -0.267 OA
BRANCH  28  31
HETATM   31  C   UNL     1      44.253 -18.489   4.846  1.00  0.00     0.149 C 
BRANCH  31  32
HETATM   32  C   UNL     1      43.472 -19.438   5.756  1.00  0.00     0.186 C 
BRANCH  32  33
HETATM   33  O   UNL     1      43.836 -19.186   7.119  1.00  0.00    -0.394 OA
HETATM   34  C   UNL     1      44.923 -18.274   7.207  1.00  0.00     0.201 C 
ENDBRANCH  32  33
ENDBRANCH  31  32
ENDBRANCH  28  31
ENDBRANCH   7  27
TORSDOF 8
ENDMDL
MODEL 9
REMARK VINA RESULT:      -7.5      2.517      3.208
REMARK  8 active torsions:
REMARK  status: ('A' for Active; 'I' for Inactive)
REMARK    1  A    between atoms: C_2  and  C_3 
REMARK    2  A    between atoms: C_6  and  N_7 
REMARK    3  A    between atoms: N_7  and  S_8 
REMARK    4  A    between atoms: S_8  and  C_9 
REMARK    5  A    between atoms: C_15  and  C_16 
REMARK       I    between atoms: C_16  and  N_17 
REMARK    6  A    between atoms: N_17  and  C_18 
REMARK    7  A    between atoms: C_18  and  C_19 
REMARK    8  A    between atoms: C_19  and  O_20 
ROOT
HETATM    1  C   UNL     1      41.338 -14.789   2.553  1.00  0.00     0.081 A 
HETATM    2  C   UNL     1      41.538 -13.922   1.477  1.00  0.00     0.043 A 
HETATM    3  C   UNL     1      40.490 -13.703   0.578  1.00  0.00     0.043 A 
HETATM    4  C   UNL     1      39.239 -14.316   0.763  1.00  0.00     0.046 A 
HETATM    5  N   UNL     1      38.215 -14.097  -0.166  1.00  0.00    -0.364 N 
HETATM    6  C   UNL     1      38.383 -13.208  -1.199  1.00  0.00     0.109 A 
HETATM    7  C   UNL     1      39.521 -12.551  -1.486  1.00  0.00     0.098 A 
HETATM    8  C   UNL     1      40.687 -12.807  -0.593  1.00  0.00     0.201 A 
HETATM    9  O   UNL     1      41.788 -12.304  -0.803  1.00  0.00    -0.286 OA
HETATM   10  C   UNL     1      39.062 -15.190   1.841  1.00  0.00     0.032 A 
HETATM   11  C   UNL     1      40.106 -15.421   2.743  1.00  0.00     0.027 A 
HETATM   12  H   UNL     1      37.274 -14.407   0.052  1.00  0.00     0.165 HD
ENDROOT
BRANCH   1  13
HETATM   13  S   UNL     1      42.658 -15.027   3.723  1.00  0.00     0.263 S 
HETATM   14  O   UNL     1      42.595 -13.956   4.694  1.00  0.00    -0.200 OA
HETATM   15  O   UNL     1      43.861 -15.273   2.957  1.00  0.00    -0.200 OA
BRANCH  13  16
HETATM   16  N   UNL     1      42.248 -16.490   4.454  1.00  0.00    -0.281 N 
HETATM   17  H   UNL     1      42.075 -16.395   5.453  1.00  0.00     0.179 HD
BRANCH  16  18
HETATM   18  C   UNL     1      42.853 -17.690   3.994  1.00  0.00     0.042 A 
HETATM   19  C   UNL     1      43.821 -18.321   4.772  1.00  0.00     0.030 A 
HETATM   20  C   UNL     1      44.416 -19.502   4.321  1.00  0.00     0.010 A 
HETATM   21  C   UNL     1      44.042 -20.072   3.094  1.00  0.00    -0.055 A 
HETATM   22  C   UNL     1      43.081 -19.412   2.315  1.00  0.00     0.010 A 
HETATM   23  C   UNL     1      42.494 -18.225   2.760  1.00  0.00     0.030 A 
BRANCH  21  24
HETATM   24  C   UNL     1      44.654 -21.367   2.586  1.00  0.00     0.010 C 
HETATM   25  C   UNL     1      43.953 -21.893   1.331  1.00  0.00     0.015 C 
HETATM   26  C   UNL     1      44.676 -22.429   3.686  1.00  0.00     0.015 C 
ENDBRANCH  21  24
ENDBRANCH  16  18
ENDBRANCH  13  16
ENDBRANCH   1  13
BRANCH   7  27
HETATM   27  C   UNL     1      39.536 -11.641  -2.667  1.00  0.00     0.257 C 
HETATM   28  N   UNL     1      40.559 -11.843  -3.556  1.00  0.00    -0.355 N 
HETATM   29  H   UNL     1      41.303 -12.498  -3.308  1.00  0.00     0.162 HD
HETATM   30  O   UNL     1      38.681 -10.772  -2.823  1.00  0.00    -0.267 OA
BRANCH  28  31
HETATM   31  C   UNL     1      40.751 -11.010  -4.728  1.00  0.00     0.149 C 
BRANCH  31  32
HETATM   32  C   UNL     1      42.227 -10.712  -4.998  1.00  0.00     0.186 C 
BRANCH  32  33
HETATM   33  O   UNL     1      42.578  -9.473  -4.371  1.00  0.00    -0.394 OA
HETATM   34  C   UNL     1      41.596  -8.473  -4.609  1.00  0.00     0.201 C 
ENDBRANCH  32  33
ENDBRANCH  31  32
ENDBRANCH  28  31
ENDBRANCH   7  27
TORSDOF 8
ENDMDL
MODEL 10
REMARK VINA RESULT:      -7.4      2.786      3.822
REMARK  8 active torsions:
REMARK  status: ('A' for Active; 'I' for Inactive)
REMARK    1  A    between atoms: C_2  and  C_3 
REMARK    2  A    between atoms: C_6  and  N_7 
REMARK    3  A    between atoms: N_7  and  S_8 
REMARK    4  A    between atoms: S_8  and  C_9 
REMARK    5  A    between atoms: C_15  and  C_16 
REMARK       I    between atoms: C_16  and  N_17 
REMARK    6  A    between atoms: N_17  and  C_18 
REMARK    7  A    between atoms: C_18  and  C_19 
REMARK    8  A    between atoms: C_19  and  O_20 
ROOT
HETATM    1  C   UNL     1      41.488 -15.455   3.634  1.00  0.00     0.081 A 
HETATM    2  C   UNL     1      41.856 -14.352   2.861  1.00  0.00     0.043 A 
HETATM    3  C   UNL     1      41.398 -14.266   1.542  1.00  0.00     0.043 A 
HETATM    4  C   UNL     1      40.554 -15.252   1.003  1.00  0.00     0.046 A 
HETATM    5  N   UNL     1      40.131 -15.152  -0.327  1.00  0.00    -0.364 N 
HETATM    6  C   UNL     1      40.443 -14.048  -1.081  1.00  0.00     0.109 A 
HETATM    7  C   UNL     1      41.233 -13.032  -0.689  1.00  0.00     0.098 A 
HETATM    8  C   UNL     1      41.800 -13.116   0.688  1.00  0.00     0.201 A 
HETATM    9  O   UNL     1      42.580 -12.272   1.122  1.00  0.00    -0.286 OA
HETATM   10  C   UNL     1      40.207 -16.355   1.791  1.00  0.00     0.032 A 
HETATM   11  C   UNL     1      40.664 -16.455   3.110  1.00  0.00     0.027 A 
HETATM   12  H   UNL     1      39.401 -15.771  -0.663  1.00  0.00     0.165 HD
ENDROOT
BRANCH   1  13
HETATM   13  S   UNL     1      42.030 -15.537   5.328  1.00  0.00     0.263 S 
HETATM   14  O   UNL     1      41.183 -16.480   6.025  1.00  0.00    -0.200 OA
HETATM   15  O   UNL     1      42.173 -14.173   5.791  1.00  0.00    -0.200 OA
BRANCH  13  16
HETATM   16  N   UNL     1      43.591 -16.160   5.189  1.00  0.00    -0.281 N 
HETATM   17  H   UNL     1      44.232 -15.514   4.732  1.00  0.00     0.179 HD
BRANCH  16  18
HETATM   18  C   UNL     1      43.766 -17.550   4.953  1.00  0.00     0.042 A 
HETATM   19  C   UNL     1      43.991 -18.412   6.024  1.00  0.00     0.030 A 
HETATM   20  C   UNL     1      44.165 -19.780   5.792  1.00  0.00     0.010 A 
HETATM   21  C   UNL     1      44.103 -20.302   4.491  1.00  0.00    -0.055 A 
HETATM   22  C   UNL     1      43.897 -19.415   3.424  1.00  0.00     0.010 A 
HETATM   23  C   UNL     1      43.734 -18.047   3.653  1.00  0.00     0.030 A 
BRANCH  21  24
HETATM   24  C   UNL     1      44.265 -21.786   4.209  1.00  0.00     0.010 C 
HETATM   25  C   UNL     1      45.320 -22.440   5.105  1.00  0.00     0.015 C 
HETATM   26  C   UNL     1      44.576 -22.031   2.731  1.00  0.00     0.015 C 
ENDBRANCH  21  24
ENDBRANCH  16  18
ENDBRANCH  13  16
ENDBRANCH   1  13
BRANCH   7  27
HETATM   27  C   UNL     1      41.492 -11.922  -1.650  1.00  0.00     0.257 C 
HETATM   28  N   UNL     1      42.696 -11.285  -1.506  1.00  0.00    -0.355 N 
HETATM   29  H   UNL     1      43.278 -11.510  -0.698  1.00  0.00     0.162 HD
HETATM   30  O   UNL     1      40.673 -11.611  -2.511  1.00  0.00    -0.267 OA
BRANCH  28  31
HETATM   31  C   UNL     1      43.081 -10.149  -2.323  1.00  0.00     0.149 C 
BRANCH  31  32
HETATM   32  C   UNL     1      43.761  -9.047  -1.510  1.00  0.00     0.186 C 
BRANCH  32  33
HETATM   33  O   UNL     1      43.418  -9.205  -0.128  1.00  0.00    -0.394 OA
HETATM   34  C   UNL     1      42.652  -8.106   0.348  1.00  0.00     0.201 C 
ENDBRANCH  32  33
ENDBRANCH  31  32
ENDBRANCH  28  31
ENDBRANCH   7  27
TORSDOF 8
ENDMDL
