MODEL 1
REMARK VINA RESULT:      -9.8      0.000      0.000
REMARK  6 active torsions:
REMARK  status: ('A' for Active; 'I' for Inactive)
REMARK    1  A    between atoms: C_2  and  O_3 
REMARK    2  A    between atoms: O_3  and  C_4 
REMARK    3  A    between atoms: C_5  and  O_6 
REMARK    4  A    between atoms: O_6  and  C_7 
REMARK    5  A    between atoms: C_7  and  C_8 
REMARK    6  A    between atoms: C_18  and  C_19 
ROOT
HETATM    1  C   UNL     1      42.620 -14.274   4.672  1.00  0.00     0.103 A 
HETATM    2  C   UNL     1      43.258 -15.511   4.808  1.00  0.00     0.112 A 
HETATM    3  C   UNL     1      44.128 -15.779   5.865  1.00  0.00     0.041 A 
HETATM    4  C   UNL     1      44.343 -14.803   6.833  1.00  0.00     0.014 A 
HETATM    5  C   UNL     1      43.705 -13.553   6.741  1.00  0.00    -0.013 A 
HETATM    6  C   UNL     1      42.848 -13.298   5.649  1.00  0.00     0.050 A 
ENDROOT
BRANCH   5   7
HETATM    7  C   UNL     1      43.932 -12.497   7.799  1.00  0.00     0.219 C 
HETATM    8  N   UNL     1      44.253 -13.093   9.070  1.00  0.00    -0.332 N 
HETATM    9  C   UNL     1      44.182 -12.392  10.245  1.00  0.00     0.256 C 
HETATM   10  H   UNL     1      44.904 -13.865   9.078  1.00  0.00     0.165 HD
HETATM   11  O   UNL     1      44.776 -12.751  11.255  1.00  0.00    -0.267 OA
HETATM   12  C   UNL     1      43.323 -11.220  10.214  1.00  0.00     0.073 A 
HETATM   13  C   UNL     1      42.639 -10.927   9.057  1.00  0.00     0.088 A 
HETATM   14  C   UNL     1      43.027 -10.284  11.256  1.00  0.00    -0.023 A 
HETATM   15  S   UNL     1      41.644  -9.558   9.209  1.00  0.00    -0.074 SA
HETATM   16  N   UNL     1      42.746 -11.674   7.938  1.00  0.00    -0.358 N 
HETATM   17  C   UNL     1      42.112  -9.336  10.831  1.00  0.00     0.018 A 
HETATM   18  C   UNL     1      41.581  -8.224  11.666  1.00  0.00     0.281 C 
HETATM   19  N   UNL     1      41.847  -8.467  13.148  1.00  0.00    -0.070 N 
HETATM   20  C   UNL     1      43.270  -8.970  13.386  1.00  0.00     0.239 C 
HETATM   21  H   UNL     1      41.780  -7.549  13.602  1.00  0.00     0.279 HD
HETATM   22  C   UNL     1      40.797  -9.329  13.789  1.00  0.00     0.270 C 
HETATM   23  C   UNL     1      43.552 -10.297  12.660  1.00  0.00     0.068 C 
HETATM   24  H   UNL     1      42.359 -11.334   7.061  1.00  0.00     0.162 HD
ENDBRANCH   5   7
BRANCH   1  25
HETATM   25  O   UNL     1      41.824 -14.121   3.569  1.00  0.00    -0.349 OA
BRANCH  25  26
HETATM   26  C   UNL     1      40.424 -14.341   3.733  1.00  0.00     0.171 C 
HETATM   27  C   UNL     1      39.965 -15.287   2.637  1.00  0.00     0.034 C 
ENDBRANCH  25  26
ENDBRANCH   1  25
BRANCH   2  28
HETATM   28  O   UNL     1      43.077 -16.510   3.848  1.00  0.00    -0.272 OA
BRANCH  28  29
HETATM   29  C   UNL     1      42.565 -17.662   4.405  1.00  0.00     0.300 C 
HETATM   30  O   UNL     1      41.627 -17.784   5.178  1.00  0.00    -0.259 OA
BRANCH  29  31
HETATM   31  C   UNL     1      43.297 -18.815   3.849  1.00  0.00     0.061 A 
HETATM   32  C   UNL     1      44.226 -19.555   4.591  1.00  0.00     0.050 A 
HETATM   33 CL   UNL     1      44.585 -19.223   6.248  1.00  0.00    -0.083 Cl
HETATM   34  C   UNL     1      44.864 -20.651   4.001  1.00  0.00     0.025 A 
HETATM   35  C   UNL     1      44.569 -21.016   2.686  1.00  0.00     0.002 A 
HETATM   36  C   UNL     1      43.628 -20.292   1.955  1.00  0.00     0.001 A 
HETATM   37  C   UNL     1      42.987 -19.196   2.534  1.00  0.00     0.019 A 
ENDBRANCH  29  31
ENDBRANCH  28  29
ENDBRANCH   2  28
TORSDOF 6
ENDMDL
MODEL 2
REMARK VINA RESULT:      -8.8      1.747      3.159
REMARK  6 active torsions:
REMARK  status: ('A' for Active; 'I' for Inactive)
REMARK    1  A    between atoms: C_2  and  O_3 
REMARK    2  A    between atoms: O_3  and  C_4 
REMARK    3  A    between atoms: C_5  and  O_6 
REMARK    4  A    between atoms: O_6  and  C_7 
REMARK    5  A    between atoms: C_7  and  C_8 
REMARK    6  A    between atoms: C_18  and  C_19 
ROOT
HETATM    1  C   UNL     1      44.243 -16.145   6.411  1.00  0.00     0.103 A 
HETATM    2  C   UNL     1      43.671 -15.878   5.162  1.00  0.00     0.112 A 
HETATM    3  C   UNL     1      43.208 -14.607   4.821  1.00  0.00     0.041 A 
HETATM    4  C   UNL     1      43.349 -13.565   5.732  1.00  0.00     0.014 A 
HETATM    5  C   UNL     1      43.935 -13.790   6.990  1.00  0.00    -0.013 A 
HETATM    6  C   UNL     1      44.374 -15.090   7.320  1.00  0.00     0.050 A 
ENDROOT
BRANCH   5   7
HETATM    7  C   UNL     1      44.097 -12.654   7.975  1.00  0.00     0.219 C 
HETATM    8  N   UNL     1      44.374 -13.148   9.299  1.00  0.00    -0.332 N 
HETATM    9  C   UNL     1      44.240 -12.364  10.415  1.00  0.00     0.256 C 
HETATM   10  H   UNL     1      45.039 -13.903   9.391  1.00  0.00     0.165 HD
HETATM   11  O   UNL     1      44.798 -12.634  11.472  1.00  0.00    -0.267 OA
HETATM   12  C   UNL     1      43.361 -11.217  10.261  1.00  0.00     0.073 A 
HETATM   13  C   UNL     1      42.721 -11.025   9.058  1.00  0.00     0.088 A 
HETATM   14  C   UNL     1      43.003 -10.214  11.217  1.00  0.00    -0.023 A 
HETATM   15  S   UNL     1      41.695  -9.671   9.067  1.00  0.00    -0.074 SA
HETATM   16  N   UNL     1      42.890 -11.850   8.003  1.00  0.00    -0.358 N 
HETATM   17  C   UNL     1      42.089  -9.320  10.685  1.00  0.00     0.018 A 
HETATM   18  C   UNL     1      41.502  -8.162  11.413  1.00  0.00     0.281 C 
HETATM   19  N   UNL     1      41.709  -8.289  12.919  1.00  0.00    -0.070 N 
HETATM   20  C   UNL     1      43.130  -8.741  13.252  1.00  0.00     0.239 C 
HETATM   21  H   UNL     1      41.606  -7.341  13.300  1.00  0.00     0.279 HD
HETATM   22  C   UNL     1      40.649  -9.124  13.579  1.00  0.00     0.270 C 
HETATM   23  C   UNL     1      43.468 -10.111  12.639  1.00  0.00     0.068 C 
HETATM   24  H   UNL     1      42.534 -11.584   7.089  1.00  0.00     0.162 HD
ENDBRANCH   5   7
BRANCH   1  25
HETATM   25  O   UNL     1      44.619 -17.441   6.640  1.00  0.00    -0.349 OA
BRANCH  25  26
HETATM   26  C   UNL     1      43.850 -18.193   7.577  1.00  0.00     0.171 C 
HETATM   27  C   UNL     1      43.723 -19.612   7.053  1.00  0.00     0.034 C 
ENDBRANCH  25  26
ENDBRANCH   1  25
BRANCH   2  28
HETATM   28  O   UNL     1      43.501 -16.904   4.228  1.00  0.00    -0.272 OA
BRANCH  28  29
HETATM   29  C   UNL     1      42.171 -17.227   4.066  1.00  0.00     0.300 C 
HETATM   30  O   UNL     1      41.413 -17.759   4.863  1.00  0.00    -0.259 OA
BRANCH  29  31
HETATM   31  C   UNL     1      41.730 -16.742   2.745  1.00  0.00     0.061 A 
HETATM   32  C   UNL     1      42.301 -17.182   1.545  1.00  0.00     0.050 A 
HETATM   33 CL   UNL     1      43.554 -18.370   1.479  1.00  0.00    -0.083 Cl
HETATM   34  C   UNL     1      41.813 -16.693   0.329  1.00  0.00     0.025 A 
HETATM   35  C   UNL     1      40.754 -15.782   0.309  1.00  0.00     0.002 A 
HETATM   36  C   UNL     1      40.172 -15.361   1.503  1.00  0.00     0.001 A 
HETATM   37  C   UNL     1      40.654 -15.842   2.721  1.00  0.00     0.019 A 
ENDBRANCH  29  31
ENDBRANCH  28  29
ENDBRANCH   2  28
TORSDOF 6
ENDMDL
MODEL 3
REMARK VINA RESULT:      -8.7      6.338     10.391
REMARK  6 active torsions:
REMARK  status: ('A' for Active; 'I' for Inactive)
REMARK    1  A    between atoms: C_2  and  O_3 
REMARK    2  A    between atoms: O_3  and  C_4 
REMARK    3  A    between atoms: C_5  and  O_6 
REMARK    4  A    between atoms: O_6  and  C_7 
REMARK    5  A    between atoms: C_7  and  C_8 
REMARK    6  A    between atoms: C_18  and  C_19 
ROOT
HETATM    1  C   UNL     1      40.801 -15.877   2.571  1.00  0.00     0.103 A 
HETATM    2  C   UNL     1      41.530 -16.961   2.069  1.00  0.00     0.112 A 
HETATM    3  C   UNL     1      41.722 -17.149   0.700  1.00  0.00     0.041 A 
HETATM    4  C   UNL     1      41.205 -16.217  -0.193  1.00  0.00     0.014 A 
HETATM    5  C   UNL     1      40.481 -15.105   0.273  1.00  0.00    -0.013 A 
HETATM    6  C   UNL     1      40.281 -14.950   1.661  1.00  0.00     0.050 A 
ENDROOT
BRANCH   5   7
HETATM    7  C   UNL     1      39.928 -14.087  -0.699  1.00  0.00     0.219 C 
HETATM    8  N   UNL     1      39.209 -13.046  -0.011  1.00  0.00    -0.332 N 
HETATM    9  C   UNL     1      38.349 -12.200  -0.660  1.00  0.00     0.256 C 
HETATM   10  H   UNL     1      39.619 -12.668   0.831  1.00  0.00     0.165 HD
HETATM   11  O   UNL     1      38.019 -11.118  -0.188  1.00  0.00    -0.267 OA
HETATM   12  C   UNL     1      37.831 -12.696  -1.924  1.00  0.00     0.073 A 
HETATM   13  C   UNL     1      38.201 -13.952  -2.348  1.00  0.00     0.088 A 
HETATM   14  C   UNL     1      36.921 -12.076  -2.838  1.00  0.00    -0.023 A 
HETATM   15  S   UNL     1      37.467 -14.395  -3.814  1.00  0.00    -0.074 SA
HETATM   16  N   UNL     1      39.045 -14.739  -1.646  1.00  0.00    -0.358 N 
HETATM   17  C   UNL     1      36.637 -12.911  -3.904  1.00  0.00     0.018 A 
HETATM   18  C   UNL     1      35.721 -12.580  -5.030  1.00  0.00     0.281 C 
HETATM   19  N   UNL     1      34.829 -11.391  -4.689  1.00  0.00    -0.070 N 
HETATM   20  C   UNL     1      35.621 -10.272  -4.014  1.00  0.00     0.239 C 
HETATM   21  H   UNL     1      34.500 -11.017  -5.587  1.00  0.00     0.279 HD
HETATM   22  C   UNL     1      33.599 -11.792  -3.926  1.00  0.00     0.270 C 
HETATM   23  C   UNL     1      36.276 -10.729  -2.699  1.00  0.00     0.068 C 
HETATM   24  H   UNL     1      39.422 -15.583  -2.070  1.00  0.00     0.162 HD
ENDBRANCH   5   7
BRANCH   1  25
HETATM   25  O   UNL     1      40.647 -15.828   3.930  1.00  0.00    -0.349 OA
BRANCH  25  26
HETATM   26  C   UNL     1      41.176 -14.691   4.610  1.00  0.00     0.171 C 
HETATM   27  C   UNL     1      42.587 -15.025   5.059  1.00  0.00     0.034 C 
ENDBRANCH  25  26
ENDBRANCH   1  25
BRANCH   2  28
HETATM   28  O   UNL     1      42.052 -17.924   2.937  1.00  0.00    -0.272 OA
BRANCH  28  29
HETATM   29  C   UNL     1      43.424 -18.006   2.837  1.00  0.00     0.300 C 
HETATM   30  O   UNL     1      44.239 -17.099   2.762  1.00  0.00    -0.259 OA
BRANCH  29  31
HETATM   31  C   UNL     1      43.815 -19.426   2.915  1.00  0.00     0.061 A 
HETATM   32  C   UNL     1      44.471 -19.973   4.024  1.00  0.00     0.050 A 
HETATM   33 CL   UNL     1      44.855 -19.056   5.438  1.00  0.00    -0.083 Cl
HETATM   34  C   UNL     1      44.790 -21.334   4.035  1.00  0.00     0.025 A 
HETATM   35  C   UNL     1      44.446 -22.148   2.952  1.00  0.00     0.002 A 
HETATM   36  C   UNL     1      43.775 -21.607   1.858  1.00  0.00     0.001 A 
HETATM   37  C   UNL     1      43.454 -20.249   1.838  1.00  0.00     0.019 A 
ENDBRANCH  29  31
ENDBRANCH  28  29
ENDBRANCH   2  28
TORSDOF 6
ENDMDL
MODEL 4
REMARK VINA RESULT:      -8.7      5.900      9.662
REMARK  6 active torsions:
REMARK  status: ('A' for Active; 'I' for Inactive)
REMARK    1  A    between atoms: C_2  and  O_3 
REMARK    2  A    between atoms: O_3  and  C_4 
REMARK    3  A    between atoms: C_5  and  O_6 
REMARK    4  A    between atoms: O_6  and  C_7 
REMARK    5  A    between atoms: C_7  and  C_8 
REMARK    6  A    between atoms: C_18  and  C_19 
ROOT
HETATM    1  C   UNL     1      41.095 -16.352   3.401  1.00  0.00     0.103 A 
HETATM    2  C   UNL     1      41.717 -17.466   2.827  1.00  0.00     0.112 A 
HETATM    3  C   UNL     1      41.857 -17.601   1.446  1.00  0.00     0.041 A 
HETATM    4  C   UNL     1      41.398 -16.586   0.613  1.00  0.00     0.014 A 
HETATM    5  C   UNL     1      40.782 -15.443   1.154  1.00  0.00    -0.013 A 
HETATM    6  C   UNL     1      40.632 -15.341   2.553  1.00  0.00     0.050 A 
ENDROOT
BRANCH   5   7
HETATM    7  C   UNL     1      40.292 -14.335   0.248  1.00  0.00     0.219 C 
HETATM    8  N   UNL     1      40.097 -14.810  -1.098  1.00  0.00    -0.332 N 
HETATM    9  C   UNL     1      39.978 -13.958  -2.164  1.00  0.00     0.256 C 
HETATM   10  H   UNL     1      39.647 -15.706  -1.221  1.00  0.00     0.165 HD
HETATM   11  O   UNL     1      39.466 -14.305  -3.222  1.00  0.00    -0.267 OA
HETATM   12  C   UNL     1      40.536 -12.631  -1.959  1.00  0.00     0.073 A 
HETATM   13  C   UNL     1      41.153 -12.347  -0.763  1.00  0.00     0.088 A 
HETATM   14  C   UNL     1      40.583 -11.519  -2.858  1.00  0.00    -0.023 A 
HETATM   15  S   UNL     1      41.793 -10.774  -0.711  1.00  0.00    -0.074 SA
HETATM   16  N   UNL     1      41.247 -13.244   0.241  1.00  0.00    -0.358 N 
HETATM   17  C   UNL     1      41.255 -10.449  -2.294  1.00  0.00     0.018 A 
HETATM   18  C   UNL     1      41.492  -9.139  -2.960  1.00  0.00     0.281 C 
HETATM   19  N   UNL     1      41.263  -9.232  -4.465  1.00  0.00    -0.070 N 
HETATM   20  C   UNL     1      39.995 -10.020  -4.790  1.00  0.00     0.239 C 
HETATM   21  H   UNL     1      41.102  -8.271  -4.788  1.00  0.00     0.279 HD
HETATM   22  C   UNL     1      42.475  -9.725  -5.204  1.00  0.00     0.270 C 
HETATM   23  C   UNL     1      40.048 -11.463  -4.258  1.00  0.00     0.068 C 
HETATM   24  H   UNL     1      41.559 -12.945   1.161  1.00  0.00     0.162 HD
ENDBRANCH   5   7
BRANCH   1  25
HETATM   25  O   UNL     1      40.982 -16.358   4.765  1.00  0.00    -0.349 OA
BRANCH  25  26
HETATM   26  C   UNL     1      41.867 -15.516   5.502  1.00  0.00     0.171 C 
HETATM   27  C   UNL     1      42.503 -16.348   6.600  1.00  0.00     0.034 C 
ENDBRANCH  25  26
ENDBRANCH   1  25
BRANCH   2  28
HETATM   28  O   UNL     1      42.179 -18.512   3.631  1.00  0.00    -0.272 OA
BRANCH  28  29
HETATM   29  C   UNL     1      43.555 -18.541   3.685  1.00  0.00     0.300 C 
HETATM   30  O   UNL     1      44.332 -17.610   3.845  1.00  0.00    -0.259 OA
BRANCH  29  31
HETATM   31  C   UNL     1      43.998 -19.944   3.599  1.00  0.00     0.061 A 
HETATM   32  C   UNL     1      44.364 -20.696   4.721  1.00  0.00     0.050 A 
HETATM   33 CL   UNL     1      44.296 -20.076   6.333  1.00  0.00    -0.083 Cl
HETATM   34  C   UNL     1      44.753 -22.030   4.562  1.00  0.00     0.025 A 
HETATM   35  C   UNL     1      44.763 -22.615   3.293  1.00  0.00     0.002 A 
HETATM   36  C   UNL     1      44.378 -21.872   2.179  1.00  0.00     0.001 A 
HETATM   37  C   UNL     1      43.991 -20.540   2.328  1.00  0.00     0.019 A 
ENDBRANCH  29  31
ENDBRANCH  28  29
ENDBRANCH   2  28
TORSDOF 6
ENDMDL
MODEL 5
REMARK VINA RESULT:      -8.7      6.406     10.757
REMARK  6 active torsions:
REMARK  status: ('A' for Active; 'I' for Inactive)
REMARK    1  A    between atoms: C_2  and  O_3 
REMARK    2  A    between atoms: O_3  and  C_4 
REMARK    3  A    between atoms: C_5  and  O_6 
REMARK    4  A    between atoms: O_6  and  C_7 
REMARK    5  A    between atoms: C_7  and  C_8 
REMARK    6  A    between atoms: C_18  and  C_19 
ROOT
HETATM    1  C   UNL     1      42.405 -14.434   1.742  1.00  0.00     0.103 A 
HETATM    2  C   UNL     1      42.588 -15.820   1.666  1.00  0.00     0.112 A 
HETATM    3  C   UNL     1      42.043 -16.578   0.629  1.00  0.00     0.041 A 
HETATM    4  C   UNL     1      41.328 -15.939  -0.378  1.00  0.00     0.014 A 
HETATM    5  C   UNL     1      41.137 -14.545  -0.345  1.00  0.00    -0.013 A 
HETATM    6  C   UNL     1      41.678 -13.804   0.727  1.00  0.00     0.050 A 
ENDROOT
BRANCH   5   7
HETATM    7  C   UNL     1      40.367 -13.851  -1.445  1.00  0.00     0.219 C 
HETATM    8  N   UNL     1      39.666 -12.697  -0.943  1.00  0.00    -0.332 N 
HETATM    9  C   UNL     1      38.653 -12.095  -1.642  1.00  0.00     0.256 C 
HETATM   10  H   UNL     1      40.157 -12.090  -0.303  1.00  0.00     0.165 HD
HETATM   11  O   UNL     1      38.302 -10.942  -1.418  1.00  0.00    -0.267 OA
HETATM   12  C   UNL     1      38.006 -12.934  -2.637  1.00  0.00     0.073 A 
HETATM   13  C   UNL     1      38.419 -14.239  -2.777  1.00  0.00     0.088 A 
HETATM   14  C   UNL     1      36.926 -12.622  -3.522  1.00  0.00    -0.023 A 
HETATM   15  S   UNL     1      37.525 -15.091  -3.943  1.00  0.00    -0.074 SA
HETATM   16  N   UNL     1      39.417 -14.771  -2.040  1.00  0.00    -0.358 N 
HETATM   17  C   UNL     1      36.566 -13.724  -4.279  1.00  0.00     0.018 A 
HETATM   18  C   UNL     1      35.475 -13.747  -5.292  1.00  0.00     0.281 C 
HETATM   19  N   UNL     1      34.542 -12.552  -5.130  1.00  0.00    -0.070 N 
HETATM   20  C   UNL     1      35.324 -11.259  -4.900  1.00  0.00     0.239 C 
HETATM   21  H   UNL     1      34.058 -12.446  -6.030  1.00  0.00     0.279 HD
HETATM   22  C   UNL     1      33.472 -12.789  -4.104  1.00  0.00     0.270 C 
HETATM   23  C   UNL     1      36.195 -11.317  -3.634  1.00  0.00     0.068 C 
HETATM   24  H   UNL     1      39.801 -15.679  -2.287  1.00  0.00     0.162 HD
ENDBRANCH   5   7
BRANCH   1  25
HETATM   25  O   UNL     1      42.953 -13.811   2.831  1.00  0.00    -0.349 OA
BRANCH  25  26
HETATM   26  C   UNL     1      42.067 -13.112   3.703  1.00  0.00     0.171 C 
HETATM   27  C   UNL     1      41.642 -14.064   4.806  1.00  0.00     0.034 C 
ENDBRANCH  25  26
ENDBRANCH   1  25
BRANCH   2  28
HETATM   28  O   UNL     1      43.289 -16.497   2.667  1.00  0.00    -0.272 OA
BRANCH  28  29
HETATM   29  C   UNL     1      42.524 -17.490   3.239  1.00  0.00     0.300 C 
HETATM   30  O   UNL     1      41.392 -17.414   3.692  1.00  0.00    -0.259 OA
BRANCH  29  31
HETATM   31  C   UNL     1      43.268 -18.760   3.158  1.00  0.00     0.061 A 
HETATM   32  C   UNL     1      44.173 -19.175   4.143  1.00  0.00     0.050 A 
HETATM   33 CL   UNL     1      44.484 -18.265   5.578  1.00  0.00    -0.083 Cl
HETATM   34  C   UNL     1      44.825 -20.405   4.006  1.00  0.00     0.025 A 
HETATM   35  C   UNL     1      44.567 -21.222   2.903  1.00  0.00     0.002 A 
HETATM   36  C   UNL     1      43.650 -20.818   1.934  1.00  0.00     0.001 A 
HETATM   37  C   UNL     1      42.997 -19.591   2.061  1.00  0.00     0.019 A 
ENDBRANCH  29  31
ENDBRANCH  28  29
ENDBRANCH   2  28
TORSDOF 6
ENDMDL
MODEL 6
REMARK VINA RESULT:      -8.5      2.407      3.471
REMARK  6 active torsions:
REMARK  status: ('A' for Active; 'I' for Inactive)
REMARK    1  A    between atoms: C_2  and  O_3 
REMARK    2  A    between atoms: O_3  and  C_4 
REMARK    3  A    between atoms: C_5  and  O_6 
REMARK    4  A    between atoms: O_6  and  C_7 
REMARK    5  A    between atoms: C_7  and  C_8 
REMARK    6  A    between atoms: C_18  and  C_19 
ROOT
HETATM    1  C   UNL     1      40.504 -14.556   5.099  1.00  0.00     0.103 A 
HETATM    2  C   UNL     1      39.940 -14.103   3.901  1.00  0.00     0.112 A 
HETATM    3  C   UNL     1      39.683 -12.751   3.673  1.00  0.00     0.041 A 
HETATM    4  C   UNL     1      40.029 -11.820   4.647  1.00  0.00     0.014 A 
HETATM    5  C   UNL     1      40.614 -12.234   5.857  1.00  0.00    -0.013 A 
HETATM    6  C   UNL     1      40.842 -13.610   6.073  1.00  0.00     0.050 A 
ENDROOT
BRANCH   5   7
HETATM    7  C   UNL     1      40.998 -11.220   6.910  1.00  0.00     0.219 C 
HETATM    8  N   UNL     1      42.298 -11.506   7.460  1.00  0.00    -0.332 N 
HETATM    9  C   UNL     1      42.734 -10.951   8.634  1.00  0.00     0.256 C 
HETATM   10  H   UNL     1      43.033 -11.769   6.819  1.00  0.00     0.165 HD
HETATM   11  O   UNL     1      43.923 -10.889   8.925  1.00  0.00    -0.267 OA
HETATM   12  C   UNL     1      41.683 -10.477   9.520  1.00  0.00     0.073 A 
HETATM   13  C   UNL     1      40.370 -10.646   9.145  1.00  0.00     0.088 A 
HETATM   14  C   UNL     1      41.792  -9.860  10.807  1.00  0.00    -0.023 A 
HETATM   15  S   UNL     1      39.274 -10.086  10.316  1.00  0.00    -0.074 SA
HETATM   16  N   UNL     1      40.014 -11.218   7.975  1.00  0.00    -0.358 N 
HETATM   17  C   UNL     1      40.542  -9.610  11.348  1.00  0.00     0.018 A 
HETATM   18  C   UNL     1      40.294  -8.985  12.676  1.00  0.00     0.281 C 
HETATM   19  N   UNL     1      41.548  -9.008  13.543  1.00  0.00    -0.070 N 
HETATM   20  C   UNL     1      42.788  -8.606  12.746  1.00  0.00     0.239 C 
HETATM   21  H   UNL     1      41.411  -8.284  14.259  1.00  0.00     0.279 HD
HETATM   22  C   UNL     1      41.713 -10.304  14.285  1.00  0.00     0.270 C 
HETATM   23  C   UNL     1      43.052  -9.547  11.558  1.00  0.00     0.068 C 
HETATM   24  H   UNL     1      39.048 -11.173   7.663  1.00  0.00     0.162 HD
ENDBRANCH   5   7
BRANCH   1  25
HETATM   25  O   UNL     1      40.667 -15.910   5.218  1.00  0.00    -0.349 OA
BRANCH  25  26
HETATM   26  C   UNL     1      41.737 -16.374   6.039  1.00  0.00     0.171 C 
HETATM   27  C   UNL     1      42.145 -17.751   5.548  1.00  0.00     0.034 C 
ENDBRANCH  25  26
ENDBRANCH   1  25
BRANCH   2  28
HETATM   28  O   UNL     1      39.568 -15.012   2.907  1.00  0.00    -0.272 OA
BRANCH  28  29
HETATM   29  C   UNL     1      40.360 -14.890   1.787  1.00  0.00     0.300 C 
HETATM   30  O   UNL     1      40.274 -14.080   0.875  1.00  0.00    -0.259 OA
BRANCH  29  31
HETATM   31  C   UNL     1      41.449 -15.880   1.874  1.00  0.00     0.061 A 
HETATM   32  C   UNL     1      42.745 -15.549   2.290  1.00  0.00     0.050 A 
HETATM   33 CL   UNL     1      43.197 -13.957   2.786  1.00  0.00    -0.083 Cl
HETATM   34  C   UNL     1      43.720 -16.548   2.368  1.00  0.00     0.025 A 
HETATM   35  C   UNL     1      43.403 -17.870   2.048  1.00  0.00     0.002 A 
HETATM   36  C   UNL     1      42.108 -18.202   1.654  1.00  0.00     0.001 A 
HETATM   37  C   UNL     1      41.129 -17.212   1.571  1.00  0.00     0.019 A 
ENDBRANCH  29  31
ENDBRANCH  28  29
ENDBRANCH   2  28
TORSDOF 6
ENDMDL
MODEL 7
REMARK VINA RESULT:      -8.5      5.352      8.780
REMARK  6 active torsions:
REMARK  status: ('A' for Active; 'I' for Inactive)
REMARK    1  A    between atoms: C_2  and  O_3 
REMARK    2  A    between atoms: O_3  and  C_4 
REMARK    3  A    between atoms: C_5  and  O_6 
REMARK    4  A    between atoms: O_6  and  C_7 
REMARK    5  A    between atoms: C_7  and  C_8 
REMARK    6  A    between atoms: C_18  and  C_19 
ROOT
HETATM    1  C   UNL     1      41.258 -15.799   3.937  1.00  0.00     0.103 A 
HETATM    2  C   UNL     1      41.658 -16.961   3.267  1.00  0.00     0.112 A 
HETATM    3  C   UNL     1      41.066 -17.361   2.069  1.00  0.00     0.041 A 
HETATM    4  C   UNL     1      40.075 -16.567   1.502  1.00  0.00     0.014 A 
HETATM    5  C   UNL     1      39.658 -15.383   2.135  1.00  0.00    -0.013 A 
HETATM    6  C   UNL     1      40.256 -15.012   3.358  1.00  0.00     0.050 A 
ENDROOT
BRANCH   5   7
HETATM    7  C   UNL     1      38.587 -14.516   1.512  1.00  0.00     0.219 C 
HETATM    8  N   UNL     1      38.714 -14.482   0.078  1.00  0.00    -0.332 N 
HETATM    9  C   UNL     1      38.091 -13.532  -0.689  1.00  0.00     0.256 C 
HETATM   10  H   UNL     1      38.903 -15.351  -0.399  1.00  0.00     0.165 HD
HETATM   11  O   UNL     1      37.890 -13.691  -1.888  1.00  0.00    -0.267 OA
HETATM   12  C   UNL     1      37.724 -12.314   0.015  1.00  0.00     0.073 A 
HETATM   13  C   UNL     1      38.048 -12.192   1.346  1.00  0.00     0.088 A 
HETATM   14  C   UNL     1      37.075 -11.140  -0.483  1.00  0.00    -0.023 A 
HETATM   15  S   UNL     1      37.595 -10.690   1.999  1.00  0.00    -0.074 SA
HETATM   16  N   UNL     1      38.678 -13.167   2.036  1.00  0.00    -0.358 N 
HETATM   17  C   UNL     1      36.958 -10.177   0.505  1.00  0.00     0.018 A 
HETATM   18  C   UNL     1      36.341  -8.835   0.323  1.00  0.00     0.281 C 
HETATM   19  N   UNL     1      36.206  -8.481  -1.154  1.00  0.00    -0.070 N 
HETATM   20  C   UNL     1      35.681  -9.664  -1.967  1.00  0.00     0.239 C 
HETATM   21  H   UNL     1      35.489  -7.748  -1.206  1.00  0.00     0.279 HD
HETATM   22  C   UNL     1      37.461  -7.881  -1.722  1.00  0.00     0.270 C 
HETATM   23  C   UNL     1      36.608 -10.889  -1.886  1.00  0.00     0.068 C 
HETATM   24  H   UNL     1      38.749 -13.107   3.048  1.00  0.00     0.162 HD
ENDBRANCH   5   7
BRANCH   1  25
HETATM   25  O   UNL     1      41.885 -15.538   5.124  1.00  0.00    -0.349 OA
BRANCH  25  26
HETATM   26  C   UNL     1      42.121 -14.171   5.457  1.00  0.00     0.171 C 
HETATM   27  C   UNL     1      43.566 -13.846   5.124  1.00  0.00     0.034 C 
ENDBRANCH  25  26
ENDBRANCH   1  25
BRANCH   2  28
HETATM   28  O   UNL     1      42.641 -17.790   3.815  1.00  0.00    -0.272 OA
BRANCH  28  29
HETATM   29  C   UNL     1      43.644 -18.054   2.908  1.00  0.00     0.300 C 
HETATM   30  O   UNL     1      44.254 -17.270   2.196  1.00  0.00    -0.259 OA
BRANCH  29  31
HETATM   31  C   UNL     1      43.963 -19.492   2.968  1.00  0.00     0.061 A 
HETATM   32  C   UNL     1      44.590 -20.085   4.071  1.00  0.00     0.050 A 
HETATM   33 CL   UNL     1      45.018 -19.206   5.496  1.00  0.00    -0.083 Cl
HETATM   34  C   UNL     1      44.841 -21.461   4.064  1.00  0.00     0.025 A 
HETATM   35  C   UNL     1      44.457 -22.242   2.972  1.00  0.00     0.002 A 
HETATM   36  C   UNL     1      43.814 -21.655   1.884  1.00  0.00     0.001 A 
HETATM   37  C   UNL     1      43.562 -20.282   1.881  1.00  0.00     0.019 A 
ENDBRANCH  29  31
ENDBRANCH  28  29
ENDBRANCH   2  28
TORSDOF 6
ENDMDL
MODEL 8
REMARK VINA RESULT:      -8.2      5.840     10.305
REMARK  6 active torsions:
REMARK  status: ('A' for Active; 'I' for Inactive)
REMARK    1  A    between atoms: C_2  and  O_3 
REMARK    2  A    between atoms: O_3  and  C_4 
REMARK    3  A    between atoms: C_5  and  O_6 
REMARK    4  A    between atoms: O_6  and  C_7 
REMARK    5  A    between atoms: C_7  and  C_8 
REMARK    6  A    between atoms: C_18  and  C_19 
ROOT
HETATM    1  C   UNL     1      42.708 -17.226   2.389  1.00  0.00     0.103 A 
HETATM    2  C   UNL     1      41.627 -17.255   3.277  1.00  0.00     0.112 A 
HETATM    3  C   UNL     1      40.405 -16.658   2.970  1.00  0.00     0.041 A 
HETATM    4  C   UNL     1      40.240 -16.044   1.732  1.00  0.00     0.014 A 
HETATM    5  C   UNL     1      41.297 -16.009   0.806  1.00  0.00    -0.013 A 
HETATM    6  C   UNL     1      42.531 -16.600   1.150  1.00  0.00     0.050 A 
ENDROOT
BRANCH   5   7
HETATM    7  C   UNL     1      41.113 -15.350  -0.543  1.00  0.00     0.219 C 
HETATM    8  N   UNL     1      42.117 -14.343  -0.772  1.00  0.00    -0.332 N 
HETATM    9  C   UNL     1      41.987 -13.390  -1.747  1.00  0.00     0.256 C 
HETATM   10  H   UNL     1      43.070 -14.561  -0.519  1.00  0.00     0.165 HD
HETATM   11  O   UNL     1      42.950 -12.773  -2.189  1.00  0.00    -0.267 OA
HETATM   12  C   UNL     1      40.625 -13.140  -2.189  1.00  0.00     0.073 A 
HETATM   13  C   UNL     1      39.595 -13.829  -1.591  1.00  0.00     0.088 A 
HETATM   14  C   UNL     1      40.145 -12.219  -3.174  1.00  0.00    -0.023 A 
HETATM   15  S   UNL     1      38.069 -13.379  -2.187  1.00  0.00    -0.074 SA
HETATM   16  N   UNL     1      39.797 -14.746  -0.622  1.00  0.00    -0.358 N 
HETATM   17  C   UNL     1      38.764 -12.250  -3.255  1.00  0.00     0.018 A 
HETATM   18  C   UNL     1      37.941 -11.412  -4.171  1.00  0.00     0.281 C 
HETATM   19  N   UNL     1      38.747 -10.242  -4.727  1.00  0.00    -0.070 N 
HETATM   20  C   UNL     1      40.143 -10.681  -5.164  1.00  0.00     0.239 C 
HETATM   21  H   UNL     1      38.256  -9.937  -5.575  1.00  0.00     0.279 HD
HETATM   22  C   UNL     1      38.759  -9.059  -3.801  1.00  0.00     0.270 C 
HETATM   23  C   UNL     1      40.962 -11.274  -4.004  1.00  0.00     0.068 C 
HETATM   24  H   UNL     1      39.034 -15.349  -0.326  1.00  0.00     0.162 HD
ENDBRANCH   5   7
BRANCH   1  25
HETATM   25  O   UNL     1      43.866 -17.810   2.825  1.00  0.00    -0.349 OA
BRANCH  25  26
HETATM   26  C   UNL     1      44.145 -19.134   2.372  1.00  0.00     0.171 C 
HETATM   27  C   UNL     1      44.562 -19.964   3.573  1.00  0.00     0.034 C 
ENDBRANCH  25  26
ENDBRANCH   1  25
BRANCH   2  28
HETATM   28  O   UNL     1      41.761 -17.851   4.535  1.00  0.00    -0.272 OA
BRANCH  28  29
HETATM   29  C   UNL     1      41.323 -17.017   5.540  1.00  0.00     0.300 C 
HETATM   30  O   UNL     1      40.264 -17.049   6.151  1.00  0.00    -0.259 OA
BRANCH  29  31
HETATM   31  C   UNL     1      42.401 -16.063   5.860  1.00  0.00     0.061 A 
HETATM   32  C   UNL     1      42.266 -14.680   5.692  1.00  0.00     0.050 A 
HETATM   33 CL   UNL     1      40.810 -13.937   5.133  1.00  0.00    -0.083 Cl
HETATM   34  C   UNL     1      43.326 -13.836   6.039  1.00  0.00     0.025 A 
HETATM   35  C   UNL     1      44.507 -14.367   6.562  1.00  0.00     0.002 A 
HETATM   36  C   UNL     1      44.633 -15.742   6.749  1.00  0.00     0.001 A 
HETATM   37  C   UNL     1      43.581 -16.592   6.404  1.00  0.00     0.019 A 
ENDBRANCH  29  31
ENDBRANCH  28  29
ENDBRANCH   2  28
TORSDOF 6
ENDMDL
MODEL 9
REMARK VINA RESULT:      -8.2      5.059      6.908
REMARK  6 active torsions:
REMARK  status: ('A' for Active; 'I' for Inactive)
REMARK    1  A    between atoms: C_2  and  O_3 
REMARK    2  A    between atoms: O_3  and  C_4 
REMARK    3  A    between atoms: C_5  and  O_6 
REMARK    4  A    between atoms: O_6  and  C_7 
REMARK    5  A    between atoms: C_7  and  C_8 
REMARK    6  A    between atoms: C_18  and  C_19 
ROOT
HETATM    1  C   UNL     1      41.726 -16.020   4.313  1.00  0.00     0.103 A 
HETATM    2  C   UNL     1      41.601 -16.819   3.171  1.00  0.00     0.112 A 
HETATM    3  C   UNL     1      40.978 -16.355   2.012  1.00  0.00     0.041 A 
HETATM    4  C   UNL     1      40.497 -15.050   1.975  1.00  0.00     0.014 A 
HETATM    5  C   UNL     1      40.620 -14.211   3.097  1.00  0.00    -0.013 A 
HETATM    6  C   UNL     1      41.233 -14.712   4.265  1.00  0.00     0.050 A 
ENDROOT
BRANCH   5   7
HETATM    7  C   UNL     1      40.106 -12.790   3.051  1.00  0.00     0.219 C 
HETATM    8  N   UNL     1      39.684 -12.346   4.355  1.00  0.00    -0.332 N 
HETATM    9  C   UNL     1      38.890 -11.244   4.531  1.00  0.00     0.256 C 
HETATM   10  H   UNL     1      40.273 -12.572   5.143  1.00  0.00     0.165 HD
HETATM   11  O   UNL     1      38.821 -10.654   5.603  1.00  0.00    -0.267 OA
HETATM   12  C   UNL     1      38.111 -10.852   3.367  1.00  0.00     0.073 A 
HETATM   13  C   UNL     1      38.198 -11.610   2.223  1.00  0.00     0.088 A 
HETATM   14  C   UNL     1      37.191  -9.766   3.215  1.00  0.00    -0.023 A 
HETATM   15  S   UNL     1      37.187 -11.044   0.980  1.00  0.00    -0.074 SA
HETATM   16  N   UNL     1      38.993 -12.697   2.127  1.00  0.00    -0.358 N 
HETATM   17  C   UNL     1      36.614  -9.773   1.958  1.00  0.00     0.018 A 
HETATM   18  C   UNL     1      35.607  -8.789   1.472  1.00  0.00     0.281 C 
HETATM   19  N   UNL     1      34.989  -8.011   2.629  1.00  0.00    -0.070 N 
HETATM   20  C   UNL     1      36.051  -7.564   3.633  1.00  0.00     0.239 C 
HETATM   21  H   UNL     1      34.596  -7.156   2.218  1.00  0.00     0.279 HD
HETATM   22  C   UNL     1      33.839  -8.738   3.265  1.00  0.00     0.270 C 
HETATM   23  C   UNL     1      36.810  -8.751   4.251  1.00  0.00     0.068 C 
HETATM   24  H   UNL     1      39.155 -13.128   1.220  1.00  0.00     0.162 HD
ENDBRANCH   5   7
BRANCH   1  25
HETATM   25  O   UNL     1      42.319 -16.606   5.399  1.00  0.00    -0.349 OA
BRANCH  25  26
HETATM   26  C   UNL     1      42.620 -15.769   6.514  1.00  0.00     0.171 C 
HETATM   27  C   UNL     1      44.125 -15.578   6.567  1.00  0.00     0.034 C 
ENDBRANCH  25  26
ENDBRANCH   1  25
BRANCH   2  28
HETATM   28  O   UNL     1      42.060 -18.140   3.177  1.00  0.00    -0.272 OA
BRANCH  28  29
HETATM   29  C   UNL     1      43.354 -18.228   2.713  1.00  0.00     0.300 C 
HETATM   30  O   UNL     1      44.075 -17.337   2.289  1.00  0.00    -0.259 OA
BRANCH  29  31
HETATM   31  C   UNL     1      43.816 -19.618   2.878  1.00  0.00     0.061 A 
HETATM   32  C   UNL     1      44.501 -20.061   4.016  1.00  0.00     0.050 A 
HETATM   33 CL   UNL     1      44.840 -19.039   5.367  1.00  0.00    -0.083 Cl
HETATM   34  C   UNL     1      44.888 -21.402   4.110  1.00  0.00     0.025 A 
HETATM   35  C   UNL     1      44.584 -22.298   3.083  1.00  0.00     0.002 A 
HETATM   36  C   UNL     1      43.884 -21.861   1.960  1.00  0.00     0.001 A 
HETATM   37  C   UNL     1      43.495 -20.525   1.856  1.00  0.00     0.019 A 
ENDBRANCH  29  31
ENDBRANCH  28  29
ENDBRANCH   2  28
TORSDOF 6
ENDMDL
MODEL 10
REMARK VINA RESULT:      -8.1      5.075      8.993
REMARK  6 active torsions:
REMARK  status: ('A' for Active; 'I' for Inactive)
REMARK    1  A    between atoms: C_2  and  O_3 
REMARK    2  A    between atoms: O_3  and  C_4 
REMARK    3  A    between atoms: C_5  and  O_6 
REMARK    4  A    between atoms: O_6  and  C_7 
REMARK    5  A    between atoms: C_7  and  C_8 
REMARK    6  A    between atoms: C_18  and  C_19 
ROOT
HETATM    1  C   UNL     1      42.775 -16.177   4.753  1.00  0.00     0.103 A 
HETATM    2  C   UNL     1      42.585 -17.564   4.726  1.00  0.00     0.112 A 
HETATM    3  C   UNL     1      41.814 -18.183   3.743  1.00  0.00     0.041 A 
HETATM    4  C   UNL     1      41.245 -17.409   2.737  1.00  0.00     0.014 A 
HETATM    5  C   UNL     1      41.428 -16.014   2.719  1.00  0.00    -0.013 A 
HETATM    6  C   UNL     1      42.192 -15.409   3.739  1.00  0.00     0.050 A 
ENDROOT
BRANCH   5   7
HETATM    7  C   UNL     1      40.816 -15.175   1.619  1.00  0.00     0.219 C 
HETATM    8  N   UNL     1      41.065 -15.752   0.324  1.00  0.00    -0.332 N 
HETATM    9  C   UNL     1      40.911 -15.040  -0.836  1.00  0.00     0.256 C 
HETATM   10  H   UNL     1      40.954 -16.751   0.223  1.00  0.00     0.165 HD
HETATM   11  O   UNL     1      40.766 -15.587  -1.923  1.00  0.00    -0.267 OA
HETATM   12  C   UNL     1      40.971 -13.595  -0.686  1.00  0.00     0.073 A 
HETATM   13  C   UNL     1      41.204 -13.065   0.563  1.00  0.00     0.088 A 
HETATM   14  C   UNL     1      40.854 -12.574  -1.681  1.00  0.00    -0.023 A 
HETATM   15  S   UNL     1      41.295 -11.369   0.551  1.00  0.00    -0.074 SA
HETATM   16  N   UNL     1      41.362 -13.832   1.662  1.00  0.00    -0.358 N 
HETATM   17  C   UNL     1      41.025 -11.316  -1.129  1.00  0.00     0.018 A 
HETATM   18  C   UNL     1      40.974 -10.035  -1.886  1.00  0.00     0.281 C 
HETATM   19  N   UNL     1      41.105 -10.271  -3.387  1.00  0.00    -0.070 N 
HETATM   20  C   UNL     1      40.245 -11.447  -3.846  1.00  0.00     0.239 C 
HETATM   21  H   UNL     1      40.723  -9.433  -3.840  1.00  0.00     0.279 HD
HETATM   22  C   UNL     1      42.537 -10.373  -3.832  1.00  0.00     0.270 C 
HETATM   23  C   UNL     1      40.634 -12.765  -3.153  1.00  0.00     0.068 C 
HETATM   24  H   UNL     1      41.366 -13.403   2.584  1.00  0.00     0.162 HD
ENDBRANCH   5   7
BRANCH   1  25
HETATM   25  O   UNL     1      43.516 -15.688   5.793  1.00  0.00    -0.349 OA
BRANCH  25  26
HETATM   26  C   UNL     1      43.867 -14.305   5.757  1.00  0.00     0.171 C 
HETATM   27  C   UNL     1      44.942 -14.065   6.802  1.00  0.00     0.034 C 
ENDBRANCH  25  26
ENDBRANCH   1  25
BRANCH   2  28
HETATM   28  O   UNL     1      43.130 -18.372   5.728  1.00  0.00    -0.272 OA
BRANCH  28  29
HETATM   29  C   UNL     1      44.442 -18.696   5.460  1.00  0.00     0.300 C 
HETATM   30  O   UNL     1      45.455 -18.076   5.747  1.00  0.00    -0.259 OA
BRANCH  29  31
HETATM   31  C   UNL     1      44.473 -20.016   4.805  1.00  0.00     0.061 A 
HETATM   32  C   UNL     1      44.529 -20.174   3.415  1.00  0.00     0.050 A 
HETATM   33 CL   UNL     1      44.611 -18.840   2.319  1.00  0.00    -0.083 Cl
HETATM   34  C   UNL     1      44.578 -21.460   2.867  1.00  0.00     0.025 A 
HETATM   35  C   UNL     1      44.585 -22.581   3.700  1.00  0.00     0.002 A 
HETATM   36  C   UNL     1      44.550 -22.423   5.084  1.00  0.00     0.001 A 
HETATM   37  C   UNL     1      44.499 -21.144   5.639  1.00  0.00     0.019 A 
ENDBRANCH  29  31
ENDBRANCH  28  29
ENDBRANCH   2  28
TORSDOF 6
ENDMDL
