MODEL 1
REMARK VINA RESULT:      -9.1      0.000      0.000
REMARK  6 active torsions:
REMARK  status: ('A' for Active; 'I' for Inactive)
REMARK    1  A    between atoms: C_3  and  C_4 
REMARK    2  A    between atoms: C_4  and  N_5 
REMARK       I    between atoms: N_5  and  C_6 
REMARK    3  A    between atoms: C_6  and  C_7 
REMARK    4  A    between atoms: C_7  and  N_8 
REMARK    5  A    between atoms: C_12  and  N_13 
REMARK       I    between atoms: N_13  and  C_14 
REMARK       I    between atoms: C_14  and  N_15 
REMARK    6  A    between atoms: N_15  and  C_16 
ROOT
HETATM    1  N   UNL     1      43.575 -14.623   7.044  1.00  0.00    -0.063 N 
HETATM    2  H   UNL     1      42.997 -14.240   7.802  1.00  0.00     0.280 HD
HETATM    3  C   UNL     1      42.812 -14.352   5.766  1.00  0.00     0.237 C 
HETATM    4  C   UNL     1      41.550 -15.191   5.682  1.00  0.00     0.053 C 
HETATM    5  C   UNL     1      41.758 -16.680   5.960  1.00  0.00     0.089 C 
HETATM    6  C   UNL     1      42.539 -16.899   7.254  1.00  0.00     0.053 C 
HETATM    7  C   UNL     1      43.805 -16.070   7.388  1.00  0.00     0.237 C 
ENDROOT
BRANCH   1   8
HETATM    8  C   UNL     1      44.894 -13.820   7.109  1.00  0.00     0.337 C 
BRANCH   8   9
HETATM    9  C   UNL     1      45.078 -12.901   8.324  1.00  0.00     0.243 C 
HETATM   10  N   UNL     1      43.957 -12.662   9.083  1.00  0.00    -0.355 N 
HETATM   11  H   UNL     1      43.267 -13.404   9.157  1.00  0.00     0.162 HD
HETATM   12  O   UNL     1      46.187 -12.447   8.600  1.00  0.00    -0.272 OA
BRANCH  10  13
HETATM   13  C   UNL     1      44.068 -11.877  10.298  1.00  0.00     0.169 C 
BRANCH  13  14
HETATM   14  C   UNL     1      43.103 -10.719  10.318  1.00  0.00     0.006 A 
HETATM   15  C   UNL     1      42.843  -9.867  11.387  1.00  0.00    -0.047 A 
HETATM   16  C   UNL     1      43.508  -9.934  12.725  1.00  0.00     0.049 C 
HETATM   17  C   UNL     1      41.830  -8.906  11.059  1.00  0.00     0.015 A 
HETATM   18  C   UNL     1      41.356  -9.048   9.778  1.00  0.00     0.051 A 
HETATM   19  S   UNL     1      42.115 -10.333   8.963  1.00  0.00    -0.104 SA
ENDBRANCH  13  14
ENDBRANCH  10  13
ENDBRANCH   8   9
ENDBRANCH   1   8
BRANCH   5  20
HETATM   20  N   UNL     1      42.238 -17.458   4.816  1.00  0.00    -0.338 N 
HETATM   21  C   UNL     1      41.765 -17.418   3.547  1.00  0.00     0.321 C 
HETATM   22  N   UNL     1      42.351 -18.201   2.612  1.00  0.00    -0.309 N 
HETATM   23  O   UNL     1      40.864 -16.655   3.209  1.00  0.00    -0.247 OA
HETATM   24  H   UNL     1      42.074 -17.934   1.672  1.00  0.00     0.170 HD
HETATM   25  H   UNL     1      43.201 -17.774   4.869  1.00  0.00     0.164 HD
BRANCH  22  26
HETATM   26  C   UNL     1      43.183 -19.334   2.692  1.00  0.00     0.036 A 
HETATM   27  C   UNL     1      44.171 -19.524   3.659  1.00  0.00     0.029 A 
HETATM   28  C   UNL     1      44.936 -20.696   3.666  1.00  0.00     0.002 A 
HETATM   29  C   UNL     1      44.705 -21.692   2.720  1.00  0.00     0.000 A 
HETATM   30  C   UNL     1      43.701 -21.526   1.772  1.00  0.00     0.002 A 
HETATM   31  C   UNL     1      42.939 -20.356   1.763  1.00  0.00     0.029 A 
ENDBRANCH  22  26
ENDBRANCH   5  20
TORSDOF 6
ENDMDL
MODEL 2
REMARK VINA RESULT:      -8.8      4.800      8.066
REMARK  6 active torsions:
REMARK  status: ('A' for Active; 'I' for Inactive)
REMARK    1  A    between atoms: C_3  and  C_4 
REMARK    2  A    between atoms: C_4  and  N_5 
REMARK       I    between atoms: N_5  and  C_6 
REMARK    3  A    between atoms: C_6  and  C_7 
REMARK    4  A    between atoms: C_7  and  N_8 
REMARK    5  A    between atoms: C_12  and  N_13 
REMARK       I    between atoms: N_13  and  C_14 
REMARK       I    between atoms: C_14  and  N_15 
REMARK    6  A    between atoms: N_15  and  C_16 
ROOT
HETATM    1  N   UNL     1      41.004 -15.059   4.534  1.00  0.00    -0.063 N 
HETATM    2  H   UNL     1      40.836 -14.248   5.142  1.00  0.00     0.280 HD
HETATM    3  C   UNL     1      40.657 -16.275   5.364  1.00  0.00     0.237 C 
HETATM    4  C   UNL     1      41.655 -16.485   6.488  1.00  0.00     0.053 C 
HETATM    5  C   UNL     1      43.120 -16.447   6.052  1.00  0.00     0.089 C 
HETATM    6  C   UNL     1      43.415 -15.206   5.211  1.00  0.00     0.053 C 
HETATM    7  C   UNL     1      42.435 -14.948   4.080  1.00  0.00     0.237 C 
ENDROOT
BRANCH   1   8
HETATM    8  C   UNL     1      40.029 -14.873   3.349  1.00  0.00     0.337 C 
BRANCH   8   9
HETATM    9  C   UNL     1      40.371 -15.622   2.054  1.00  0.00     0.243 C 
HETATM   10  N   UNL     1      40.835 -14.855   1.012  1.00  0.00    -0.355 N 
HETATM   11  H   UNL     1      41.386 -14.031   1.236  1.00  0.00     0.162 HD
HETATM   12  O   UNL     1      40.262 -16.845   1.994  1.00  0.00    -0.272 OA
BRANCH  10  13
HETATM   13  C   UNL     1      41.265 -15.498  -0.216  1.00  0.00     0.169 C 
BRANCH  13  14
HETATM   14  C   UNL     1      41.316 -14.536  -1.375  1.00  0.00     0.006 A 
HETATM   15  C   UNL     1      40.877 -14.771  -2.675  1.00  0.00    -0.047 A 
HETATM   16  C   UNL     1      40.240 -16.037  -3.155  1.00  0.00     0.049 C 
HETATM   17  C   UNL     1      41.125 -13.643  -3.526  1.00  0.00     0.015 A 
HETATM   18  C   UNL     1      41.733 -12.603  -2.866  1.00  0.00     0.051 A 
HETATM   19  S   UNL     1      42.014 -12.970  -1.229  1.00  0.00    -0.104 SA
ENDBRANCH  13  14
ENDBRANCH  10  13
ENDBRANCH   8   9
ENDBRANCH   1   8
BRANCH   5  20
HETATM   20  N   UNL     1      43.628 -17.700   5.493  1.00  0.00    -0.338 N 
HETATM   21  C   UNL     1      44.802 -18.309   5.792  1.00  0.00     0.321 C 
HETATM   22  N   UNL     1      45.097 -19.482   5.183  1.00  0.00    -0.309 N 
HETATM   23  O   UNL     1      45.574 -17.862   6.635  1.00  0.00    -0.247 OA
HETATM   24  H   UNL     1      45.875 -19.953   5.635  1.00  0.00     0.170 HD
HETATM   25  H   UNL     1      42.928 -18.344   5.141  1.00  0.00     0.164 HD
BRANCH  22  26
HETATM   26  C   UNL     1      44.601 -20.116   4.029  1.00  0.00     0.036 A 
HETATM   27  C   UNL     1      44.007 -19.453   2.954  1.00  0.00     0.029 A 
HETATM   28  C   UNL     1      43.562 -20.173   1.840  1.00  0.00     0.002 A 
HETATM   29  C   UNL     1      43.723 -21.556   1.785  1.00  0.00     0.000 A 
HETATM   30  C   UNL     1      44.341 -22.222   2.838  1.00  0.00     0.002 A 
HETATM   31  C   UNL     1      44.785 -21.504   3.950  1.00  0.00     0.029 A 
ENDBRANCH  22  26
ENDBRANCH   5  20
TORSDOF 6
ENDMDL
MODEL 3
REMARK VINA RESULT:      -8.6      3.000     10.028
REMARK  6 active torsions:
REMARK  status: ('A' for Active; 'I' for Inactive)
REMARK    1  A    between atoms: C_3  and  C_4 
REMARK    2  A    between atoms: C_4  and  N_5 
REMARK       I    between atoms: N_5  and  C_6 
REMARK    3  A    between atoms: C_6  and  C_7 
REMARK    4  A    between atoms: C_7  and  N_8 
REMARK    5  A    between atoms: C_12  and  N_13 
REMARK       I    between atoms: N_13  and  C_14 
REMARK       I    between atoms: C_14  and  N_15 
REMARK    6  A    between atoms: N_15  and  C_16 
ROOT
HETATM    1  N   UNL     1      42.159 -15.160   4.954  1.00  0.00    -0.063 N 
HETATM    2  H   UNL     1      41.689 -15.329   4.056  1.00  0.00     0.280 HD
HETATM    3  C   UNL     1      41.053 -14.999   5.974  1.00  0.00     0.237 C 
HETATM    4  C   UNL     1      40.276 -13.714   5.755  1.00  0.00     0.053 C 
HETATM    5  C   UNL     1      41.144 -12.465   5.600  1.00  0.00     0.089 C 
HETATM    6  C   UNL     1      42.249 -12.683   4.567  1.00  0.00     0.053 C 
HETATM    7  C   UNL     1      43.047 -13.964   4.739  1.00  0.00     0.237 C 
ENDROOT
BRANCH   1   8
HETATM    8  C   UNL     1      42.995 -16.434   5.207  1.00  0.00     0.337 C 
BRANCH   8   9
HETATM    9  C   UNL     1      42.886 -17.548   4.157  1.00  0.00     0.243 C 
HETATM   10  N   UNL     1      44.067 -17.984   3.606  1.00  0.00    -0.355 N 
HETATM   11  H   UNL     1      44.897 -17.972   4.191  1.00  0.00     0.162 HD
HETATM   12  O   UNL     1      41.792 -18.030   3.872  1.00  0.00    -0.272 OA
BRANCH  10  13
HETATM   13  C   UNL     1      44.057 -19.094   2.672  1.00  0.00     0.169 C 
BRANCH  13  14
HETATM   14  C   UNL     1      44.383 -20.404   3.342  1.00  0.00     0.006 A 
HETATM   15  C   UNL     1      44.344 -21.670   2.764  1.00  0.00    -0.047 A 
HETATM   16  C   UNL     1      43.988 -21.957   1.339  1.00  0.00     0.049 C 
HETATM   17  C   UNL     1      44.674 -22.692   3.713  1.00  0.00     0.015 A 
HETATM   18  C   UNL     1      44.949 -22.190   4.961  1.00  0.00     0.051 A 
HETATM   19  S   UNL     1      44.810 -20.495   5.006  1.00  0.00    -0.104 SA
ENDBRANCH  13  14
ENDBRANCH  10  13
ENDBRANCH   8   9
ENDBRANCH   1   8
BRANCH   5  20
HETATM   20  N   UNL     1      41.594 -11.868   6.859  1.00  0.00    -0.338 N 
HETATM   21  C   UNL     1      41.669 -10.547   7.153  1.00  0.00     0.321 C 
HETATM   22  N   UNL     1      42.094 -10.181   8.385  1.00  0.00    -0.309 N 
HETATM   23  O   UNL     1      41.311  -9.679   6.361  1.00  0.00    -0.247 OA
HETATM   24  H   UNL     1      41.903  -9.201   8.571  1.00  0.00     0.170 HD
HETATM   25  H   UNL     1      41.501 -12.451   7.683  1.00  0.00     0.164 HD
BRANCH  22  26
HETATM   26  C   UNL     1      42.802 -10.856   9.397  1.00  0.00     0.036 A 
HETATM   27  C   UNL     1      44.058 -11.442   9.228  1.00  0.00     0.029 A 
HETATM   28  C   UNL     1      44.691 -12.076  10.304  1.00  0.00     0.002 A 
HETATM   29  C   UNL     1      44.083 -12.111  11.557  1.00  0.00     0.000 A 
HETATM   30  C   UNL     1      42.846 -11.503  11.742  1.00  0.00     0.002 A 
HETATM   31  C   UNL     1      42.213 -10.872  10.669  1.00  0.00     0.029 A 
ENDBRANCH  22  26
ENDBRANCH   5  20
TORSDOF 6
ENDMDL
MODEL 4
REMARK VINA RESULT:      -8.6      2.298      2.950
REMARK  6 active torsions:
REMARK  status: ('A' for Active; 'I' for Inactive)
REMARK    1  A    between atoms: C_3  and  C_4 
REMARK    2  A    between atoms: C_4  and  N_5 
REMARK       I    between atoms: N_5  and  C_6 
REMARK    3  A    between atoms: C_6  and  C_7 
REMARK    4  A    between atoms: C_7  and  N_8 
REMARK    5  A    between atoms: C_12  and  N_13 
REMARK       I    between atoms: N_13  and  C_14 
REMARK       I    between atoms: C_14  and  N_15 
REMARK    6  A    between atoms: N_15  and  C_16 
ROOT
HETATM    1  N   UNL     1      42.177 -14.714   6.137  1.00  0.00    -0.063 N 
HETATM    2  H   UNL     1      41.702 -14.326   6.962  1.00  0.00     0.280 HD
HETATM    3  C   UNL     1      41.305 -15.852   5.657  1.00  0.00     0.237 C 
HETATM    4  C   UNL     1      41.320 -17.016   6.631  1.00  0.00     0.053 C 
HETATM    5  C   UNL     1      42.717 -17.463   7.064  1.00  0.00     0.089 C 
HETATM    6  C   UNL     1      43.559 -16.277   7.531  1.00  0.00     0.053 C 
HETATM    7  C   UNL     1      43.564 -15.083   6.593  1.00  0.00     0.237 C 
ENDROOT
BRANCH   1   8
HETATM    8  C   UNL     1      42.217 -13.550   5.121  1.00  0.00     0.337 C 
BRANCH   8   9
HETATM    9  C   UNL     1      41.850 -12.159   5.656  1.00  0.00     0.243 C 
HETATM   10  N   UNL     1      41.973 -11.976   7.013  1.00  0.00    -0.355 N 
HETATM   11  H   UNL     1      42.707 -12.485   7.496  1.00  0.00     0.162 HD
HETATM   12  O   UNL     1      41.505 -11.266   4.884  1.00  0.00    -0.272 OA
BRANCH  10  13
HETATM   13  C   UNL     1      41.731 -10.665   7.584  1.00  0.00     0.169 C 
BRANCH  13  14
HETATM   14  C   UNL     1      41.501 -10.726   9.072  1.00  0.00     0.006 A 
HETATM   15  C   UNL     1      42.473 -10.795  10.066  1.00  0.00    -0.047 A 
HETATM   16  C   UNL     1      43.950 -10.795   9.829  1.00  0.00     0.049 C 
HETATM   17  C   UNL     1      41.886 -10.885  11.371  1.00  0.00     0.015 A 
HETATM   18  C   UNL     1      40.513 -10.883  11.338  1.00  0.00     0.051 A 
HETATM   19  S   UNL     1      39.919 -10.777   9.748  1.00  0.00    -0.104 SA
ENDBRANCH  13  14
ENDBRANCH  10  13
ENDBRANCH   8   9
ENDBRANCH   1   8
BRANCH   5  20
HETATM   20  N   UNL     1      43.393 -18.361   6.126  1.00  0.00    -0.338 N 
HETATM   21  C   UNL     1      44.727 -18.577   6.024  1.00  0.00     0.321 C 
HETATM   22  N   UNL     1      45.171 -19.465   5.103  1.00  0.00    -0.309 N 
HETATM   23  O   UNL     1      45.537 -18.040   6.775  1.00  0.00    -0.247 OA
HETATM   24  H   UNL     1      46.143 -19.713   5.259  1.00  0.00     0.170 HD
HETATM   25  H   UNL     1      42.840 -19.137   5.779  1.00  0.00     0.164 HD
BRANCH  22  26
HETATM   26  C   UNL     1      44.585 -20.032   3.955  1.00  0.00     0.036 A 
HETATM   27  C   UNL     1      43.886 -19.312   2.985  1.00  0.00     0.029 A 
HETATM   28  C   UNL     1      43.355 -19.966   1.867  1.00  0.00     0.002 A 
HETATM   29  C   UNL     1      43.536 -21.337   1.702  1.00  0.00     0.000 A 
HETATM   30  C   UNL     1      44.258 -22.058   2.648  1.00  0.00     0.002 A 
HETATM   31  C   UNL     1      44.787 -21.406   3.764  1.00  0.00     0.029 A 
ENDBRANCH  22  26
ENDBRANCH   5  20
TORSDOF 6
ENDMDL
MODEL 5
REMARK VINA RESULT:      -8.5      5.758      9.416
REMARK  6 active torsions:
REMARK  status: ('A' for Active; 'I' for Inactive)
REMARK    1  A    between atoms: C_3  and  C_4 
REMARK    2  A    between atoms: C_4  and  N_5 
REMARK       I    between atoms: N_5  and  C_6 
REMARK    3  A    between atoms: C_6  and  C_7 
REMARK    4  A    between atoms: C_7  and  N_8 
REMARK    5  A    between atoms: C_12  and  N_13 
REMARK       I    between atoms: N_13  and  C_14 
REMARK       I    between atoms: C_14  and  N_15 
REMARK    6  A    between atoms: N_15  and  C_16 
ROOT
HETATM    1  N   UNL     1      41.439 -15.259   3.720  1.00  0.00    -0.063 N 
HETATM    2  H   UNL     1      41.440 -14.763   4.619  1.00  0.00     0.280 HD
HETATM    3  C   UNL     1      42.694 -14.815   3.002  1.00  0.00     0.237 C 
HETATM    4  C   UNL     1      42.610 -13.359   2.582  1.00  0.00     0.053 C 
HETATM    5  C   UNL     1      41.324 -12.983   1.844  1.00  0.00     0.089 C 
HETATM    6  C   UNL     1      40.089 -13.462   2.605  1.00  0.00     0.053 C 
HETATM    7  C   UNL     1      40.133 -14.911   3.057  1.00  0.00     0.237 C 
ENDROOT
BRANCH   1   8
HETATM    8  C   UNL     1      41.490 -16.757   4.095  1.00  0.00     0.337 C 
BRANCH   8   9
HETATM    9  C   UNL     1      42.231 -17.684   3.123  1.00  0.00     0.243 C 
HETATM   10  N   UNL     1      43.456 -18.149   3.539  1.00  0.00    -0.355 N 
HETATM   11  H   UNL     1      43.591 -18.308   4.533  1.00  0.00     0.162 HD
HETATM   12  O   UNL     1      41.716 -18.006   2.054  1.00  0.00    -0.272 OA
BRANCH  10  13
HETATM   13  C   UNL     1      44.179 -19.100   2.716  1.00  0.00     0.169 C 
BRANCH  13  14
HETATM   14  C   UNL     1      44.435 -20.398   3.438  1.00  0.00     0.006 A 
HETATM   15  C   UNL     1      44.414 -21.677   2.889  1.00  0.00    -0.047 A 
HETATM   16  C   UNL     1      44.153 -21.994   1.450  1.00  0.00     0.049 C 
HETATM   17  C   UNL     1      44.658 -22.681   3.883  1.00  0.00     0.015 A 
HETATM   18  C   UNL     1      44.855 -22.152   5.135  1.00  0.00     0.051 A 
HETATM   19  S   UNL     1      44.744 -20.455   5.129  1.00  0.00    -0.104 SA
ENDBRANCH  13  14
ENDBRANCH  10  13
ENDBRANCH   8   9
ENDBRANCH   1   8
BRANCH   5  20
HETATM   20  N   UNL     1      41.322 -13.298   0.414  1.00  0.00    -0.338 N 
HETATM   21  C   UNL     1      42.022 -12.668  -0.560  1.00  0.00     0.321 C 
HETATM   22  N   UNL     1      41.907 -13.114  -1.833  1.00  0.00    -0.309 N 
HETATM   23  O   UNL     1      42.799 -11.748  -0.316  1.00  0.00    -0.247 OA
HETATM   24  H   UNL     1      42.628 -12.726  -2.433  1.00  0.00     0.170 HD
HETATM   25  H   UNL     1      41.078 -14.252   0.172  1.00  0.00     0.164 HD
BRANCH  22  26
HETATM   26  C   UNL     1      40.959 -13.924  -2.484  1.00  0.00     0.036 A 
HETATM   27  C   UNL     1      41.113 -15.292  -2.719  1.00  0.00     0.029 A 
HETATM   28  C   UNL     1      40.102 -16.017  -3.360  1.00  0.00     0.002 A 
HETATM   29  C   UNL     1      38.924 -15.385  -3.752  1.00  0.00     0.000 A 
HETATM   30  C   UNL     1      38.748 -14.029  -3.494  1.00  0.00     0.002 A 
HETATM   31  C   UNL     1      39.757 -13.305  -2.857  1.00  0.00     0.029 A 
ENDBRANCH  22  26
ENDBRANCH   5  20
TORSDOF 6
ENDMDL
MODEL 6
REMARK VINA RESULT:      -8.4      4.052      6.615
REMARK  6 active torsions:
REMARK  status: ('A' for Active; 'I' for Inactive)
REMARK    1  A    between atoms: C_3  and  C_4 
REMARK    2  A    between atoms: C_4  and  N_5 
REMARK       I    between atoms: N_5  and  C_6 
REMARK    3  A    between atoms: C_6  and  C_7 
REMARK    4  A    between atoms: C_7  and  N_8 
REMARK    5  A    between atoms: C_12  and  N_13 
REMARK       I    between atoms: N_13  and  C_14 
REMARK       I    between atoms: C_14  and  N_15 
REMARK    6  A    between atoms: N_15  and  C_16 
ROOT
HETATM    1  N   UNL     1      42.681 -14.564   6.328  1.00  0.00    -0.063 N 
HETATM    2  H   UNL     1      42.124 -14.168   7.095  1.00  0.00     0.280 HD
HETATM    3  C   UNL     1      41.749 -15.491   5.580  1.00  0.00     0.237 C 
HETATM    4  C   UNL     1      41.397 -16.714   6.406  1.00  0.00     0.053 C 
HETATM    5  C   UNL     1      42.598 -17.431   7.024  1.00  0.00     0.089 C 
HETATM    6  C   UNL     1      43.510 -16.451   7.760  1.00  0.00     0.053 C 
HETATM    7  C   UNL     1      43.880 -15.204   6.975  1.00  0.00     0.237 C 
ENDROOT
BRANCH   1   8
HETATM    8  C   UNL     1      43.095 -13.347   5.471  1.00  0.00     0.337 C 
BRANCH   8   9
HETATM    9  C   UNL     1      42.218 -13.037   4.250  1.00  0.00     0.243 C 
HETATM   10  N   UNL     1      42.810 -13.193   3.019  1.00  0.00    -0.355 N 
HETATM   11  H   UNL     1      43.513 -13.920   2.919  1.00  0.00     0.162 HD
HETATM   12  O   UNL     1      41.043 -12.706   4.395  1.00  0.00    -0.272 OA
BRANCH  10  13
HETATM   13  C   UNL     1      42.023 -13.006   1.816  1.00  0.00     0.169 C 
BRANCH  13  14
HETATM   14  C   UNL     1      41.827 -14.294   1.057  1.00  0.00     0.006 A 
HETATM   15  C   UNL     1      41.540 -14.430  -0.298  1.00  0.00    -0.047 A 
HETATM   16  C   UNL     1      41.399 -13.299  -1.267  1.00  0.00     0.049 C 
HETATM   17  C   UNL     1      41.375 -15.806  -0.666  1.00  0.00     0.015 A 
HETATM   18  C   UNL     1      41.536 -16.663   0.396  1.00  0.00     0.051 A 
HETATM   19  S   UNL     1      41.881 -15.827   1.836  1.00  0.00    -0.104 SA
ENDBRANCH  13  14
ENDBRANCH  10  13
ENDBRANCH   8   9
ENDBRANCH   1   8
BRANCH   5  20
HETATM   20  N   UNL     1      43.292 -18.355   6.125  1.00  0.00    -0.338 N 
HETATM   21  C   UNL     1      44.612 -18.663   6.133  1.00  0.00     0.321 C 
HETATM   22  N   UNL     1      45.074 -19.560   5.231  1.00  0.00    -0.309 N 
HETATM   23  O   UNL     1      45.386 -18.199   6.967  1.00  0.00    -0.247 OA
HETATM   24  H   UNL     1      46.009 -19.879   5.465  1.00  0.00     0.170 HD
HETATM   25  H   UNL     1      42.719 -19.082   5.710  1.00  0.00     0.164 HD
BRANCH  22  26
HETATM   26  C   UNL     1      44.555 -20.060   4.022  1.00  0.00     0.036 A 
HETATM   27  C   UNL     1      43.935 -19.281   3.044  1.00  0.00     0.029 A 
HETATM   28  C   UNL     1      43.468 -19.870   1.864  1.00  0.00     0.002 A 
HETATM   29  C   UNL     1      43.634 -21.236   1.646  1.00  0.00     0.000 A 
HETATM   30  C   UNL     1      44.278 -22.015   2.601  1.00  0.00     0.002 A 
HETATM   31  C   UNL     1      44.743 -21.428   3.779  1.00  0.00     0.029 A 
ENDBRANCH  22  26
ENDBRANCH   5  20
TORSDOF 6
ENDMDL
MODEL 7
REMARK VINA RESULT:      -8.4      5.255      9.024
REMARK  6 active torsions:
REMARK  status: ('A' for Active; 'I' for Inactive)
REMARK    1  A    between atoms: C_3  and  C_4 
REMARK    2  A    between atoms: C_4  and  N_5 
REMARK       I    between atoms: N_5  and  C_6 
REMARK    3  A    between atoms: C_6  and  C_7 
REMARK    4  A    between atoms: C_7  and  N_8 
REMARK    5  A    between atoms: C_12  and  N_13 
REMARK       I    between atoms: N_13  and  C_14 
REMARK       I    between atoms: C_14  and  N_15 
REMARK    6  A    between atoms: N_15  and  C_16 
ROOT
HETATM    1  N   UNL     1      41.040 -14.813   2.681  1.00  0.00    -0.063 N 
HETATM    2  H   UNL     1      41.009 -13.812   2.912  1.00  0.00     0.280 HD
HETATM    3  C   UNL     1      40.675 -15.541   3.956  1.00  0.00     0.237 C 
HETATM    4  C   UNL     1      41.762 -15.405   5.006  1.00  0.00     0.053 C 
HETATM    5  C   UNL     1      43.171 -15.726   4.507  1.00  0.00     0.089 C 
HETATM    6  C   UNL     1      43.486 -14.974   3.215  1.00  0.00     0.053 C 
HETATM    7  C   UNL     1      42.420 -15.071   2.138  1.00  0.00     0.237 C 
ENDROOT
BRANCH   1   8
HETATM    8  C   UNL     1      39.967 -14.998   1.585  1.00  0.00     0.337 C 
BRANCH   8   9
HETATM    9  C   UNL     1      40.195 -14.246   0.267  1.00  0.00     0.243 C 
HETATM   10  N   UNL     1      40.235 -15.012  -0.873  1.00  0.00    -0.355 N 
HETATM   11  H   UNL     1      39.657 -15.848  -0.904  1.00  0.00     0.162 HD
HETATM   12  O   UNL     1      40.295 -13.021   0.259  1.00  0.00    -0.272 OA
BRANCH  10  13
HETATM   13  C   UNL     1      40.357 -14.367  -2.167  1.00  0.00     0.169 C 
BRANCH  13  14
HETATM   14  C   UNL     1      39.022 -14.198  -2.847  1.00  0.00     0.006 A 
HETATM   15  C   UNL     1      38.406 -15.095  -3.714  1.00  0.00    -0.047 A 
HETATM   16  C   UNL     1      38.959 -16.428  -4.111  1.00  0.00     0.049 C 
HETATM   17  C   UNL     1      37.161 -14.581  -4.207  1.00  0.00     0.015 A 
HETATM   18  C   UNL     1      36.870 -13.333  -3.713  1.00  0.00     0.051 A 
HETATM   19  S   UNL     1      38.082 -12.768  -2.663  1.00  0.00    -0.104 SA
ENDBRANCH  13  14
ENDBRANCH  10  13
ENDBRANCH   8   9
ENDBRANCH   1   8
BRANCH   5  20
HETATM   20  N   UNL     1      43.505 -17.152   4.481  1.00  0.00    -0.338 N 
HETATM   21  C   UNL     1      44.272 -17.825   5.373  1.00  0.00     0.321 C 
HETATM   22  N   UNL     1      44.457 -19.154   5.196  1.00  0.00    -0.309 N 
HETATM   23  O   UNL     1      44.755 -17.281   6.363  1.00  0.00    -0.247 OA
HETATM   24  H   UNL     1      44.851 -19.591   6.023  1.00  0.00     0.170 HD
HETATM   25  H   UNL     1      42.849 -17.751   3.993  1.00  0.00     0.164 HD
BRANCH  22  26
HETATM   26  C   UNL     1      44.288 -20.008   4.090  1.00  0.00     0.036 A 
HETATM   27  C   UNL     1      43.789 -19.608   2.849  1.00  0.00     0.029 A 
HETATM   28  C   UNL     1      43.677 -20.530   1.802  1.00  0.00     0.002 A 
HETATM   29  C   UNL     1      44.080 -21.852   1.983  1.00  0.00     0.000 A 
HETATM   30  C   UNL     1      44.607 -22.252   3.206  1.00  0.00     0.002 A 
HETATM   31  C   UNL     1      44.718 -21.333   4.251  1.00  0.00     0.029 A 
ENDBRANCH  22  26
ENDBRANCH   5  20
TORSDOF 6
ENDMDL
MODEL 8
REMARK VINA RESULT:      -8.2      3.340      9.816
REMARK  6 active torsions:
REMARK  status: ('A' for Active; 'I' for Inactive)
REMARK    1  A    between atoms: C_3  and  C_4 
REMARK    2  A    between atoms: C_4  and  N_5 
REMARK       I    between atoms: N_5  and  C_6 
REMARK    3  A    between atoms: C_6  and  C_7 
REMARK    4  A    between atoms: C_7  and  N_8 
REMARK    5  A    between atoms: C_12  and  N_13 
REMARK       I    between atoms: N_13  and  C_14 
REMARK       I    between atoms: C_14  and  N_15 
REMARK    6  A    between atoms: N_15  and  C_16 
ROOT
HETATM    1  N   UNL     1      41.185 -13.330   4.710  1.00  0.00    -0.063 N 
HETATM    2  H   UNL     1      40.596 -13.259   3.871  1.00  0.00     0.280 HD
HETATM    3  C   UNL     1      40.295 -13.903   5.791  1.00  0.00     0.237 C 
HETATM    4  C   UNL     1      39.226 -12.913   6.215  1.00  0.00     0.053 C 
HETATM    5  C   UNL     1      39.749 -11.513   6.538  1.00  0.00     0.089 C 
HETATM    6  C   UNL     1      40.648 -10.985   5.422  1.00  0.00     0.053 C 
HETATM    7  C   UNL     1      41.726 -11.947   4.956  1.00  0.00     0.237 C 
ENDROOT
BRANCH   1   8
HETATM    8  C   UNL     1      42.315 -14.308   4.316  1.00  0.00     0.337 C 
BRANCH   8   9
HETATM    9  C   UNL     1      41.913 -15.773   4.105  1.00  0.00     0.243 C 
HETATM   10  N   UNL     1      42.507 -16.694   4.935  1.00  0.00    -0.355 N 
HETATM   11  H   UNL     1      42.736 -16.403   5.881  1.00  0.00     0.162 HD
HETATM   12  O   UNL     1      41.075 -16.073   3.256  1.00  0.00    -0.272 OA
BRANCH  10  13
HETATM   13  C   UNL     1      42.113 -18.088   4.858  1.00  0.00     0.169 C 
BRANCH  13  14
HETATM   14  C   UNL     1      43.254 -18.980   4.440  1.00  0.00     0.006 A 
HETATM   15  C   UNL     1      43.620 -19.315   3.140  1.00  0.00    -0.047 A 
HETATM   16  C   UNL     1      42.948 -18.817   1.899  1.00  0.00     0.049 C 
HETATM   17  C   UNL     1      44.729 -20.225   3.123  1.00  0.00     0.015 A 
HETATM   18  C   UNL     1      45.167 -20.552   4.383  1.00  0.00     0.051 A 
HETATM   19  S   UNL     1      44.255 -19.777   5.591  1.00  0.00    -0.104 SA
ENDBRANCH  13  14
ENDBRANCH  10  13
ENDBRANCH   8   9
ENDBRANCH   1   8
BRANCH   5  20
HETATM   20  N   UNL     1      40.295 -11.357   7.888  1.00  0.00    -0.338 N 
HETATM   21  C   UNL     1      39.647 -10.882   8.979  1.00  0.00     0.321 C 
HETATM   22  N   UNL     1      40.314 -10.827  10.156  1.00  0.00    -0.309 N 
HETATM   23  O   UNL     1      38.463 -10.555   8.946  1.00  0.00    -0.247 OA
HETATM   24  H   UNL     1      39.683 -10.671  10.937  1.00  0.00     0.170 HD
HETATM   25  H   UNL     1      41.072 -11.965   8.124  1.00  0.00     0.164 HD
BRANCH  22  26
HETATM   26  C   UNL     1      41.681 -10.863  10.488  1.00  0.00     0.036 A 
HETATM   27  C   UNL     1      42.717 -10.539   9.611  1.00  0.00     0.029 A 
HETATM   28  C   UNL     1      44.048 -10.587  10.043  1.00  0.00     0.002 A 
HETATM   29  C   UNL     1      44.349 -10.940  11.356  1.00  0.00     0.000 A 
HETATM   30  C   UNL     1      43.321 -11.235  12.246  1.00  0.00     0.002 A 
HETATM   31  C   UNL     1      41.994 -11.189  11.816  1.00  0.00     0.029 A 
ENDBRANCH  22  26
ENDBRANCH   5  20
TORSDOF 6
ENDMDL
MODEL 9
REMARK VINA RESULT:      -8.2      3.730      5.240
REMARK  6 active torsions:
REMARK  status: ('A' for Active; 'I' for Inactive)
REMARK    1  A    between atoms: C_3  and  C_4 
REMARK    2  A    between atoms: C_4  and  N_5 
REMARK       I    between atoms: N_5  and  C_6 
REMARK    3  A    between atoms: C_6  and  C_7 
REMARK    4  A    between atoms: C_7  and  N_8 
REMARK    5  A    between atoms: C_12  and  N_13 
REMARK       I    between atoms: N_13  and  C_14 
REMARK       I    between atoms: C_14  and  N_15 
REMARK    6  A    between atoms: N_15  and  C_16 
ROOT
HETATM    1  N   UNL     1      40.895 -14.591   1.454  1.00  0.00    -0.063 N 
HETATM    2  H   UNL     1      40.136 -14.411   0.785  1.00  0.00     0.280 HD
HETATM    3  C   UNL     1      42.013 -15.217   0.650  1.00  0.00     0.237 C 
HETATM    4  C   UNL     1      41.646 -16.610   0.175  1.00  0.00     0.053 C 
HETATM    5  C   UNL     1      41.097 -17.529   1.267  1.00  0.00     0.089 C 
HETATM    6  C   UNL     1      39.978 -16.849   2.054  1.00  0.00     0.053 C 
HETATM    7  C   UNL     1      40.296 -15.445   2.539  1.00  0.00     0.237 C 
ENDROOT
BRANCH   1   8
HETATM    8  C   UNL     1      41.284 -13.197   1.995  1.00  0.00     0.337 C 
BRANCH   8   9
HETATM    9  C   UNL     1      42.215 -13.168   3.213  1.00  0.00     0.243 C 
HETATM   10  N   UNL     1      41.609 -13.043   4.441  1.00  0.00    -0.355 N 
HETATM   11  H   UNL     1      40.691 -13.461   4.562  1.00  0.00     0.162 HD
HETATM   12  O   UNL     1      43.430 -13.290   3.072  1.00  0.00    -0.272 OA
BRANCH  10  13
HETATM   13  C   UNL     1      42.412 -13.098   5.647  1.00  0.00     0.169 C 
BRANCH  13  14
HETATM   14  C   UNL     1      42.715 -14.513   6.066  1.00  0.00     0.006 A 
HETATM   15  C   UNL     1      43.909 -14.990   6.600  1.00  0.00    -0.047 A 
HETATM   16  C   UNL     1      45.120 -14.157   6.883  1.00  0.00     0.049 C 
HETATM   17  C   UNL     1      43.852 -16.402   6.839  1.00  0.00     0.015 A 
HETATM   18  C   UNL     1      42.644 -16.953   6.488  1.00  0.00     0.051 A 
HETATM   19  S   UNL     1      41.573 -15.786   5.868  1.00  0.00    -0.104 SA
ENDBRANCH  13  14
ENDBRANCH  10  13
ENDBRANCH   8   9
ENDBRANCH   1   8
BRANCH   5  20
HETATM   20  N   UNL     1      42.116 -18.181   2.092  1.00  0.00    -0.338 N 
HETATM   21  C   UNL     1      43.192 -17.595   2.671  1.00  0.00     0.321 C 
HETATM   22  N   UNL     1      44.021 -18.360   3.419  1.00  0.00    -0.309 N 
HETATM   23  O   UNL     1      43.405 -16.389   2.585  1.00  0.00    -0.247 OA
HETATM   24  H   UNL     1      44.653 -17.793   3.977  1.00  0.00     0.170 HD
HETATM   25  H   UNL     1      41.825 -19.029   2.566  1.00  0.00     0.164 HD
BRANCH  22  26
HETATM   26  C   UNL     1      44.226 -19.749   3.511  1.00  0.00     0.036 A 
HETATM   27  C   UNL     1      44.180 -20.629   2.428  1.00  0.00     0.029 A 
HETATM   28  C   UNL     1      44.416 -21.995   2.619  1.00  0.00     0.002 A 
HETATM   29  C   UNL     1      44.719 -22.487   3.887  1.00  0.00     0.000 A 
HETATM   30  C   UNL     1      44.798 -21.613   4.966  1.00  0.00     0.002 A 
HETATM   31  C   UNL     1      44.561 -20.250   4.777  1.00  0.00     0.029 A 
ENDBRANCH  22  26
ENDBRANCH   5  20
TORSDOF 6
ENDMDL
MODEL 10
REMARK VINA RESULT:      -8.0      4.480      7.230
REMARK  6 active torsions:
REMARK  status: ('A' for Active; 'I' for Inactive)
REMARK    1  A    between atoms: C_3  and  C_4 
REMARK    2  A    between atoms: C_4  and  N_5 
REMARK       I    between atoms: N_5  and  C_6 
REMARK    3  A    between atoms: C_6  and  C_7 
REMARK    4  A    between atoms: C_7  and  N_8 
REMARK    5  A    between atoms: C_12  and  N_13 
REMARK       I    between atoms: N_13  and  C_14 
REMARK       I    between atoms: C_14  and  N_15 
REMARK    6  A    between atoms: N_15  and  C_16 
ROOT
HETATM    1  N   UNL     1      42.003 -14.345   5.007  1.00  0.00    -0.063 N 
HETATM    2  H   UNL     1      41.692 -13.712   5.754  1.00  0.00     0.280 HD
HETATM    3  C   UNL     1      41.169 -15.598   5.154  1.00  0.00     0.237 C 
HETATM    4  C   UNL     1      41.530 -16.362   6.414  1.00  0.00     0.053 C 
HETATM    5  C   UNL     1      43.028 -16.606   6.603  1.00  0.00     0.089 C 
HETATM    6  C   UNL     1      43.825 -15.313   6.434  1.00  0.00     0.053 C 
HETATM    7  C   UNL     1      43.488 -14.507   5.192  1.00  0.00     0.237 C 
ENDROOT
BRANCH   1   8
HETATM    8  C   UNL     1      41.686 -13.593   3.694  1.00  0.00     0.337 C 
BRANCH   8   9
HETATM    9  C   UNL     1      40.922 -14.378   2.621  1.00  0.00     0.243 C 
HETATM   10  N   UNL     1      39.597 -14.050   2.452  1.00  0.00    -0.355 N 
HETATM   11  H   UNL     1      39.324 -13.084   2.610  1.00  0.00     0.162 HD
HETATM   12  O   UNL     1      41.497 -15.223   1.938  1.00  0.00    -0.272 OA
BRANCH  10  13
HETATM   13  C   UNL     1      38.829 -14.683   1.397  1.00  0.00     0.169 C 
BRANCH  13  14
HETATM   14  C   UNL     1      38.837 -13.877   0.124  1.00  0.00     0.006 A 
HETATM   15  C   UNL     1      37.976 -12.836  -0.210  1.00  0.00    -0.047 A 
HETATM   16  C   UNL     1      36.885 -12.304   0.665  1.00  0.00     0.049 C 
HETATM   17  C   UNL     1      38.248 -12.329  -1.524  1.00  0.00     0.015 A 
HETATM   18  C   UNL     1      39.286 -12.983  -2.141  1.00  0.00     0.051 A 
HETATM   19  S   UNL     1      39.937 -14.208  -1.157  1.00  0.00    -0.104 SA
ENDBRANCH  13  14
ENDBRANCH  10  13
ENDBRANCH   8   9
ENDBRANCH   1   8
BRANCH   5  20
HETATM   20  N   UNL     1      43.562 -17.753   5.866  1.00  0.00    -0.338 N 
HETATM   21  C   UNL     1      44.777 -18.331   6.027  1.00  0.00     0.321 C 
HETATM   22  N   UNL     1      45.092 -19.403   5.263  1.00  0.00    -0.309 N 
HETATM   23  O   UNL     1      45.575 -17.949   6.880  1.00  0.00    -0.247 OA
HETATM   24  H   UNL     1      45.915 -19.884   5.613  1.00  0.00     0.170 HD
HETATM   25  H   UNL     1      42.873 -18.385   5.472  1.00  0.00     0.164 HD
BRANCH  22  26
HETATM   26  C   UNL     1      44.561 -19.918   4.066  1.00  0.00     0.036 A 
HETATM   27  C   UNL     1      43.923 -19.152   3.088  1.00  0.00     0.029 A 
HETATM   28  C   UNL     1      43.445 -19.755   1.919  1.00  0.00     0.002 A 
HETATM   29  C   UNL     1      43.617 -21.122   1.712  1.00  0.00     0.000 A 
HETATM   30  C   UNL     1      44.279 -21.888   2.666  1.00  0.00     0.002 A 
HETATM   31  C   UNL     1      44.755 -21.287   3.833  1.00  0.00     0.029 A 
ENDBRANCH  22  26
ENDBRANCH   5  20
TORSDOF 6
ENDMDL
