MODEL 1
REMARK VINA RESULT:      -8.2      0.000      0.000
REMARK  6 active torsions:
REMARK  status: ('A' for Active; 'I' for Inactive)
REMARK    1  A    between atoms: O_2  and  C_3 
REMARK    2  A    between atoms: C_3  and  C_4 
REMARK    3  A    between atoms: C_4  and  N_5 
REMARK       I    between atoms: N_5  and  C_6 
REMARK    4  A    between atoms: C_6  and  C_7 
REMARK    5  A    between atoms: C_12  and  C_13 
REMARK    6  A    between atoms: C_20  and  C_21 
ROOT
HETATM    1  C   UNL     1      42.525 -14.496   4.654  1.00  0.00     0.165 A 
HETATM    2  N   UNL     1      42.164 -14.834   3.389  1.00  0.00    -0.163 NA
HETATM    3  N   UNL     1      42.529 -16.122   3.277  1.00  0.00    -0.238 N 
HETATM    4  C   UNL     1      43.225 -16.592   4.360  1.00  0.00     0.141 A 
HETATM    5  N   UNL     1      43.767 -17.836   4.357  1.00  0.00    -0.365 N 
HETATM    6  C   UNL     1      43.956 -18.525   3.083  1.00  0.00     0.118 C 
HETATM    7  C   UNL     1      42.690 -18.352   2.235  1.00  0.00     0.066 C 
HETATM    8  C   UNL     1      42.373 -16.857   2.032  1.00  0.00     0.221 C 
HETATM    9  C   UNL     1      43.193 -15.577   5.281  1.00  0.00     0.092 A 
HETATM   10 BR   UNL     1      43.935 -15.615   7.000  1.00  0.00    -0.044 Br
HETATM   11  H   UNL     1      44.450 -18.077   5.076  1.00  0.00     0.162 HD
ENDROOT
BRANCH   1  12
HETATM   12  C   UNL     1      42.227 -13.154   5.185  1.00  0.00     0.273 C 
HETATM   13  N   UNL     1      41.444 -12.397   4.342  1.00  0.00    -0.353 N 
HETATM   14  H   UNL     1      41.048 -12.892   3.544  1.00  0.00     0.162 HD
HETATM   15  O   UNL     1      42.627 -12.745   6.271  1.00  0.00    -0.266 OA
BRANCH  13  16
HETATM   16  C   UNL     1      40.849 -11.139   4.739  1.00  0.00     0.149 C 
BRANCH  16  17
HETATM   17  C   UNL     1      39.371 -11.303   5.086  1.00  0.00     0.186 C 
BRANCH  17  18
HETATM   18  O   UNL     1      39.129 -10.757   6.388  1.00  0.00    -0.394 OA
HETATM   19  C   UNL     1      39.527 -11.659   7.413  1.00  0.00     0.201 C 
ENDBRANCH  17  18
ENDBRANCH  16  17
ENDBRANCH  13  16
ENDBRANCH   1  12
BRANCH   8  20
HETATM   20  C   UNL     1      40.982 -16.706   1.456  1.00  0.00     0.409 C 
HETATM   21  F   UNL     1      40.026 -16.679   2.411  1.00  0.00    -0.169 F 
HETATM   22  F   UNL     1      40.840 -15.610   0.682  1.00  0.00    -0.169 F 
HETATM   23  F   UNL     1      40.702 -17.771   0.656  1.00  0.00    -0.169 F 
ENDBRANCH   8  20
BRANCH   6  24
HETATM   24  C   UNL     1      44.266 -19.991   3.310  1.00  0.00    -0.035 A 
HETATM   25  C   UNL     1      44.668 -20.474   4.567  1.00  0.00     0.009 A 
HETATM   26  C   UNL     1      44.927 -21.831   4.761  1.00  0.00     0.001 A 
HETATM   27  C   UNL     1      44.778 -22.727   3.705  1.00  0.00     0.000 A 
HETATM   28  C   UNL     1      44.370 -22.268   2.456  1.00  0.00     0.001 A 
HETATM   29  C   UNL     1      44.114 -20.909   2.259  1.00  0.00     0.009 A 
ENDBRANCH   6  24
TORSDOF 6
ENDMDL
MODEL 2
REMARK VINA RESULT:      -8.0      0.735      1.289
REMARK  6 active torsions:
REMARK  status: ('A' for Active; 'I' for Inactive)
REMARK    1  A    between atoms: O_2  and  C_3 
REMARK    2  A    between atoms: C_3  and  C_4 
REMARK    3  A    between atoms: C_4  and  N_5 
REMARK       I    between atoms: N_5  and  C_6 
REMARK    4  A    between atoms: C_6  and  C_7 
REMARK    5  A    between atoms: C_12  and  C_13 
REMARK    6  A    between atoms: C_20  and  C_21 
ROOT
HETATM    1  C   UNL     1      42.303 -14.681   5.084  1.00  0.00     0.165 A 
HETATM    2  N   UNL     1      42.055 -14.863   3.762  1.00  0.00    -0.163 NA
HETATM    3  N   UNL     1      42.449 -16.125   3.524  1.00  0.00    -0.238 N 
HETATM    4  C   UNL     1      43.058 -16.721   4.598  1.00  0.00     0.141 A 
HETATM    5  N   UNL     1      43.618 -17.953   4.490  1.00  0.00    -0.365 N 
HETATM    6  C   UNL     1      43.924 -18.479   3.162  1.00  0.00     0.118 C 
HETATM    7  C   UNL     1      42.732 -18.209   2.235  1.00  0.00     0.066 C 
HETATM    8  C   UNL     1      42.410 -16.702   2.190  1.00  0.00     0.221 C 
HETATM    9  C   UNL     1      42.932 -15.828   5.630  1.00  0.00     0.092 A 
HETATM   10 BR   UNL     1      43.526 -16.073   7.389  1.00  0.00    -0.044 Br
HETATM   11  H   UNL     1      44.241 -18.277   5.230  1.00  0.00     0.162 HD
ENDROOT
BRANCH   1  12
HETATM   12  C   UNL     1      41.940 -13.416   5.748  1.00  0.00     0.273 C 
HETATM   13  N   UNL     1      40.604 -13.103   5.626  1.00  0.00    -0.353 N 
HETATM   14  H   UNL     1      40.013 -13.835   5.235  1.00  0.00     0.162 HD
HETATM   15  O   UNL     1      42.739 -12.710   6.356  1.00  0.00    -0.266 OA
BRANCH  13  16
HETATM   16  C   UNL     1      39.977 -12.031   6.370  1.00  0.00     0.149 C 
BRANCH  16  17
HETATM   17  C   UNL     1      39.542 -10.891   5.451  1.00  0.00     0.186 C 
BRANCH  17  18
HETATM   18  O   UNL     1      38.329 -11.259   4.785  1.00  0.00    -0.394 OA
HETATM   19  C   UNL     1      38.478 -11.218   3.372  1.00  0.00     0.201 C 
ENDBRANCH  17  18
ENDBRANCH  16  17
ENDBRANCH  13  16
ENDBRANCH   1  12
BRANCH   8  20
HETATM   20  C   UNL     1      41.070 -16.489   1.520  1.00  0.00     0.409 C 
HETATM   21  F   UNL     1      40.996 -15.303   0.877  1.00  0.00    -0.169 F 
HETATM   22  F   UNL     1      40.749 -17.466   0.646  1.00  0.00    -0.169 F 
HETATM   23  F   UNL     1      40.086 -16.486   2.459  1.00  0.00    -0.169 F 
ENDBRANCH   8  20
BRANCH   6  24
HETATM   24  C   UNL     1      44.237 -19.960   3.233  1.00  0.00    -0.035 A 
HETATM   25  C   UNL     1      44.647 -20.570   4.432  1.00  0.00     0.009 A 
HETATM   26  C   UNL     1      44.909 -21.940   4.482  1.00  0.00     0.001 A 
HETATM   27  C   UNL     1      44.754 -22.722   3.340  1.00  0.00     0.000 A 
HETATM   28  C   UNL     1      44.338 -22.136   2.147  1.00  0.00     0.001 A 
HETATM   29  C   UNL     1      44.081 -20.764   2.093  1.00  0.00     0.009 A 
ENDBRANCH   6  24
TORSDOF 6
ENDMDL
MODEL 3
REMARK VINA RESULT:      -7.8      1.423      1.974
REMARK  6 active torsions:
REMARK  status: ('A' for Active; 'I' for Inactive)
REMARK    1  A    between atoms: O_2  and  C_3 
REMARK    2  A    between atoms: C_3  and  C_4 
REMARK    3  A    between atoms: C_4  and  N_5 
REMARK       I    between atoms: N_5  and  C_6 
REMARK    4  A    between atoms: C_6  and  C_7 
REMARK    5  A    between atoms: C_12  and  C_13 
REMARK    6  A    between atoms: C_20  and  C_21 
ROOT
HETATM    1  C   UNL     1      42.363 -14.412   4.349  1.00  0.00     0.165 A 
HETATM    2  N   UNL     1      42.013 -14.857   3.115  1.00  0.00    -0.163 NA
HETATM    3  N   UNL     1      42.404 -16.143   3.105  1.00  0.00    -0.238 N 
HETATM    4  C   UNL     1      43.104 -16.511   4.224  1.00  0.00     0.141 A 
HETATM    5  N   UNL     1      43.671 -17.740   4.321  1.00  0.00    -0.365 N 
HETATM    6  C   UNL     1      43.877 -18.525   3.106  1.00  0.00     0.118 C 
HETATM    7  C   UNL     1      42.612 -18.445   2.244  1.00  0.00     0.066 C 
HETATM    8  C   UNL     1      42.266 -16.977   1.923  1.00  0.00     0.221 C 
HETATM    9  C   UNL     1      43.049 -15.427   5.062  1.00  0.00     0.092 A 
HETATM   10 BR   UNL     1      43.786 -15.314   6.780  1.00  0.00    -0.044 Br
HETATM   11  H   UNL     1      44.356 -17.910   5.059  1.00  0.00     0.162 HD
ENDROOT
BRANCH   1  12
HETATM   12  C   UNL     1      42.037 -13.039   4.772  1.00  0.00     0.273 C 
HETATM   13  N   UNL     1      41.557 -12.967   6.061  1.00  0.00    -0.353 N 
HETATM   14  H   UNL     1      41.625 -13.825   6.606  1.00  0.00     0.162 HD
HETATM   15  O   UNL     1      42.180 -12.052   4.057  1.00  0.00    -0.266 OA
BRANCH  13  16
HETATM   16  C   UNL     1      41.374 -11.714   6.763  1.00  0.00     0.149 C 
BRANCH  16  17
HETATM   17  C   UNL     1      42.568 -11.397   7.662  1.00  0.00     0.186 C 
BRANCH  17  18
HETATM   18  O   UNL     1      42.109 -10.704   8.828  1.00  0.00    -0.394 OA
HETATM   19  C   UNL     1      43.125 -10.623   9.820  1.00  0.00     0.201 C 
ENDBRANCH  17  18
ENDBRANCH  16  17
ENDBRANCH  13  16
ENDBRANCH   1  12
BRANCH   8  20
HETATM   20  C   UNL     1      40.874 -16.900   1.334  1.00  0.00     0.409 C 
HETATM   21  F   UNL     1      40.736 -15.875   0.464  1.00  0.00    -0.169 F 
HETATM   22  F   UNL     1      40.494 -18.036   0.714  1.00  0.00    -0.169 F 
HETATM   23  F   UNL     1      39.969 -16.692   2.328  1.00  0.00    -0.169 F 
ENDBRANCH   8  20
BRANCH   6  24
HETATM   24  C   UNL     1      44.215 -19.962   3.450  1.00  0.00    -0.035 A 
HETATM   25  C   UNL     1      44.173 -20.980   2.481  1.00  0.00     0.009 A 
HETATM   26  C   UNL     1      44.509 -22.294   2.812  1.00  0.00     0.001 A 
HETATM   27  C   UNL     1      44.902 -22.607   4.111  1.00  0.00     0.000 A 
HETATM   28  C   UNL     1      44.959 -21.608   5.080  1.00  0.00     0.001 A 
HETATM   29  C   UNL     1      44.619 -20.294   4.752  1.00  0.00     0.009 A 
ENDBRANCH   6  24
TORSDOF 6
ENDMDL
MODEL 4
REMARK VINA RESULT:      -7.7      3.738      4.701
REMARK  6 active torsions:
REMARK  status: ('A' for Active; 'I' for Inactive)
REMARK    1  A    between atoms: O_2  and  C_3 
REMARK    2  A    between atoms: C_3  and  C_4 
REMARK    3  A    between atoms: C_4  and  N_5 
REMARK       I    between atoms: N_5  and  C_6 
REMARK    4  A    between atoms: C_6  and  C_7 
REMARK    5  A    between atoms: C_12  and  C_13 
REMARK    6  A    between atoms: C_20  and  C_21 
ROOT
HETATM    1  C   UNL     1      41.378 -13.499   2.158  1.00  0.00     0.165 A 
HETATM    2  N   UNL     1      41.720 -13.654   3.462  1.00  0.00    -0.163 NA
HETATM    3  N   UNL     1      42.218 -14.900   3.526  1.00  0.00    -0.238 N 
HETATM    4  C   UNL     1      42.093 -15.602   2.356  1.00  0.00     0.141 A 
HETATM    5  N   UNL     1      42.438 -16.912   2.284  1.00  0.00    -0.365 N 
HETATM    6  C   UNL     1      42.568 -17.679   3.521  1.00  0.00     0.118 C 
HETATM    7  C   UNL     1      43.347 -16.843   4.543  1.00  0.00     0.066 C 
HETATM    8  C   UNL     1      42.648 -15.490   4.783  1.00  0.00     0.221 C 
HETATM    9  C   UNL     1      41.599 -14.704   1.444  1.00  0.00     0.092 A 
HETATM   10 BR   UNL     1      41.245 -15.039  -0.364  1.00  0.00    -0.044 Br
HETATM   11  H   UNL     1      42.139 -17.457   1.475  1.00  0.00     0.162 HD
ENDROOT
BRANCH   1  12
HETATM   12  C   UNL     1      40.844 -12.215   1.669  1.00  0.00     0.273 C 
HETATM   13  N   UNL     1      41.823 -11.282   1.411  1.00  0.00    -0.353 N 
HETATM   14  H   UNL     1      42.782 -11.628   1.442  1.00  0.00     0.162 HD
HETATM   15  O   UNL     1      39.649 -11.992   1.501  1.00  0.00    -0.266 OA
BRANCH  13  16
HETATM   16  C   UNL     1      41.560 -10.034   0.727  1.00  0.00     0.149 C 
BRANCH  16  17
HETATM   17  C   UNL     1      42.317  -9.952  -0.598  1.00  0.00     0.186 C 
BRANCH  17  18
HETATM   18  O   UNL     1      43.204 -11.072  -0.704  1.00  0.00    -0.394 OA
HETATM   19  C   UNL     1      42.963 -11.817  -1.891  1.00  0.00     0.201 C 
ENDBRANCH  17  18
ENDBRANCH  16  17
ENDBRANCH  13  16
ENDBRANCH   1  12
BRANCH   8  20
HETATM   20  C   UNL     1      43.570 -14.571   5.554  1.00  0.00     0.409 C 
HETATM   21  F   UNL     1      44.321 -13.793   4.744  1.00  0.00    -0.169 F 
HETATM   22  F   UNL     1      42.922 -13.773   6.427  1.00  0.00    -0.169 F 
HETATM   23  F   UNL     1      44.438 -15.313   6.295  1.00  0.00    -0.169 F 
ENDBRANCH   8  20
BRANCH   6  24
HETATM   24  C   UNL     1      43.258 -19.003   3.257  1.00  0.00    -0.035 A 
HETATM   25  C   UNL     1      43.041 -19.724   2.071  1.00  0.00     0.009 A 
HETATM   26  C   UNL     1      43.703 -20.931   1.837  1.00  0.00     0.001 A 
HETATM   27  C   UNL     1      44.599 -21.428   2.780  1.00  0.00     0.000 A 
HETATM   28  C   UNL     1      44.834 -20.720   3.957  1.00  0.00     0.001 A 
HETATM   29  C   UNL     1      44.169 -19.516   4.194  1.00  0.00     0.009 A 
ENDBRANCH   6  24
TORSDOF 6
ENDMDL
MODEL 5
REMARK VINA RESULT:      -7.5      3.343      4.213
REMARK  6 active torsions:
REMARK  status: ('A' for Active; 'I' for Inactive)
REMARK    1  A    between atoms: O_2  and  C_3 
REMARK    2  A    between atoms: C_3  and  C_4 
REMARK    3  A    between atoms: C_4  and  N_5 
REMARK       I    between atoms: N_5  and  C_6 
REMARK    4  A    between atoms: C_6  and  C_7 
REMARK    5  A    between atoms: C_12  and  C_13 
REMARK    6  A    between atoms: C_20  and  C_21 
ROOT
HETATM    1  C   UNL     1      40.276 -13.672   4.432  1.00  0.00     0.165 A 
HETATM    2  N   UNL     1      41.231 -13.804   5.387  1.00  0.00    -0.163 NA
HETATM    3  N   UNL     1      41.872 -14.939   5.057  1.00  0.00    -0.238 N 
HETATM    4  C   UNL     1      41.293 -15.611   4.012  1.00  0.00     0.141 A 
HETATM    5  N   UNL     1      41.746 -16.831   3.629  1.00  0.00    -0.365 N 
HETATM    6  C   UNL     1      42.574 -17.603   4.552  1.00  0.00     0.118 C 
HETATM    7  C   UNL     1      43.623 -16.672   5.173  1.00  0.00     0.066 C 
HETATM    8  C   UNL     1      42.942 -15.481   5.877  1.00  0.00     0.221 C 
HETATM    9  C   UNL     1      40.292 -14.790   3.560  1.00  0.00     0.092 A 
HETATM   10 BR   UNL     1      39.152 -15.123   2.113  1.00  0.00    -0.044 Br
HETATM   11  H   UNL     1      41.172 -17.395   3.000  1.00  0.00     0.162 HD
ENDROOT
BRANCH   1  12
HETATM   12  C   UNL     1      39.391 -12.494   4.414  1.00  0.00     0.273 C 
HETATM   13  N   UNL     1      39.420 -11.810   3.219  1.00  0.00    -0.353 N 
HETATM   14  H   UNL     1      39.918 -12.271   2.458  1.00  0.00     0.162 HD
HETATM   15  O   UNL     1      38.690 -12.151   5.362  1.00  0.00    -0.266 OA
BRANCH  13  16
HETATM   16  C   UNL     1      38.483 -10.756   2.892  1.00  0.00     0.149 C 
BRANCH  16  17
HETATM   17  C   UNL     1      37.595 -11.142   1.711  1.00  0.00     0.186 C 
BRANCH  17  18
HETATM   18  O   UNL     1      38.396 -11.776   0.707  1.00  0.00    -0.394 OA
HETATM   19  C   UNL     1      37.592 -12.478  -0.233  1.00  0.00     0.201 C 
ENDBRANCH  17  18
ENDBRANCH  16  17
ENDBRANCH  13  16
ENDBRANCH   1  12
BRANCH   8  20
HETATM   20  C   UNL     1      43.979 -14.434   6.220  1.00  0.00     0.409 C 
HETATM   21  F   UNL     1      43.496 -13.478   7.044  1.00  0.00    -0.169 F 
HETATM   22  F   UNL     1      45.095 -14.949   6.776  1.00  0.00    -0.169 F 
HETATM   23  F   UNL     1      44.382 -13.802   5.085  1.00  0.00    -0.169 F 
ENDBRANCH   8  20
BRANCH   6  24
HETATM   24  C   UNL     1      43.231 -18.766   3.836  1.00  0.00    -0.035 A 
HETATM   25  C   UNL     1      44.144 -19.612   4.488  1.00  0.00     0.009 A 
HETATM   26  C   UNL     1      44.722 -20.692   3.818  1.00  0.00     0.001 A 
HETATM   27  C   UNL     1      44.388 -20.947   2.489  1.00  0.00     0.000 A 
HETATM   28  C   UNL     1      43.477 -20.124   1.831  1.00  0.00     0.001 A 
HETATM   29  C   UNL     1      42.902 -19.041   2.500  1.00  0.00     0.009 A 
ENDBRANCH   6  24
TORSDOF 6
ENDMDL
MODEL 6
REMARK VINA RESULT:      -7.4      6.486     10.971
REMARK  6 active torsions:
REMARK  status: ('A' for Active; 'I' for Inactive)
REMARK    1  A    between atoms: O_2  and  C_3 
REMARK    2  A    between atoms: C_3  and  C_4 
REMARK    3  A    between atoms: C_4  and  N_5 
REMARK       I    between atoms: N_5  and  C_6 
REMARK    4  A    between atoms: C_6  and  C_7 
REMARK    5  A    between atoms: C_12  and  C_13 
REMARK    6  A    between atoms: C_20  and  C_21 
ROOT
HETATM    1  C   UNL     1      41.722 -10.822   7.844  1.00  0.00     0.165 A 
HETATM    2  N   UNL     1      43.015 -10.927   8.246  1.00  0.00    -0.163 NA
HETATM    3  N   UNL     1      42.990 -10.548   9.535  1.00  0.00    -0.238 N 
HETATM    4  C   UNL     1      41.769 -10.081   9.946  1.00  0.00     0.141 A 
HETATM    5  N   UNL     1      41.603  -9.551  11.184  1.00  0.00    -0.365 N 
HETATM    6  C   UNL     1      42.779  -9.115  11.932  1.00  0.00     0.118 C 
HETATM    7  C   UNL     1      43.869 -10.187  11.811  1.00  0.00     0.066 C 
HETATM    8  C   UNL     1      44.203 -10.456  10.330  1.00  0.00     0.221 C 
HETATM    9  C   UNL     1      40.923 -10.294   8.888  1.00  0.00     0.092 A 
HETATM   10 BR   UNL     1      39.091  -9.907   8.837  1.00  0.00    -0.044 Br
HETATM   11  H   UNL     1      40.752  -9.024  11.385  1.00  0.00     0.162 HD
ENDROOT
BRANCH   1  12
HETATM   12  C   UNL     1      41.326 -11.218   6.480  1.00  0.00     0.273 C 
HETATM   13  N   UNL     1      41.110 -12.572   6.349  1.00  0.00    -0.353 N 
HETATM   14  H   UNL     1      41.100 -13.104   7.218  1.00  0.00     0.162 HD
HETATM   15  O   UNL     1      41.195 -10.427   5.551  1.00  0.00    -0.266 OA
BRANCH  13  16
HETATM   16  C   UNL     1      40.510 -13.161   5.171  1.00  0.00     0.149 C 
BRANCH  16  17
HETATM   17  C   UNL     1      40.049 -14.594   5.434  1.00  0.00     0.186 C 
BRANCH  17  18
HETATM   18  O   UNL     1      41.104 -15.317   6.078  1.00  0.00    -0.394 OA
HETATM   19  C   UNL     1      40.742 -16.673   6.306  1.00  0.00     0.201 C 
ENDBRANCH  17  18
ENDBRANCH  16  17
ENDBRANCH  13  16
ENDBRANCH   1  12
BRANCH   8  20
HETATM   20  C   UNL     1      45.050 -11.705  10.219  1.00  0.00     0.409 C 
HETATM   21  F   UNL     1      45.889 -11.856  11.267  1.00  0.00    -0.169 F 
HETATM   22  F   UNL     1      44.321 -12.834  10.093  1.00  0.00    -0.169 F 
HETATM   23  F   UNL     1      45.827 -11.632   9.105  1.00  0.00    -0.169 F 
ENDBRANCH   8  20
BRANCH   6  24
HETATM   24  C   UNL     1      42.424  -8.858  13.383  1.00  0.00    -0.035 A 
HETATM   25  C   UNL     1      41.976  -7.599  13.820  1.00  0.00     0.009 A 
HETATM   26  C   UNL     1      41.633  -7.389  15.157  1.00  0.00     0.001 A 
HETATM   27  C   UNL     1      41.722  -8.435  16.073  1.00  0.00     0.000 A 
HETATM   28  C   UNL     1      42.153  -9.691  15.654  1.00  0.00     0.001 A 
HETATM   29  C   UNL     1      42.502  -9.902  14.318  1.00  0.00     0.009 A 
ENDBRANCH   6  24
TORSDOF 6
ENDMDL
MODEL 7
REMARK VINA RESULT:      -7.4      3.021      3.808
REMARK  6 active torsions:
REMARK  status: ('A' for Active; 'I' for Inactive)
REMARK    1  A    between atoms: O_2  and  C_3 
REMARK    2  A    between atoms: C_3  and  C_4 
REMARK    3  A    between atoms: C_4  and  N_5 
REMARK       I    between atoms: N_5  and  C_6 
REMARK    4  A    between atoms: C_6  and  C_7 
REMARK    5  A    between atoms: C_12  and  C_13 
REMARK    6  A    between atoms: C_20  and  C_21 
ROOT
HETATM    1  C   UNL     1      40.380 -13.577   4.178  1.00  0.00     0.165 A 
HETATM    2  N   UNL     1      41.295 -13.694   5.175  1.00  0.00    -0.163 NA
HETATM    3  N   UNL     1      41.929 -14.847   4.905  1.00  0.00    -0.238 N 
HETATM    4  C   UNL     1      41.382 -15.543   3.859  1.00  0.00     0.141 A 
HETATM    5  N   UNL     1      41.829 -16.781   3.531  1.00  0.00    -0.365 N 
HETATM    6  C   UNL     1      42.608 -17.536   4.510  1.00  0.00     0.118 C 
HETATM    7  C   UNL     1      43.647 -16.602   5.143  1.00  0.00     0.066 C 
HETATM    8  C   UNL     1      42.958 -15.380   5.783  1.00  0.00     0.221 C 
HETATM    9  C   UNL     1      40.413 -14.722   3.343  1.00  0.00     0.092 A 
HETATM   10 BR   UNL     1      39.325 -15.082   1.862  1.00  0.00    -0.044 Br
HETATM   11  H   UNL     1      41.272 -17.355   2.897  1.00  0.00     0.162 HD
ENDROOT
BRANCH   1  12
HETATM   12  C   UNL     1      39.515 -12.387   4.090  1.00  0.00     0.273 C 
HETATM   13  N   UNL     1      39.679 -11.517   5.146  1.00  0.00    -0.353 N 
HETATM   14  H   UNL     1      40.463 -11.717   5.765  1.00  0.00     0.162 HD
HETATM   15  O   UNL     1      38.730 -12.180   3.170  1.00  0.00    -0.266 OA
BRANCH  13  16
HETATM   16  C   UNL     1      39.101 -10.190   5.168  1.00  0.00     0.149 C 
BRANCH  16  17
HETATM   17  C   UNL     1      40.177  -9.110   5.084  1.00  0.00     0.186 C 
BRANCH  17  18
HETATM   18  O   UNL     1      41.325  -9.528   5.832  1.00  0.00    -0.394 OA
HETATM   19  C   UNL     1      41.416  -8.843   7.074  1.00  0.00     0.201 C 
ENDBRANCH  17  18
ENDBRANCH  16  17
ENDBRANCH  13  16
ENDBRANCH   1  12
BRANCH   8  20
HETATM   20  C   UNL     1      43.997 -14.338   6.136  1.00  0.00     0.409 C 
HETATM   21  F   UNL     1      43.503 -13.360   6.927  1.00  0.00    -0.169 F 
HETATM   22  F   UNL     1      45.090 -14.855   6.734  1.00  0.00    -0.169 F 
HETATM   23  F   UNL     1      44.440 -13.733   5.000  1.00  0.00    -0.169 F 
ENDBRANCH   8  20
BRANCH   6  24
HETATM   24  C   UNL     1      43.274 -18.730   3.856  1.00  0.00    -0.035 A 
HETATM   25  C   UNL     1      44.201 -19.528   4.549  1.00  0.00     0.009 A 
HETATM   26  C   UNL     1      44.788 -20.637   3.937  1.00  0.00     0.001 A 
HETATM   27  C   UNL     1      44.448 -20.971   2.628  1.00  0.00     0.000 A 
HETATM   28  C   UNL     1      43.523 -20.198   1.931  1.00  0.00     0.001 A 
HETATM   29  C   UNL     1      42.939 -19.085   2.540  1.00  0.00     0.009 A 
ENDBRANCH   6  24
TORSDOF 6
ENDMDL
MODEL 8
REMARK VINA RESULT:      -7.3      3.369      6.074
REMARK  6 active torsions:
REMARK  status: ('A' for Active; 'I' for Inactive)
REMARK    1  A    between atoms: O_2  and  C_3 
REMARK    2  A    between atoms: C_3  and  C_4 
REMARK    3  A    between atoms: C_4  and  N_5 
REMARK       I    between atoms: N_5  and  C_6 
REMARK    4  A    between atoms: C_6  and  C_7 
REMARK    5  A    between atoms: C_12  and  C_13 
REMARK    6  A    between atoms: C_20  and  C_21 
ROOT
HETATM    1  C   UNL     1      43.222 -14.895   5.776  1.00  0.00     0.165 A 
HETATM    2  N   UNL     1      43.329 -16.021   5.025  1.00  0.00    -0.163 NA
HETATM    3  N   UNL     1      42.527 -15.791   3.972  1.00  0.00    -0.238 N 
HETATM    4  C   UNL     1      41.809 -14.627   4.072  1.00  0.00     0.141 A 
HETATM    5  N   UNL     1      40.867 -14.304   3.151  1.00  0.00    -0.365 N 
HETATM    6  C   UNL     1      40.338 -15.351   2.281  1.00  0.00     0.118 C 
HETATM    7  C   UNL     1      41.503 -16.205   1.766  1.00  0.00     0.066 C 
HETATM    8  C   UNL     1      42.305 -16.794   2.944  1.00  0.00     0.221 C 
HETATM    9  C   UNL     1      42.276 -14.008   5.203  1.00  0.00     0.092 A 
HETATM   10 BR   UNL     1      41.723 -12.347   5.868  1.00  0.00    -0.044 Br
HETATM   11  H   UNL     1      40.209 -13.553   3.360  1.00  0.00     0.162 HD
ENDROOT
BRANCH   1  12
HETATM   12  C   UNL     1      44.017 -14.736   7.007  1.00  0.00     0.273 C 
HETATM   13  N   UNL     1      44.620 -13.501   7.109  1.00  0.00    -0.353 N 
HETATM   14  H   UNL     1      44.330 -12.810   6.418  1.00  0.00     0.162 HD
HETATM   15  O   UNL     1      44.133 -15.608   7.863  1.00  0.00    -0.266 OA
BRANCH  13  16
HETATM   16  C   UNL     1      45.268 -13.040   8.318  1.00  0.00     0.149 C 
BRANCH  16  17
HETATM   17  C   UNL     1      46.535 -12.246   8.006  1.00  0.00     0.186 C 
BRANCH  17  18
HETATM   18  O   UNL     1      46.475 -10.982   8.676  1.00  0.00    -0.394 OA
HETATM   19  C   UNL     1      45.516 -10.993   9.726  1.00  0.00     0.201 C 
ENDBRANCH  17  18
ENDBRANCH  16  17
ENDBRANCH  13  16
ENDBRANCH   1  12
BRANCH   8  20
HETATM   20  C   UNL     1      43.604 -17.378   2.432  1.00  0.00     0.409 C 
HETATM   21  F   UNL     1      44.480 -16.426   2.040  1.00  0.00    -0.169 F 
HETATM   22  F   UNL     1      44.219 -18.178   3.327  1.00  0.00    -0.169 F 
HETATM   23  F   UNL     1      43.357 -18.153   1.341  1.00  0.00    -0.169 F 
ENDBRANCH   8  20
BRANCH   6  24
HETATM   24  C   UNL     1      39.555 -14.746   1.132  1.00  0.00    -0.035 A 
HETATM   25  C   UNL     1      40.151 -14.498  -0.116  1.00  0.00     0.009 A 
HETATM   26  C   UNL     1      39.408 -13.961  -1.168  1.00  0.00     0.001 A 
HETATM   27  C   UNL     1      38.056 -13.674  -0.991  1.00  0.00     0.000 A 
HETATM   28  C   UNL     1      37.447 -13.924   0.236  1.00  0.00     0.001 A 
HETATM   29  C   UNL     1      38.191 -14.457   1.291  1.00  0.00     0.009 A 
ENDBRANCH   6  24
TORSDOF 6
ENDMDL
MODEL 9
REMARK VINA RESULT:      -7.2      2.068      2.443
REMARK  6 active torsions:
REMARK  status: ('A' for Active; 'I' for Inactive)
REMARK    1  A    between atoms: O_2  and  C_3 
REMARK    2  A    between atoms: C_3  and  C_4 
REMARK    3  A    between atoms: C_4  and  N_5 
REMARK       I    between atoms: N_5  and  C_6 
REMARK    4  A    between atoms: C_6  and  C_7 
REMARK    5  A    between atoms: C_12  and  C_13 
REMARK    6  A    between atoms: C_20  and  C_21 
ROOT
HETATM    1  C   UNL     1      42.302 -13.980   3.180  1.00  0.00     0.165 A 
HETATM    2  N   UNL     1      42.048 -14.813   2.138  1.00  0.00    -0.163 NA
HETATM    3  N   UNL     1      42.411 -16.025   2.590  1.00  0.00    -0.238 N 
HETATM    4  C   UNL     1      43.007 -15.994   3.824  1.00  0.00     0.141 A 
HETATM    5  N   UNL     1      43.538 -17.116   4.373  1.00  0.00    -0.365 N 
HETATM    6  C   UNL     1      43.829 -18.258   3.510  1.00  0.00     0.118 C 
HETATM    7  C   UNL     1      42.643 -18.480   2.564  1.00  0.00     0.066 C 
HETATM    8  C   UNL     1      42.356 -17.206   1.745  1.00  0.00     0.221 C 
HETATM    9  C   UNL     1      42.904 -14.694   4.246  1.00  0.00     0.092 A 
HETATM   10 BR   UNL     1      43.495 -14.009   5.885  1.00  0.00    -0.044 Br
HETATM   11  H   UNL     1      44.154 -17.025   5.181  1.00  0.00     0.162 HD
ENDROOT
BRANCH   1  12
HETATM   12  C   UNL     1      41.970 -12.546   3.092  1.00  0.00     0.273 C 
HETATM   13  N   UNL     1      41.943 -12.073   1.799  1.00  0.00    -0.353 N 
HETATM   14  H   UNL     1      42.003 -12.782   1.068  1.00  0.00     0.162 HD
HETATM   15  O   UNL     1      41.735 -11.839   4.067  1.00  0.00    -0.266 OA
BRANCH  13  16
HETATM   16  C   UNL     1      41.436 -10.763   1.451  1.00  0.00     0.149 C 
BRANCH  16  17
HETATM   17  C   UNL     1      39.962 -10.819   1.057  1.00  0.00     0.186 C 
BRANCH  17  18
HETATM   18  O   UNL     1      39.572 -12.187   0.885  1.00  0.00    -0.394 OA
HETATM   19  C   UNL     1      38.392 -12.489   1.619  1.00  0.00     0.201 C 
ENDBRANCH  17  18
ENDBRANCH  16  17
ENDBRANCH  13  16
ENDBRANCH   1  12
BRANCH   8  20
HETATM   20  C   UNL     1      41.021 -17.341   1.046  1.00  0.00     0.409 C 
HETATM   21  F   UNL     1      40.717 -18.626   0.755  1.00  0.00    -0.169 F 
HETATM   22  F   UNL     1      39.996 -16.810   1.745  1.00  0.00    -0.169 F 
HETATM   23  F   UNL     1      41.056 -16.672  -0.138  1.00  0.00    -0.169 F 
ENDBRANCH   8  20
BRANCH   6  24
HETATM   24  C   UNL     1      44.107 -19.497   4.339  1.00  0.00    -0.035 A 
HETATM   25  C   UNL     1      43.775 -19.560   5.703  1.00  0.00     0.009 A 
HETATM   26  C   UNL     1      44.018 -20.717   6.445  1.00  0.00     0.001 A 
HETATM   27  C   UNL     1      44.586 -21.831   5.831  1.00  0.00     0.000 A 
HETATM   28  C   UNL     1      44.911 -21.789   4.477  1.00  0.00     0.001 A 
HETATM   29  C   UNL     1      44.672 -20.630   3.735  1.00  0.00     0.009 A 
ENDBRANCH   6  24
TORSDOF 6
ENDMDL
MODEL 10
REMARK VINA RESULT:      -7.2      3.331      4.002
REMARK  6 active torsions:
REMARK  status: ('A' for Active; 'I' for Inactive)
REMARK    1  A    between atoms: O_2  and  C_3 
REMARK    2  A    between atoms: C_3  and  C_4 
REMARK    3  A    between atoms: C_4  and  N_5 
REMARK       I    between atoms: N_5  and  C_6 
REMARK    4  A    between atoms: C_6  and  C_7 
REMARK    5  A    between atoms: C_12  and  C_13 
REMARK    6  A    between atoms: C_20  and  C_21 
ROOT
HETATM    1  C   UNL     1      41.294 -13.491   1.978  1.00  0.00     0.165 A 
HETATM    2  N   UNL     1      41.613 -13.622   3.291  1.00  0.00    -0.163 NA
HETATM    3  N   UNL     1      42.144 -14.853   3.379  1.00  0.00    -0.238 N 
HETATM    4  C   UNL     1      42.064 -15.570   2.214  1.00  0.00     0.141 A 
HETATM    5  N   UNL     1      42.447 -16.871   2.165  1.00  0.00    -0.365 N 
HETATM    6  C   UNL     1      42.573 -17.620   3.412  1.00  0.00     0.118 C 
HETATM    7  C   UNL     1      43.307 -16.752   4.441  1.00  0.00     0.066 C 
HETATM    8  C   UNL     1      42.564 -15.417   4.651  1.00  0.00     0.221 C 
HETATM    9  C   UNL     1      41.564 -14.696   1.283  1.00  0.00     0.092 A 
HETATM   10 BR   UNL     1      41.258 -15.060  -0.529  1.00  0.00    -0.044 Br
HETATM   11  H   UNL     1      42.182 -17.433   1.355  1.00  0.00     0.162 HD
ENDROOT
BRANCH   1  12
HETATM   12  C   UNL     1      40.734 -12.228   1.464  1.00  0.00     0.273 C 
HETATM   13  N   UNL     1      41.618 -11.174   1.532  1.00  0.00    -0.353 N 
HETATM   14  H   UNL     1      42.577 -11.418   1.779  1.00  0.00     0.162 HD
HETATM   15  O   UNL     1      39.597 -12.118   1.015  1.00  0.00    -0.266 OA
BRANCH  13  16
HETATM   16  C   UNL     1      41.371  -9.898   0.894  1.00  0.00     0.149 C 
BRANCH  16  17
HETATM   17  C   UNL     1      41.039  -8.816   1.919  1.00  0.00     0.186 C 
BRANCH  17  18
HETATM   18  O   UNL     1      39.658  -8.922   2.285  1.00  0.00    -0.394 OA
HETATM   19  C   UNL     1      39.502  -9.076   3.690  1.00  0.00     0.201 C 
ENDBRANCH  17  18
ENDBRANCH  16  17
ENDBRANCH  13  16
ENDBRANCH   1  12
BRANCH   8  20
HETATM   20  C   UNL     1      43.444 -14.464   5.431  1.00  0.00     0.409 C 
HETATM   21  F   UNL     1      44.300 -13.783   4.637  1.00  0.00    -0.169 F 
HETATM   22  F   UNL     1      42.746 -13.573   6.165  1.00  0.00    -0.169 F 
HETATM   23  F   UNL     1      44.206 -15.165   6.313  1.00  0.00    -0.169 F 
ENDBRANCH   8  20
BRANCH   6  24
HETATM   24  C   UNL     1      43.306 -18.927   3.178  1.00  0.00    -0.035 A 
HETATM   25  C   UNL     1      44.240 -19.424   4.103  1.00  0.00     0.009 A 
HETATM   26  C   UNL     1      44.888 -20.640   3.880  1.00  0.00     0.001 A 
HETATM   27  C   UNL     1      44.605 -21.381   2.736  1.00  0.00     0.000 A 
HETATM   28  C   UNL     1      43.674 -20.908   1.814  1.00  0.00     0.001 A 
HETATM   29  C   UNL     1      43.028 -19.690   2.033  1.00  0.00     0.009 A 
ENDBRANCH   6  24
TORSDOF 6
ENDMDL
