MODEL 1
REMARK VINA RESULT:      -8.6      0.000      0.000
REMARK  4 active torsions:
REMARK  status: ('A' for Active; 'I' for Inactive)
REMARK    1  A    between atoms: C_2  and  C_3 
REMARK       I    between atoms: C_3  and  N_4 
REMARK    2  A    between atoms: N_4  and  C_5 
REMARK    3  A    between atoms: C_12  and  C_13 
REMARK       I    between atoms: C_13  and  N_14 
REMARK    4  A    between atoms: C_19  and  C_20 
ROOT
HETATM    1  C   UNL     1      41.503 -17.137   1.434  1.00  0.00     0.036 A 
HETATM    2  C   UNL     1      41.606 -16.658   0.122  1.00  0.00     0.046 A 
HETATM    3  C   UNL     1      40.891 -15.499  -0.253  1.00  0.00     0.030 A 
HETATM    4  C   UNL     1      40.122 -14.847   0.703  1.00  0.00     0.063 A 
HETATM    5  N   UNL     1      39.579 -13.770   0.059  1.00  0.00    -0.277 N 
HETATM    6  H   UNL     1      38.968 -13.064   0.454  1.00  0.00     0.189 HD
HETATM    7  N   UNL     1      39.899 -13.678  -1.241  1.00  0.00    -0.168 NA
HETATM    8  C   UNL     1      40.705 -14.745  -1.451  1.00  0.00     0.156 A 
HETATM    9  C   UNL     1      39.999 -15.296   2.019  1.00  0.00     0.034 A 
HETATM   10  C   UNL     1      40.694 -16.462   2.359  1.00  0.00     0.032 A 
ENDROOT
BRANCH   1  11
HETATM   11  N   UNL     1      42.163 -18.295   1.891  1.00  0.00    -0.323 N 
HETATM   12  C   UNL     1      43.520 -18.526   1.907  1.00  0.00     0.251 C 
HETATM   13  O   UNL     1      44.427 -17.761   1.611  1.00  0.00    -0.268 OA
HETATM   14  H   UNL     1      41.581 -19.018   2.291  1.00  0.00     0.169 HD
BRANCH  12  15
HETATM   15  C   UNL     1      43.841 -19.882   2.439  1.00  0.00     0.007 C 
HETATM   16  C   UNL     1      43.890 -20.960   1.402  1.00  0.00     0.054 C 
HETATM   17  C   UNL     1      44.042 -20.098   3.753  1.00  0.00     0.023 C 
BRANCH  17  18
HETATM   18  C   UNL     1      43.930 -19.108   4.832  1.00  0.00    -0.035 A 
HETATM   19  C   UNL     1      42.686 -18.609   5.243  1.00  0.00     0.013 A 
HETATM   20  C   UNL     1      42.598 -17.705   6.305  1.00  0.00     0.024 A 
HETATM   21  C   UNL     1      43.754 -17.308   6.971  1.00  0.00     0.034 A 
HETATM   22 CL   UNL     1      43.649 -16.205   8.287  1.00  0.00    -0.084 Cl
HETATM   23  C   UNL     1      44.996 -17.809   6.585  1.00  0.00     0.024 A 
HETATM   24  C   UNL     1      45.083 -18.711   5.521  1.00  0.00     0.013 A 
ENDBRANCH  17  18
ENDBRANCH  12  15
ENDBRANCH   1  11
BRANCH   8  25
HETATM   25  C   UNL     1      41.259 -15.025  -2.783  1.00  0.00     0.270 C 
HETATM   26  N   UNL     1      42.281 -14.193  -3.149  1.00  0.00    -0.365 N 
HETATM   27  H   UNL     1      42.556 -13.455  -2.511  1.00  0.00     0.159 HD
HETATM   28  H   UNL     1      42.696 -14.284  -4.063  1.00  0.00     0.159 HD
HETATM   29  O   UNL     1      40.857 -15.905  -3.538  1.00  0.00    -0.266 OA
ENDBRANCH   8  25
TORSDOF 4
ENDMDL
MODEL 2
REMARK VINA RESULT:      -8.3      2.499      3.929
REMARK  4 active torsions:
REMARK  status: ('A' for Active; 'I' for Inactive)
REMARK    1  A    between atoms: C_2  and  C_3 
REMARK       I    between atoms: C_3  and  N_4 
REMARK    2  A    between atoms: N_4  and  C_5 
REMARK    3  A    between atoms: C_12  and  C_13 
REMARK       I    between atoms: C_13  and  N_14 
REMARK    4  A    between atoms: C_19  and  C_20 
ROOT
HETATM    1  C   UNL     1      41.964 -17.971   2.669  1.00  0.00     0.036 A 
HETATM    2  C   UNL     1      41.569 -17.068   3.664  1.00  0.00     0.046 A 
HETATM    3  C   UNL     1      40.800 -15.937   3.311  1.00  0.00     0.030 A 
HETATM    4  C   UNL     1      40.434 -15.764   1.983  1.00  0.00     0.063 A 
HETATM    5  N   UNL     1      39.692 -14.615   1.957  1.00  0.00    -0.277 N 
HETATM    6  H   UNL     1      39.251 -14.188   1.151  1.00  0.00     0.189 HD
HETATM    7  N   UNL     1      39.570 -14.005   3.147  1.00  0.00    -0.168 NA
HETATM    8  C   UNL     1      40.256 -14.807   3.994  1.00  0.00     0.156 A 
HETATM    9  C   UNL     1      40.808 -16.645   0.966  1.00  0.00     0.034 A 
HETATM   10  C   UNL     1      41.593 -17.743   1.337  1.00  0.00     0.032 A 
ENDROOT
BRANCH   1  11
HETATM   11  N   UNL     1      42.747 -19.114   2.925  1.00  0.00    -0.323 N 
HETATM   12  C   UNL     1      44.033 -19.354   2.495  1.00  0.00     0.251 C 
HETATM   13  O   UNL     1      44.782 -18.608   1.881  1.00  0.00    -0.268 OA
HETATM   14  H   UNL     1      42.337 -19.816   3.527  1.00  0.00     0.169 HD
BRANCH  12  15
HETATM   15  C   UNL     1      44.523 -20.689   2.944  1.00  0.00     0.007 C 
HETATM   16  C   UNL     1      44.685 -21.692   1.845  1.00  0.00     0.054 C 
HETATM   17  C   UNL     1      44.769 -20.954   4.241  1.00  0.00     0.023 C 
BRANCH  17  18
HETATM   18  C   UNL     1      44.554 -20.049   5.377  1.00  0.00    -0.035 A 
HETATM   19  C   UNL     1      45.128 -18.770   5.416  1.00  0.00     0.013 A 
HETATM   20  C   UNL     1      44.870 -17.907   6.484  1.00  0.00     0.024 A 
HETATM   21  C   UNL     1      44.024 -18.314   7.512  1.00  0.00     0.034 A 
HETATM   22 CL   UNL     1      43.695 -17.250   8.823  1.00  0.00    -0.084 Cl
HETATM   23  C   UNL     1      43.434 -19.576   7.480  1.00  0.00     0.024 A 
HETATM   24  C   UNL     1      43.695 -20.440   6.411  1.00  0.00     0.013 A 
ENDBRANCH  17  18
ENDBRANCH  12  15
ENDBRANCH   1  11
BRANCH   8  25
HETATM   25  C   UNL     1      40.388 -14.469   5.418  1.00  0.00     0.270 C 
HETATM   26  N   UNL     1      39.979 -15.461   6.267  1.00  0.00    -0.365 N 
HETATM   27  H   UNL     1      39.605 -16.314   5.870  1.00  0.00     0.159 HD
HETATM   28  H   UNL     1      39.995 -15.304   7.262  1.00  0.00     0.159 HD
HETATM   29  O   UNL     1      40.805 -13.399   5.848  1.00  0.00    -0.266 OA
ENDBRANCH   8  25
TORSDOF 4
ENDMDL
MODEL 3
REMARK VINA RESULT:      -8.3      2.828      3.955
REMARK  4 active torsions:
REMARK  status: ('A' for Active; 'I' for Inactive)
REMARK    1  A    between atoms: C_2  and  C_3 
REMARK       I    between atoms: C_3  and  N_4 
REMARK    2  A    between atoms: N_4  and  C_5 
REMARK    3  A    between atoms: C_12  and  C_13 
REMARK       I    between atoms: C_13  and  N_14 
REMARK    4  A    between atoms: C_19  and  C_20 
ROOT
HETATM    1  C   UNL     1      42.777 -16.170   2.935  1.00  0.00     0.036 A 
HETATM    2  C   UNL     1      42.528 -15.006   2.197  1.00  0.00     0.046 A 
HETATM    3  C   UNL     1      41.867 -15.098   0.953  1.00  0.00     0.030 A 
HETATM    4  C   UNL     1      41.455 -16.347   0.504  1.00  0.00     0.063 A 
HETATM    5  N   UNL     1      40.838 -16.116  -0.694  1.00  0.00    -0.277 N 
HETATM    6  H   UNL     1      40.405 -16.801  -1.303  1.00  0.00     0.189 HD
HETATM    7  N   UNL     1      40.839 -14.831  -1.083  1.00  0.00    -0.168 NA
HETATM    8  C   UNL     1      41.478 -14.189  -0.077  1.00  0.00     0.156 A 
HETATM    9  C   UNL     1      41.685 -17.527   1.214  1.00  0.00     0.034 A 
HETATM   10  C   UNL     1      42.367 -17.413   2.430  1.00  0.00     0.032 A 
ENDROOT
BRANCH   1  11
HETATM   11  N   UNL     1      43.447 -16.176   4.174  1.00  0.00    -0.323 N 
HETATM   12  C   UNL     1      42.890 -16.363   5.419  1.00  0.00     0.251 C 
HETATM   13  O   UNL     1      41.734 -16.640   5.702  1.00  0.00    -0.268 OA
HETATM   14  H   UNL     1      44.453 -16.075   4.143  1.00  0.00     0.169 HD
BRANCH  12  15
HETATM   15  C   UNL     1      43.915 -16.275   6.499  1.00  0.00     0.007 C 
HETATM   16  C   UNL     1      44.096 -14.904   7.072  1.00  0.00     0.054 C 
HETATM   17  C   UNL     1      44.624 -17.350   6.892  1.00  0.00     0.023 C 
BRANCH  17  18
HETATM   18  C   UNL     1      44.559 -18.701   6.320  1.00  0.00    -0.035 A 
HETATM   19  C   UNL     1      45.194 -19.018   5.112  1.00  0.00     0.013 A 
HETATM   20  C   UNL     1      45.161 -20.322   4.611  1.00  0.00     0.024 A 
HETATM   21  C   UNL     1      44.504 -21.319   5.327  1.00  0.00     0.034 A 
HETATM   22 CL   UNL     1      44.469 -22.929   4.721  1.00  0.00    -0.084 Cl
HETATM   23  C   UNL     1      43.881 -21.023   6.538  1.00  0.00     0.024 A 
HETATM   24  C   UNL     1      43.913 -19.717   7.036  1.00  0.00     0.013 A 
ENDBRANCH  17  18
ENDBRANCH  12  15
ENDBRANCH   1  11
BRANCH   8  25
HETATM   25  C   UNL     1      41.714 -12.740  -0.133  1.00  0.00     0.270 C 
HETATM   26  N   UNL     1      40.881 -12.071  -0.988  1.00  0.00    -0.365 N 
HETATM   27  H   UNL     1      40.204 -12.605  -1.520  1.00  0.00     0.159 HD
HETATM   28  H   UNL     1      40.996 -11.079  -1.122  1.00  0.00     0.159 HD
HETATM   29  O   UNL     1      42.582 -12.148   0.500  1.00  0.00    -0.266 OA
ENDBRANCH   8  25
TORSDOF 4
ENDMDL
MODEL 4
REMARK VINA RESULT:      -8.2      3.456      4.763
REMARK  4 active torsions:
REMARK  status: ('A' for Active; 'I' for Inactive)
REMARK    1  A    between atoms: C_2  and  C_3 
REMARK       I    between atoms: C_3  and  N_4 
REMARK    2  A    between atoms: N_4  and  C_5 
REMARK    3  A    between atoms: C_12  and  C_13 
REMARK       I    between atoms: C_13  and  N_14 
REMARK    4  A    between atoms: C_19  and  C_20 
ROOT
HETATM    1  C   UNL     1      41.331 -15.606   3.576  1.00  0.00     0.036 A 
HETATM    2  C   UNL     1      40.739 -14.337   3.552  1.00  0.00     0.046 A 
HETATM    3  C   UNL     1      39.681 -14.080   2.653  1.00  0.00     0.030 A 
HETATM    4  C   UNL     1      39.238 -15.107   1.828  1.00  0.00     0.063 A 
HETATM    5  N   UNL     1      38.212 -14.571   1.100  1.00  0.00    -0.277 N 
HETATM    6  H   UNL     1      37.645 -15.039   0.403  1.00  0.00     0.189 HD
HETATM    7  N   UNL     1      37.967 -13.275   1.353  1.00  0.00    -0.168 NA
HETATM    8  C   UNL     1      38.873 -12.955   2.306  1.00  0.00     0.156 A 
HETATM    9  C   UNL     1      39.803 -16.383   1.827  1.00  0.00     0.034 A 
HETATM   10  C   UNL     1      40.869 -16.605   2.708  1.00  0.00     0.032 A 
ENDROOT
BRANCH   1  11
HETATM   11  N   UNL     1      42.403 -15.946   4.424  1.00  0.00    -0.323 N 
HETATM   12  C   UNL     1      42.368 -16.794   5.509  1.00  0.00     0.251 C 
HETATM   13  O   UNL     1      41.439 -17.481   5.908  1.00  0.00    -0.268 OA
HETATM   14  H   UNL     1      43.307 -15.560   4.186  1.00  0.00     0.169 HD
BRANCH  12  15
HETATM   15  C   UNL     1      43.697 -16.885   6.179  1.00  0.00     0.007 C 
HETATM   16  C   UNL     1      43.941 -15.834   7.216  1.00  0.00     0.054 C 
HETATM   17  C   UNL     1      44.596 -17.830   5.844  1.00  0.00     0.023 C 
BRANCH  17  18
HETATM   18  C   UNL     1      44.458 -18.837   4.784  1.00  0.00    -0.035 A 
HETATM   19  C   UNL     1      44.155 -18.476   3.464  1.00  0.00     0.013 A 
HETATM   20  C   UNL     1      44.076 -19.446   2.462  1.00  0.00     0.024 A 
HETATM   21  C   UNL     1      44.316 -20.781   2.773  1.00  0.00     0.034 A 
HETATM   22 CL   UNL     1      44.233 -21.978   1.540  1.00  0.00    -0.084 Cl
HETATM   23  C   UNL     1      44.635 -21.154   4.078  1.00  0.00     0.024 A 
HETATM   24  C   UNL     1      44.710 -20.182   5.081  1.00  0.00     0.013 A 
ENDBRANCH  17  18
ENDBRANCH  12  15
ENDBRANCH   1  11
BRANCH   8  25
HETATM   25  C   UNL     1      38.955 -11.590   2.845  1.00  0.00     0.270 C 
HETATM   26  N   UNL     1      38.311 -11.423   4.041  1.00  0.00    -0.365 N 
HETATM   27  H   UNL     1      37.821 -12.215   4.441  1.00  0.00     0.159 HD
HETATM   28  H   UNL     1      38.279 -10.511   4.468  1.00  0.00     0.159 HD
HETATM   29  O   UNL     1      39.524 -10.653   2.296  1.00  0.00    -0.266 OA
ENDBRANCH   8  25
TORSDOF 4
ENDMDL
MODEL 5
REMARK VINA RESULT:      -8.2      2.463      3.574
REMARK  4 active torsions:
REMARK  status: ('A' for Active; 'I' for Inactive)
REMARK    1  A    between atoms: C_2  and  C_3 
REMARK       I    between atoms: C_3  and  N_4 
REMARK    2  A    between atoms: N_4  and  C_5 
REMARK    3  A    between atoms: C_12  and  C_13 
REMARK       I    between atoms: C_13  and  N_14 
REMARK    4  A    between atoms: C_19  and  C_20 
ROOT
HETATM    1  C   UNL     1      40.975 -14.899   2.074  1.00  0.00     0.036 A 
HETATM    2  C   UNL     1      41.311 -14.831   0.716  1.00  0.00     0.046 A 
HETATM    3  C   UNL     1      40.304 -14.567  -0.237  1.00  0.00     0.030 A 
HETATM    4  C   UNL     1      39.003 -14.355   0.203  1.00  0.00     0.063 A 
HETATM    5  N   UNL     1      38.273 -14.107  -0.926  1.00  0.00    -0.277 N 
HETATM    6  H   UNL     1      37.283 -13.898  -0.982  1.00  0.00     0.189 HD
HETATM    7  N   UNL     1      38.975 -14.171  -2.068  1.00  0.00    -0.168 NA
HETATM    8  C   UNL     1      40.232 -14.462  -1.660  1.00  0.00     0.156 A 
HETATM    9  C   UNL     1      38.634 -14.413   1.548  1.00  0.00     0.034 A 
HETATM   10  C   UNL     1      39.645 -14.704   2.471  1.00  0.00     0.032 A 
ENDROOT
BRANCH   1  11
HETATM   11  N   UNL     1      41.910 -15.177   3.091  1.00  0.00    -0.323 N 
HETATM   12  C   UNL     1      41.831 -16.168   4.044  1.00  0.00     0.251 C 
HETATM   13  O   UNL     1      40.992 -17.051   4.157  1.00  0.00    -0.268 OA
HETATM   14  H   UNL     1      42.751 -14.617   3.097  1.00  0.00     0.169 HD
BRANCH  12  15
HETATM   15  C   UNL     1      42.999 -16.135   4.971  1.00  0.00     0.007 C 
HETATM   16  C   UNL     1      43.065 -14.919   5.841  1.00  0.00     0.054 C 
HETATM   17  C   UNL     1      43.918 -17.118   4.988  1.00  0.00     0.023 C 
BRANCH  17  18
HETATM   18  C   UNL     1      43.961 -18.294   4.110  1.00  0.00    -0.035 A 
HETATM   19  C   UNL     1      43.838 -18.176   2.718  1.00  0.00     0.013 A 
HETATM   20  C   UNL     1      43.932 -19.303   1.898  1.00  0.00     0.024 A 
HETATM   21  C   UNL     1      44.164 -20.553   2.465  1.00  0.00     0.034 A 
HETATM   22 CL   UNL     1      44.291 -21.942   1.458  1.00  0.00    -0.084 Cl
HETATM   23  C   UNL     1      44.304 -20.685   3.846  1.00  0.00     0.024 A 
HETATM   24  C   UNL     1      44.208 -19.556   4.666  1.00  0.00     0.013 A 
ENDBRANCH  17  18
ENDBRANCH  12  15
ENDBRANCH   1  11
BRANCH   8  25
HETATM   25  C   UNL     1      41.320 -14.647  -2.629  1.00  0.00     0.270 C 
HETATM   26  N   UNL     1      42.333 -13.734  -2.513  1.00  0.00    -0.365 N 
HETATM   27  H   UNL     1      42.251 -13.008  -1.811  1.00  0.00     0.159 HD
HETATM   28  H   UNL     1      43.103 -13.757  -3.162  1.00  0.00     0.159 HD
HETATM   29  O   UNL     1      41.348 -15.518  -3.493  1.00  0.00    -0.266 OA
ENDBRANCH   8  25
TORSDOF 4
ENDMDL
MODEL 6
REMARK VINA RESULT:      -8.0      5.860      8.840
REMARK  4 active torsions:
REMARK  status: ('A' for Active; 'I' for Inactive)
REMARK    1  A    between atoms: C_2  and  C_3 
REMARK       I    between atoms: C_3  and  N_4 
REMARK    2  A    between atoms: N_4  and  C_5 
REMARK    3  A    between atoms: C_12  and  C_13 
REMARK       I    between atoms: C_13  and  N_14 
REMARK    4  A    between atoms: C_19  and  C_20 
ROOT
HETATM    1  C   UNL     1      44.390 -14.369   6.378  1.00  0.00     0.036 A 
HETATM    2  C   UNL     1      44.322 -15.686   6.852  1.00  0.00     0.046 A 
HETATM    3  C   UNL     1      43.582 -16.647   6.130  1.00  0.00     0.030 A 
HETATM    4  C   UNL     1      42.960 -16.265   4.948  1.00  0.00     0.063 A 
HETATM    5  N   UNL     1      42.352 -17.396   4.476  1.00  0.00    -0.277 N 
HETATM    6  H   UNL     1      41.812 -17.491   3.624  1.00  0.00     0.189 HD
HETATM    7  N   UNL     1      42.496 -18.475   5.261  1.00  0.00    -0.168 NA
HETATM    8  C   UNL     1      43.249 -18.026   6.293  1.00  0.00     0.156 A 
HETATM    9  C   UNL     1      43.009 -14.964   4.446  1.00  0.00     0.034 A 
HETATM   10  C   UNL     1      43.724 -14.022   5.194  1.00  0.00     0.032 A 
ENDROOT
BRANCH   1  11
HETATM   11  N   UNL     1      45.086 -13.340   7.043  1.00  0.00    -0.323 N 
HETATM   12  C   UNL     1      45.016 -13.017   8.379  1.00  0.00     0.251 C 
HETATM   13  O   UNL     1      44.409 -13.594   9.271  1.00  0.00    -0.268 OA
HETATM   14  H   UNL     1      45.743 -12.808   6.487  1.00  0.00     0.169 HD
BRANCH  12  15
HETATM   15  C   UNL     1      45.880 -11.847   8.709  1.00  0.00     0.007 C 
HETATM   16  C   UNL     1      47.217 -11.856   8.038  1.00  0.00     0.054 C 
HETATM   17  C   UNL     1      45.477 -10.887   9.562  1.00  0.00     0.023 C 
BRANCH  17  18
HETATM   18  C   UNL     1      44.217 -10.856  10.317  1.00  0.00    -0.035 A 
HETATM   19  C   UNL     1      43.006 -10.496   9.710  1.00  0.00     0.013 A 
HETATM   20  C   UNL     1      41.812 -10.522  10.435  1.00  0.00     0.024 A 
HETATM   21  C   UNL     1      41.822 -10.922  11.768  1.00  0.00     0.034 A 
HETATM   22 CL   UNL     1      40.353 -10.966  12.662  1.00  0.00    -0.084 Cl
HETATM   23  C   UNL     1      43.016 -11.298  12.382  1.00  0.00     0.024 A 
HETATM   24  C   UNL     1      44.211 -11.270  11.655  1.00  0.00     0.013 A 
ENDBRANCH  17  18
ENDBRANCH  12  15
ENDBRANCH   1  11
BRANCH   8  25
HETATM   25  C   UNL     1      43.613 -18.913   7.407  1.00  0.00     0.270 C 
HETATM   26  N   UNL     1      43.771 -18.268   8.604  1.00  0.00    -0.365 N 
HETATM   27  H   UNL     1      43.655 -17.262   8.630  1.00  0.00     0.159 HD
HETATM   28  H   UNL     1      44.061 -18.790   9.416  1.00  0.00     0.159 HD
HETATM   29  O   UNL     1      43.787 -20.123   7.310  1.00  0.00    -0.266 OA
ENDBRANCH   8  25
TORSDOF 4
ENDMDL
MODEL 7
REMARK VINA RESULT:      -7.9      3.159      7.124
REMARK  4 active torsions:
REMARK  status: ('A' for Active; 'I' for Inactive)
REMARK    1  A    between atoms: C_2  and  C_3 
REMARK       I    between atoms: C_3  and  N_4 
REMARK    2  A    between atoms: N_4  and  C_5 
REMARK    3  A    between atoms: C_12  and  C_13 
REMARK       I    between atoms: C_13  and  N_14 
REMARK    4  A    between atoms: C_19  and  C_20 
ROOT
HETATM    1  C   UNL     1      43.098 -17.644   2.553  1.00  0.00     0.036 A 
HETATM    2  C   UNL     1      43.008 -17.524   3.946  1.00  0.00     0.046 A 
HETATM    3  C   UNL     1      43.516 -18.554   4.768  1.00  0.00     0.030 A 
HETATM    4  C   UNL     1      44.118 -19.653   4.169  1.00  0.00     0.063 A 
HETATM    5  N   UNL     1      44.522 -20.454   5.201  1.00  0.00    -0.277 N 
HETATM    6  H   UNL     1      45.009 -21.340   5.136  1.00  0.00     0.189 HD
HETATM    7  N   UNL     1      44.207 -19.990   6.421  1.00  0.00    -0.168 NA
HETATM    8  C   UNL     1      43.577 -18.819   6.170  1.00  0.00     0.156 A 
HETATM    9  C   UNL     1      44.228 -19.804   2.785  1.00  0.00     0.034 A 
HETATM   10  C   UNL     1      43.692 -18.783   1.992  1.00  0.00     0.032 A 
ENDROOT
BRANCH   1  11
HETATM   11  N   UNL     1      42.601 -16.677   1.657  1.00  0.00    -0.323 N 
HETATM   12  C   UNL     1      41.285 -16.454   1.321  1.00  0.00     0.251 C 
HETATM   13  O   UNL     1      40.282 -16.982   1.780  1.00  0.00    -0.268 OA
HETATM   14  H   UNL     1      43.281 -16.049   1.249  1.00  0.00     0.169 HD
BRANCH  12  15
HETATM   15  C   UNL     1      41.152 -15.360   0.316  1.00  0.00     0.007 C 
HETATM   16  C   UNL     1      41.181 -15.819  -1.108  1.00  0.00     0.054 C 
HETATM   17  C   UNL     1      41.040 -14.070   0.685  1.00  0.00     0.023 C 
BRANCH  17  18
HETATM   18  C   UNL     1      41.087 -13.541   2.054  1.00  0.00    -0.035 A 
HETATM   19  C   UNL     1      39.922 -13.369   2.815  1.00  0.00     0.013 A 
HETATM   20  C   UNL     1      39.994 -12.911   4.133  1.00  0.00     0.024 A 
HETATM   21  C   UNL     1      41.235 -12.638   4.701  1.00  0.00     0.034 A 
HETATM   22 CL   UNL     1      41.330 -12.085   6.328  1.00  0.00    -0.084 Cl
HETATM   23  C   UNL     1      42.403 -12.819   3.963  1.00  0.00     0.024 A 
HETATM   24  C   UNL     1      42.329 -13.275   2.643  1.00  0.00     0.013 A 
ENDBRANCH  17  18
ENDBRANCH  12  15
ENDBRANCH   1  11
BRANCH   8  25
HETATM   25  C   UNL     1      43.040 -17.997   7.263  1.00  0.00     0.270 C 
HETATM   26  N   UNL     1      43.707 -18.142   8.449  1.00  0.00    -0.365 N 
HETATM   27  H   UNL     1      44.477 -18.799   8.494  1.00  0.00     0.159 HD
HETATM   28  H   UNL     1      43.384 -17.648   9.266  1.00  0.00     0.159 HD
HETATM   29  O   UNL     1      42.073 -17.250   7.167  1.00  0.00    -0.266 OA
ENDBRANCH   8  25
TORSDOF 4
ENDMDL
MODEL 8
REMARK VINA RESULT:      -7.8      3.870      8.093
REMARK  4 active torsions:
REMARK  status: ('A' for Active; 'I' for Inactive)
REMARK    1  A    between atoms: C_2  and  C_3 
REMARK       I    between atoms: C_3  and  N_4 
REMARK    2  A    between atoms: N_4  and  C_5 
REMARK    3  A    between atoms: C_12  and  C_13 
REMARK       I    between atoms: C_13  and  N_14 
REMARK    4  A    between atoms: C_19  and  C_20 
ROOT
HETATM    1  C   UNL     1      42.899 -16.701   3.365  1.00  0.00     0.036 A 
HETATM    2  C   UNL     1      43.160 -17.482   4.499  1.00  0.00     0.046 A 
HETATM    3  C   UNL     1      43.778 -18.742   4.347  1.00  0.00     0.030 A 
HETATM    4  C   UNL     1      44.136 -19.164   3.073  1.00  0.00     0.063 A 
HETATM    5  N   UNL     1      44.722 -20.388   3.247  1.00  0.00    -0.277 N 
HETATM    6  H   UNL     1      45.114 -20.988   2.531  1.00  0.00     0.189 HD
HETATM    7  N   UNL     1      44.748 -20.817   4.519  1.00  0.00    -0.168 NA
HETATM    8  C   UNL     1      44.161 -19.813   5.211  1.00  0.00     0.156 A 
HETATM    9  C   UNL     1      43.894 -18.411   1.923  1.00  0.00     0.034 A 
HETATM   10  C   UNL     1      43.255 -17.178   2.096  1.00  0.00     0.032 A 
ENDROOT
BRANCH   1  11
HETATM   11  N   UNL     1      42.269 -15.442   3.419  1.00  0.00    -0.323 N 
HETATM   12  C   UNL     1      42.877 -14.206   3.393  1.00  0.00     0.251 C 
HETATM   13  O   UNL     1      44.061 -13.943   3.239  1.00  0.00    -0.268 OA
HETATM   14  H   UNL     1      41.258 -15.443   3.434  1.00  0.00     0.169 HD
BRANCH  12  15
HETATM   15  C   UNL     1      41.881 -13.101   3.496  1.00  0.00     0.007 C 
HETATM   16  C   UNL     1      41.707 -12.549   4.877  1.00  0.00     0.054 C 
HETATM   17  C   UNL     1      41.189 -12.669   2.425  1.00  0.00     0.023 C 
BRANCH  17  18
HETATM   18  C   UNL     1      41.247 -13.216   1.064  1.00  0.00    -0.035 A 
HETATM   19  C   UNL     1      40.448 -14.300   0.674  1.00  0.00     0.013 A 
HETATM   20  C   UNL     1      40.483 -14.773  -0.640  1.00  0.00     0.024 A 
HETATM   21  C   UNL     1      41.308 -14.154  -1.575  1.00  0.00     0.034 A 
HETATM   22 CL   UNL     1      41.346 -14.725  -3.197  1.00  0.00    -0.084 Cl
HETATM   23  C   UNL     1      42.097 -13.065  -1.207  1.00  0.00     0.024 A 
HETATM   24  C   UNL     1      42.062 -12.594   0.110  1.00  0.00     0.013 A 
ENDBRANCH  17  18
ENDBRANCH  12  15
ENDBRANCH   1  11
BRANCH   8  25
HETATM   25  C   UNL     1      43.967 -19.907   6.665  1.00  0.00     0.270 C 
HETATM   26  N   UNL     1      43.596 -21.151   7.099  1.00  0.00    -0.365 N 
HETATM   27  H   UNL     1      43.461 -21.882   6.412  1.00  0.00     0.159 HD
HETATM   28  H   UNL     1      43.400 -21.300   8.076  1.00  0.00     0.159 HD
HETATM   29  O   UNL     1      44.098 -18.974   7.451  1.00  0.00    -0.266 OA
ENDBRANCH   8  25
TORSDOF 4
ENDMDL
MODEL 9
REMARK VINA RESULT:      -7.8      2.745      4.065
REMARK  4 active torsions:
REMARK  status: ('A' for Active; 'I' for Inactive)
REMARK    1  A    between atoms: C_2  and  C_3 
REMARK       I    between atoms: C_3  and  N_4 
REMARK    2  A    between atoms: N_4  and  C_5 
REMARK    3  A    between atoms: C_12  and  C_13 
REMARK       I    between atoms: C_13  and  N_14 
REMARK    4  A    between atoms: C_19  and  C_20 
ROOT
HETATM    1  C   UNL     1      41.681 -15.553   4.578  1.00  0.00     0.036 A 
HETATM    2  C   UNL     1      41.786 -15.602   3.182  1.00  0.00     0.046 A 
HETATM    3  C   UNL     1      40.858 -14.891   2.389  1.00  0.00     0.030 A 
HETATM    4  C   UNL     1      39.876 -14.138   3.020  1.00  0.00     0.063 A 
HETATM    5  N   UNL     1      39.157 -13.560   2.011  1.00  0.00    -0.277 N 
HETATM    6  H   UNL     1      38.366 -12.933   2.102  1.00  0.00     0.189 HD
HETATM    7  N   UNL     1      39.562 -13.895   0.776  1.00  0.00    -0.168 NA
HETATM    8  C   UNL     1      40.610 -14.724   0.993  1.00  0.00     0.156 A 
HETATM    9  C   UNL     1      39.744 -14.065   4.408  1.00  0.00     0.034 A 
HETATM   10  C   UNL     1      40.658 -14.800   5.171  1.00  0.00     0.032 A 
ENDROOT
BRANCH   1  11
HETATM   11  N   UNL     1      42.549 -16.245   5.446  1.00  0.00    -0.323 N 
HETATM   12  C   UNL     1      42.411 -17.536   5.903  1.00  0.00     0.251 C 
HETATM   13  O   UNL     1      41.569 -18.367   5.595  1.00  0.00    -0.268 OA
HETATM   14  H   UNL     1      43.387 -15.756   5.730  1.00  0.00     0.169 HD
BRANCH  12  15
HETATM   15  C   UNL     1      43.517 -17.912   6.830  1.00  0.00     0.007 C 
HETATM   16  C   UNL     1      43.570 -17.107   8.091  1.00  0.00     0.054 C 
HETATM   17  C   UNL     1      44.397 -18.884   6.525  1.00  0.00     0.023 C 
BRANCH  17  18
HETATM   18  C   UNL     1      44.455 -19.655   5.276  1.00  0.00    -0.035 A 
HETATM   19  C   UNL     1      44.583 -21.051   5.282  1.00  0.00     0.013 A 
HETATM   20  C   UNL     1      44.586 -21.770   4.083  1.00  0.00     0.024 A 
HETATM   21  C   UNL     1      44.446 -21.095   2.873  1.00  0.00     0.034 A 
HETATM   22 CL   UNL     1      44.437 -21.976   1.396  1.00  0.00    -0.084 Cl
HETATM   23  C   UNL     1      44.302 -19.709   2.853  1.00  0.00     0.024 A 
HETATM   24  C   UNL     1      44.301 -18.991   4.053  1.00  0.00     0.013 A 
ENDBRANCH  17  18
ENDBRANCH  12  15
ENDBRANCH   1  11
BRANCH   8  25
HETATM   25  C   UNL     1      41.331 -15.344  -0.128  1.00  0.00     0.270 C 
HETATM   26  N   UNL     1      41.866 -14.447  -1.012  1.00  0.00    -0.365 N 
HETATM   27  H   UNL     1      41.711 -13.459  -0.851  1.00  0.00     0.159 HD
HETATM   28  H   UNL     1      42.343 -14.781  -1.834  1.00  0.00     0.159 HD
HETATM   29  O   UNL     1      41.450 -16.553  -0.301  1.00  0.00    -0.266 OA
ENDBRANCH   8  25
TORSDOF 4
ENDMDL
MODEL 10
REMARK VINA RESULT:      -7.7      3.733      8.330
REMARK  4 active torsions:
REMARK  status: ('A' for Active; 'I' for Inactive)
REMARK    1  A    between atoms: C_2  and  C_3 
REMARK       I    between atoms: C_3  and  N_4 
REMARK    2  A    between atoms: N_4  and  C_5 
REMARK    3  A    between atoms: C_12  and  C_13 
REMARK       I    between atoms: C_13  and  N_14 
REMARK    4  A    between atoms: C_19  and  C_20 
ROOT
HETATM    1  C   UNL     1      43.141 -16.650   2.295  1.00  0.00     0.036 A 
HETATM    2  C   UNL     1      43.580 -17.078   3.554  1.00  0.00     0.046 A 
HETATM    3  C   UNL     1      44.006 -18.413   3.726  1.00  0.00     0.030 A 
HETATM    4  C   UNL     1      44.001 -19.265   2.628  1.00  0.00     0.063 A 
HETATM    5  N   UNL     1      44.477 -20.459   3.094  1.00  0.00    -0.277 N 
HETATM    6  H   UNL     1      44.620 -21.311   2.563  1.00  0.00     0.189 HD
HETATM    7  N   UNL     1      44.761 -20.473   4.405  1.00  0.00    -0.168 NA
HETATM    8  C   UNL     1      44.467 -19.216   4.813  1.00  0.00     0.156 A 
HETATM    9  C   UNL     1      43.573 -18.871   1.359  1.00  0.00     0.034 A 
HETATM   10  C   UNL     1      43.129 -17.551   1.221  1.00  0.00     0.032 A 
ENDROOT
BRANCH   1  11
HETATM   11  N   UNL     1      42.680 -15.344   2.035  1.00  0.00    -0.323 N 
HETATM   12  C   UNL     1      41.376 -14.946   1.843  1.00  0.00     0.251 C 
HETATM   13  O   UNL     1      40.355 -15.612   1.935  1.00  0.00    -0.268 OA
HETATM   14  H   UNL     1      43.377 -14.612   2.034  1.00  0.00     0.169 HD
BRANCH  12  15
HETATM   15  C   UNL     1      41.283 -13.484   1.566  1.00  0.00     0.007 C 
HETATM   16  C   UNL     1      41.668 -12.609   2.717  1.00  0.00     0.054 C 
HETATM   17  C   UNL     1      40.861 -13.014   0.377  1.00  0.00     0.023 C 
BRANCH  17  18
HETATM   18  C   UNL     1      40.391 -13.809  -0.765  1.00  0.00    -0.035 A 
HETATM   19  C   UNL     1      39.076 -13.705  -1.240  1.00  0.00     0.013 A 
HETATM   20  C   UNL     1      38.664 -14.434  -2.358  1.00  0.00     0.024 A 
HETATM   21  C   UNL     1      39.571 -15.261  -3.016  1.00  0.00     0.034 A 
HETATM   22 CL   UNL     1      39.072 -16.152  -4.400  1.00  0.00    -0.084 Cl
HETATM   23  C   UNL     1      40.886 -15.363  -2.565  1.00  0.00     0.024 A 
HETATM   24  C   UNL     1      41.296 -14.634  -1.444  1.00  0.00     0.013 A 
ENDBRANCH  17  18
ENDBRANCH  12  15
ENDBRANCH   1  11
BRANCH   8  25
HETATM   25  C   UNL     1      44.618 -18.821   6.221  1.00  0.00     0.270 C 
HETATM   26  N   UNL     1      43.812 -19.514   7.083  1.00  0.00    -0.365 N 
HETATM   27  H   UNL     1      43.176 -20.204   6.703  1.00  0.00     0.159 HD
HETATM   28  H   UNL     1      43.817 -19.283   8.064  1.00  0.00     0.159 HD
HETATM   29  O   UNL     1      45.372 -17.943   6.625  1.00  0.00    -0.266 OA
ENDBRANCH   8  25
TORSDOF 4
ENDMDL
