MODEL 1
REMARK VINA RESULT:      -8.0      0.000      0.000
REMARK  10 active torsions:
REMARK  status: ('A' for Active; 'I' for Inactive)
REMARK    1  A    between atoms: C_3  and  N_4 
REMARK    2  A    between atoms: C_5  and  S_6 
REMARK    3  A    between atoms: S_6  and  C_7 
REMARK    4  A    between atoms: C_7  and  C_8 
REMARK       I    between atoms: C_8  and  N_9 
REMARK    5  A    between atoms: N_9  and  C_10 
REMARK    6  A    between atoms: C_10  and  C_11 
REMARK    7  A    between atoms: C_11  and  C_12 
REMARK    8  A    between atoms: C_15  and  S_16 
REMARK    9  A    between atoms: S_16  and  N_17 
REMARK   10  A    between atoms: C_26  and  N_27 
ROOT
HETATM    1  N   UNL     1      43.699 -18.191   4.224  1.00  0.00    -0.275 N 
HETATM    2  C   UNL     1      43.710 -18.022   2.871  1.00  0.00     0.177 A 
HETATM    3  N   UNL     1      44.084 -18.963   1.976  1.00  0.00    -0.204 NA
HETATM    4  C   UNL     1      44.327 -20.136   2.560  1.00  0.00     0.162 A 
HETATM    5  C   UNL     1      44.283 -20.415   3.910  1.00  0.00     0.081 A 
HETATM    6  C   UNL     1      43.989 -19.383   4.817  1.00  0.00     0.124 A 
HETATM    7  N   UNL     1      44.659 -21.299   1.925  1.00  0.00    -0.260 N 
HETATM    8  H   UNL     1      44.778 -21.454   0.930  1.00  0.00     0.191 HD
HETATM    9  N   UNL     1      44.828 -22.328   2.767  1.00  0.00    -0.177 NA
HETATM   10  C   UNL     1      44.594 -21.807   3.978  1.00  0.00     0.068 A 
HETATM   11  C   UNL     1      44.675 -22.689   5.172  1.00  0.00     0.073 C 
ENDROOT
BRANCH   2  12
HETATM   12  S   UNL     1      43.230 -16.452   2.124  1.00  0.00    -0.082 SA
BRANCH  12  13
HETATM   13  C   UNL     1      41.560 -16.872   1.530  1.00  0.00     0.185 C 
BRANCH  13  14
HETATM   14  C   UNL     1      41.057 -15.924   0.446  1.00  0.00     0.227 C 
HETATM   15  N   UNL     1      40.298 -14.854   0.856  1.00  0.00    -0.360 N 
HETATM   16  H   UNL     1      40.039 -14.216   0.108  1.00  0.00     0.162 HD
HETATM   17  O   UNL     1      41.308 -16.070  -0.752  1.00  0.00    -0.273 OA
BRANCH  15  18
HETATM   18  C   UNL     1      40.150 -14.417   2.235  1.00  0.00     0.127 C 
BRANCH  18  19
HETATM   19  C   UNL     1      41.072 -13.260   2.622  1.00  0.00     0.058 C 
BRANCH  19  20
HETATM   20  C   UNL     1      40.782 -12.835   4.043  1.00  0.00    -0.057 A 
HETATM   21  C   UNL     1      39.627 -13.288   4.697  1.00  0.00     0.009 A 
HETATM   22  C   UNL     1      39.297 -12.805   5.965  1.00  0.00     0.025 A 
HETATM   23  C   UNL     1      40.128 -11.870   6.586  1.00  0.00     0.074 A 
HETATM   24  C   UNL     1      41.287 -11.418   5.952  1.00  0.00     0.025 A 
HETATM   25  C   UNL     1      41.614 -11.904   4.685  1.00  0.00     0.009 A 
BRANCH  23  26
HETATM   26  S   UNL     1      39.647 -11.170   8.140  1.00  0.00     0.239 S 
HETATM   27  O   UNL     1      40.832 -10.904   8.921  1.00  0.00    -0.206 OA
HETATM   28  O   UNL     1      38.635 -10.167   7.902  1.00  0.00    -0.206 OA
BRANCH  26  29
HETATM   29  N   UNL     1      38.871 -12.457   8.885  1.00  0.00    -0.225 NA
HETATM   30  H   UNL     1      37.940 -12.172   9.191  1.00  0.00     0.136 HD
HETATM   31  H   UNL     1      38.864 -13.267   8.263  1.00  0.00     0.136 HD
ENDBRANCH  26  29
ENDBRANCH  23  26
ENDBRANCH  19  20
ENDBRANCH  18  19
ENDBRANCH  15  18
ENDBRANCH  13  14
ENDBRANCH  12  13
ENDBRANCH   2  12
BRANCH   1  32
HETATM   32  C   UNL     1      43.353 -17.080   5.071  1.00  0.00     0.051 A 
HETATM   33  C   UNL     1      42.006 -16.843   5.405  1.00  0.00    -0.035 A 
HETATM   34  C   UNL     1      40.874 -17.744   4.999  1.00  0.00     0.050 C 
HETATM   35  C   UNL     1      41.728 -15.728   6.207  1.00  0.00     0.011 A 
HETATM   36  C   UNL     1      42.752 -14.867   6.614  1.00  0.00     0.024 A 
HETATM   37  C   UNL     1      44.072 -15.116   6.239  1.00  0.00     0.036 A 
HETATM   38  C   UNL     1      44.388 -16.227   5.465  1.00  0.00     0.054 A 
HETATM   39 CL   UNL     1      45.316 -14.037   6.722  1.00  0.00    -0.084 Cl
ENDBRANCH   1  32
BRANCH   6  40
HETATM   40  N   UNL     1      44.000 -19.565   6.194  1.00  0.00    -0.384 N 
HETATM   41  H   UNL     1      43.381 -20.257   6.603  1.00  0.00     0.157 HD
HETATM   42  H   UNL     1      44.799 -19.325   6.767  1.00  0.00     0.157 HD
ENDBRANCH   6  40
TORSDOF 10
ENDMDL
MODEL 2
REMARK VINA RESULT:      -7.9      4.198      7.454
REMARK  10 active torsions:
REMARK  status: ('A' for Active; 'I' for Inactive)
REMARK    1  A    between atoms: C_3  and  N_4 
REMARK    2  A    between atoms: C_5  and  S_6 
REMARK    3  A    between atoms: S_6  and  C_7 
REMARK    4  A    between atoms: C_7  and  C_8 
REMARK       I    between atoms: C_8  and  N_9 
REMARK    5  A    between atoms: N_9  and  C_10 
REMARK    6  A    between atoms: C_10  and  C_11 
REMARK    7  A    between atoms: C_11  and  C_12 
REMARK    8  A    between atoms: C_15  and  S_16 
REMARK    9  A    between atoms: S_16  and  N_17 
REMARK   10  A    between atoms: C_26  and  N_27 
ROOT
HETATM    1  N   UNL     1      40.211 -12.517   2.020  1.00  0.00    -0.275 N 
HETATM    2  C   UNL     1      41.235 -12.644   1.129  1.00  0.00     0.177 A 
HETATM    3  N   UNL     1      42.478 -13.080   1.434  1.00  0.00    -0.204 NA
HETATM    4  C   UNL     1      42.562 -13.497   2.696  1.00  0.00     0.162 A 
HETATM    5  C   UNL     1      41.566 -13.462   3.649  1.00  0.00     0.081 A 
HETATM    6  C   UNL     1      40.317 -12.908   3.321  1.00  0.00     0.124 A 
HETATM    7  N   UNL     1      43.659 -14.054   3.289  1.00  0.00    -0.260 N 
HETATM    8  H   UNL     1      44.569 -14.231   2.876  1.00  0.00     0.191 HD
HETATM    9  N   UNL     1      43.450 -14.397   4.567  1.00  0.00    -0.177 NA
HETATM   10  C   UNL     1      42.177 -14.051   4.798  1.00  0.00     0.068 A 
HETATM   11  C   UNL     1      41.589 -14.311   6.138  1.00  0.00     0.073 C 
ENDROOT
BRANCH   2  12
HETATM   12  S   UNL     1      41.021 -12.199  -0.606  1.00  0.00    -0.082 SA
BRANCH  12  13
HETATM   13  C   UNL     1      41.658 -13.705  -1.409  1.00  0.00     0.185 C 
BRANCH  13  14
HETATM   14  C   UNL     1      40.570 -14.738  -1.688  1.00  0.00     0.227 C 
HETATM   15  N   UNL     1      40.662 -15.936  -1.021  1.00  0.00    -0.360 N 
HETATM   16  H   UNL     1      39.883 -16.566  -1.189  1.00  0.00     0.162 HD
HETATM   17  O   UNL     1      39.629 -14.539  -2.459  1.00  0.00    -0.273 OA
BRANCH  15  18
HETATM   18  C   UNL     1      41.551 -16.201   0.099  1.00  0.00     0.127 C 
BRANCH  18  19
HETATM   19  C   UNL     1      40.828 -16.614   1.382  1.00  0.00     0.058 C 
BRANCH  19  20
HETATM   20  C   UNL     1      41.831 -17.146   2.380  1.00  0.00    -0.057 A 
HETATM   21  C   UNL     1      43.121 -17.508   1.964  1.00  0.00     0.009 A 
HETATM   22  C   UNL     1      44.010 -18.108   2.858  1.00  0.00     0.025 A 
HETATM   23  C   UNL     1      43.611 -18.340   4.177  1.00  0.00     0.074 A 
HETATM   24  C   UNL     1      42.334 -17.974   4.608  1.00  0.00     0.025 A 
HETATM   25  C   UNL     1      41.449 -17.374   3.711  1.00  0.00     0.009 A 
BRANCH  23  26
HETATM   26  S   UNL     1      44.695 -19.207   5.277  1.00  0.00     0.239 S 
HETATM   27  O   UNL     1      45.323 -20.290   4.558  1.00  0.00    -0.206 OA
HETATM   28  O   UNL     1      45.453 -18.241   6.037  1.00  0.00    -0.206 OA
BRANCH  26  29
HETATM   29  N   UNL     1      43.620 -19.915   6.351  1.00  0.00    -0.225 NA
HETATM   30  H   UNL     1      43.797 -19.575   7.297  1.00  0.00     0.136 HD
HETATM   31  H   UNL     1      42.660 -19.759   6.037  1.00  0.00     0.136 HD
ENDBRANCH  26  29
ENDBRANCH  23  26
ENDBRANCH  19  20
ENDBRANCH  18  19
ENDBRANCH  15  18
ENDBRANCH  13  14
ENDBRANCH  12  13
ENDBRANCH   2  12
BRANCH   1  32
HETATM   32  C   UNL     1      38.957 -11.965   1.580  1.00  0.00     0.051 A 
HETATM   33  C   UNL     1      37.954 -12.814   1.076  1.00  0.00    -0.035 A 
HETATM   34  C   UNL     1      38.066 -14.312   1.042  1.00  0.00     0.050 C 
HETATM   35  C   UNL     1      36.766 -12.216   0.633  1.00  0.00     0.011 A 
HETATM   36  C   UNL     1      36.615 -10.826   0.654  1.00  0.00     0.024 A 
HETATM   37  C   UNL     1      37.642 -10.013   1.132  1.00  0.00     0.036 A 
HETATM   38  C   UNL     1      38.825 -10.574   1.603  1.00  0.00     0.054 A 
HETATM   39 CL   UNL     1      37.456  -8.307   1.127  1.00  0.00    -0.084 Cl
ENDBRANCH   1  32
BRANCH   6  40
HETATM   40  N   UNL     1      39.290 -12.767   4.244  1.00  0.00    -0.384 N 
HETATM   41  H   UNL     1      39.523 -12.652   5.225  1.00  0.00     0.157 HD
HETATM   42  H   UNL     1      38.372 -12.427   3.988  1.00  0.00     0.157 HD
ENDBRANCH   6  40
TORSDOF 10
ENDMDL
MODEL 3
REMARK VINA RESULT:      -7.5      3.172      6.420
REMARK  10 active torsions:
REMARK  status: ('A' for Active; 'I' for Inactive)
REMARK    1  A    between atoms: C_3  and  N_4 
REMARK    2  A    between atoms: C_5  and  S_6 
REMARK    3  A    between atoms: S_6  and  C_7 
REMARK    4  A    between atoms: C_7  and  C_8 
REMARK       I    between atoms: C_8  and  N_9 
REMARK    5  A    between atoms: N_9  and  C_10 
REMARK    6  A    between atoms: C_10  and  C_11 
REMARK    7  A    between atoms: C_11  and  C_12 
REMARK    8  A    between atoms: C_15  and  S_16 
REMARK    9  A    between atoms: S_16  and  N_17 
REMARK   10  A    between atoms: C_26  and  N_27 
ROOT
HETATM    1  N   UNL     1      42.753 -16.532   4.162  1.00  0.00    -0.275 N 
HETATM    2  C   UNL     1      43.272 -15.467   4.836  1.00  0.00     0.177 A 
HETATM    3  N   UNL     1      43.838 -15.527   6.063  1.00  0.00    -0.204 NA
HETATM    4  C   UNL     1      43.948 -16.782   6.498  1.00  0.00     0.162 A 
HETATM    5  C   UNL     1      43.507 -17.922   5.860  1.00  0.00     0.081 A 
HETATM    6  C   UNL     1      42.833 -17.808   4.633  1.00  0.00     0.124 A 
HETATM    7  N   UNL     1      44.533 -17.181   7.666  1.00  0.00    -0.260 N 
HETATM    8  H   UNL     1      44.964 -16.601   8.378  1.00  0.00     0.191 HD
HETATM    9  N   UNL     1      44.515 -18.510   7.836  1.00  0.00    -0.177 NA
HETATM   10  C   UNL     1      43.902 -18.976   6.740  1.00  0.00     0.068 A 
HETATM   11  C   UNL     1      43.722 -20.443   6.581  1.00  0.00     0.073 C 
ENDROOT
BRANCH   2  12
HETATM   12  S   UNL     1      43.226 -13.806   4.133  1.00  0.00    -0.082 SA
BRANCH  12  13
HETATM   13  C   UNL     1      42.206 -12.955   5.379  1.00  0.00     0.185 C 
BRANCH  13  14
HETATM   14  C   UNL     1      40.719 -13.273   5.252  1.00  0.00     0.227 C 
HETATM   15  N   UNL     1      40.014 -12.584   4.294  1.00  0.00    -0.360 N 
HETATM   16  H   UNL     1      39.044 -12.874   4.202  1.00  0.00     0.162 HD
HETATM   17  O   UNL     1      40.144 -14.112   5.948  1.00  0.00    -0.273 OA
BRANCH  15  18
HETATM   18  C   UNL     1      40.608 -11.776   3.241  1.00  0.00     0.127 C 
BRANCH  18  19
HETATM   19  C   UNL     1      39.632 -11.389   2.129  1.00  0.00     0.058 C 
BRANCH  19  20
HETATM   20  C   UNL     1      40.113 -11.955   0.813  1.00  0.00    -0.057 A 
HETATM   21  C   UNL     1      41.486 -12.084   0.556  1.00  0.00     0.009 A 
HETATM   22  C   UNL     1      41.935 -12.496  -0.700  1.00  0.00     0.025 A 
HETATM   23  C   UNL     1      41.008 -12.788  -1.703  1.00  0.00     0.074 A 
HETATM   24  C   UNL     1      39.637 -12.675  -1.459  1.00  0.00     0.025 A 
HETATM   25  C   UNL     1      39.193 -12.264  -0.202  1.00  0.00     0.009 A 
BRANCH  23  26
HETATM   26  S   UNL     1      41.579 -13.195  -3.329  1.00  0.00     0.239 S 
HETATM   27  O   UNL     1      40.973 -14.439  -3.741  1.00  0.00    -0.206 OA
HETATM   28  O   UNL     1      41.535 -12.005  -4.147  1.00  0.00    -0.206 OA
BRANCH  26  29
HETATM   29  N   UNL     1      43.201 -13.526  -3.063  1.00  0.00    -0.225 NA
HETATM   30  H   UNL     1      43.713 -12.656  -2.905  1.00  0.00     0.136 HD
HETATM   31  H   UNL     1      43.300 -14.199  -2.302  1.00  0.00     0.136 HD
ENDBRANCH  26  29
ENDBRANCH  23  26
ENDBRANCH  19  20
ENDBRANCH  18  19
ENDBRANCH  15  18
ENDBRANCH  13  14
ENDBRANCH  12  13
ENDBRANCH   2  12
BRANCH   1  32
HETATM   32  C   UNL     1      42.107 -16.318   2.894  1.00  0.00     0.051 A 
HETATM   33  C   UNL     1      42.833 -16.481   1.699  1.00  0.00    -0.035 A 
HETATM   34  C   UNL     1      44.256 -16.963   1.645  1.00  0.00     0.050 C 
HETATM   35  C   UNL     1      42.160 -16.228   0.496  1.00  0.00     0.011 A 
HETATM   36  C   UNL     1      40.834 -15.786   0.499  1.00  0.00     0.024 A 
HETATM   37  C   UNL     1      40.154 -15.605   1.704  1.00  0.00     0.036 A 
HETATM   38  C   UNL     1      40.783 -15.871   2.916  1.00  0.00     0.054 A 
HETATM   39 CL   UNL     1      38.535 -15.036   1.696  1.00  0.00    -0.084 Cl
ENDBRANCH   1  32
BRANCH   6  40
HETATM   40  N   UNL     1      42.292 -18.900   3.966  1.00  0.00    -0.384 N 
HETATM   41  H   UNL     1      41.532 -18.749   3.312  1.00  0.00     0.157 HD
HETATM   42  H   UNL     1      42.810 -19.757   3.818  1.00  0.00     0.157 HD
ENDBRANCH   6  40
TORSDOF 10
ENDMDL
MODEL 4
REMARK VINA RESULT:      -7.5      3.830      6.871
REMARK  10 active torsions:
REMARK  status: ('A' for Active; 'I' for Inactive)
REMARK    1  A    between atoms: C_3  and  N_4 
REMARK    2  A    between atoms: C_5  and  S_6 
REMARK    3  A    between atoms: S_6  and  C_7 
REMARK    4  A    between atoms: C_7  and  C_8 
REMARK       I    between atoms: C_8  and  N_9 
REMARK    5  A    between atoms: N_9  and  C_10 
REMARK    6  A    between atoms: C_10  and  C_11 
REMARK    7  A    between atoms: C_11  and  C_12 
REMARK    8  A    between atoms: C_15  and  S_16 
REMARK    9  A    between atoms: S_16  and  N_17 
REMARK   10  A    between atoms: C_26  and  N_27 
ROOT
HETATM    1  N   UNL     1      41.478 -15.275   3.153  1.00  0.00    -0.275 N 
HETATM    2  C   UNL     1      42.166 -14.124   3.403  1.00  0.00     0.177 A 
HETATM    3  N   UNL     1      41.818 -12.899   2.949  1.00  0.00    -0.204 NA
HETATM    4  C   UNL     1      40.641 -12.916   2.324  1.00  0.00     0.162 A 
HETATM    5  C   UNL     1      39.849 -14.018   2.078  1.00  0.00     0.081 A 
HETATM    6  C   UNL     1      40.294 -15.290   2.477  1.00  0.00     0.124 A 
HETATM    7  N   UNL     1      39.985 -11.834   1.813  1.00  0.00    -0.260 N 
HETATM    8  H   UNL     1      40.282 -10.863   1.819  1.00  0.00     0.191 HD
HETATM    9  N   UNL     1      38.808 -12.148   1.253  1.00  0.00    -0.177 NA
HETATM   10  C   UNL     1      38.707 -13.473   1.416  1.00  0.00     0.068 A 
HETATM   11  C   UNL     1      37.492 -14.172   0.922  1.00  0.00     0.073 C 
ENDROOT
BRANCH   2  12
HETATM   12  S   UNL     1      43.681 -14.138   4.381  1.00  0.00    -0.082 SA
BRANCH  12  13
HETATM   13  C   UNL     1      42.982 -14.183   6.062  1.00  0.00     0.185 C 
BRANCH  13  14
HETATM   14  C   UNL     1      42.708 -12.794   6.632  1.00  0.00     0.227 C 
HETATM   15  N   UNL     1      43.478 -12.396   7.699  1.00  0.00    -0.360 N 
HETATM   16  H   UNL     1      43.304 -11.442   8.003  1.00  0.00     0.162 HD
HETATM   17  O   UNL     1      41.855 -12.031   6.176  1.00  0.00    -0.273 OA
BRANCH  15  18
HETATM   18  C   UNL     1      44.680 -13.073   8.160  1.00  0.00     0.127 C 
BRANCH  18  19
HETATM   19  C   UNL     1      45.577 -12.210   9.046  1.00  0.00     0.058 C 
BRANCH  19  20
HETATM   20  C   UNL     1      44.784 -11.703  10.229  1.00  0.00    -0.057 A 
HETATM   21  C   UNL     1      44.278 -12.602  11.180  1.00  0.00     0.009 A 
HETATM   22  C   UNL     1      43.449 -12.150  12.208  1.00  0.00     0.025 A 
HETATM   23  C   UNL     1      43.128 -10.793  12.292  1.00  0.00     0.074 A 
HETATM   24  C   UNL     1      43.633  -9.885  11.358  1.00  0.00     0.025 A 
HETATM   25  C   UNL     1      44.463 -10.340  10.333  1.00  0.00     0.009 A 
BRANCH  23  26
HETATM   26  S   UNL     1      41.981 -10.240  13.523  1.00  0.00     0.239 S 
HETATM   27  O   UNL     1      40.742 -10.966  13.368  1.00  0.00    -0.206 OA
HETATM   28  O   UNL     1      42.670 -10.147  14.789  1.00  0.00    -0.206 OA
BRANCH  26  29
HETATM   29  N   UNL     1      41.669  -8.666  13.037  1.00  0.00    -0.225 NA
HETATM   30  H   UNL     1      42.480  -8.286  12.546  1.00  0.00     0.136 HD
HETATM   31  H   UNL     1      40.810  -8.635  12.486  1.00  0.00     0.136 HD
ENDBRANCH  26  29
ENDBRANCH  23  26
ENDBRANCH  19  20
ENDBRANCH  18  19
ENDBRANCH  15  18
ENDBRANCH  13  14
ENDBRANCH  12  13
ENDBRANCH   2  12
BRANCH   1  32
HETATM   32  C   UNL     1      42.000 -16.528   3.631  1.00  0.00     0.051 A 
HETATM   33  C   UNL     1      41.634 -17.002   4.904  1.00  0.00    -0.035 A 
HETATM   34  C   UNL     1      40.637 -16.318   5.796  1.00  0.00     0.050 C 
HETATM   35  C   UNL     1      42.199 -18.212   5.328  1.00  0.00     0.011 A 
HETATM   36  C   UNL     1      43.126 -18.887   4.527  1.00  0.00     0.024 A 
HETATM   37  C   UNL     1      43.489 -18.372   3.283  1.00  0.00     0.036 A 
HETATM   38  C   UNL     1      42.928 -17.186   2.819  1.00  0.00     0.054 A 
HETATM   39 CL   UNL     1      44.647 -19.195   2.321  1.00  0.00    -0.084 Cl
ENDBRANCH   1  32
BRANCH   6  40
HETATM   40  N   UNL     1      39.592 -16.455   2.199  1.00  0.00    -0.384 N 
HETATM   41  H   UNL     1      39.523 -16.769   1.237  1.00  0.00     0.157 HD
HETATM   42  H   UNL     1      39.450 -17.182   2.889  1.00  0.00     0.157 HD
ENDBRANCH   6  40
TORSDOF 10
ENDMDL
MODEL 5
REMARK VINA RESULT:      -7.3      4.156      7.274
REMARK  10 active torsions:
REMARK  status: ('A' for Active; 'I' for Inactive)
REMARK    1  A    between atoms: C_3  and  N_4 
REMARK    2  A    between atoms: C_5  and  S_6 
REMARK    3  A    between atoms: S_6  and  C_7 
REMARK    4  A    between atoms: C_7  and  C_8 
REMARK       I    between atoms: C_8  and  N_9 
REMARK    5  A    between atoms: N_9  and  C_10 
REMARK    6  A    between atoms: C_10  and  C_11 
REMARK    7  A    between atoms: C_11  and  C_12 
REMARK    8  A    between atoms: C_15  and  S_16 
REMARK    9  A    between atoms: S_16  and  N_17 
REMARK   10  A    between atoms: C_26  and  N_27 
ROOT
HETATM    1  N   UNL     1      41.348 -14.024   3.528  1.00  0.00    -0.275 N 
HETATM    2  C   UNL     1      41.229 -14.307   4.856  1.00  0.00     0.177 A 
HETATM    3  N   UNL     1      41.118 -13.385   5.839  1.00  0.00    -0.204 NA
HETATM    4  C   UNL     1      41.012 -12.149   5.350  1.00  0.00     0.162 A 
HETATM    5  C   UNL     1      41.062 -11.775   4.024  1.00  0.00     0.081 A 
HETATM    6  C   UNL     1      41.279 -12.754   3.040  1.00  0.00     0.124 A 
HETATM    7  N   UNL     1      40.821 -11.010   6.077  1.00  0.00    -0.260 N 
HETATM    8  H   UNL     1      40.737 -10.918   7.085  1.00  0.00     0.191 HD
HETATM    9  N   UNL     1      40.733  -9.909   5.318  1.00  0.00    -0.177 NA
HETATM   10  C   UNL     1      40.868 -10.360   4.065  1.00  0.00     0.068 A 
HETATM   11  C   UNL     1      40.800  -9.394   2.937  1.00  0.00     0.073 C 
ENDROOT
BRANCH   2  12
HETATM   12  S   UNL     1      41.233 -16.010   5.450  1.00  0.00    -0.082 SA
BRANCH  12  13
HETATM   13  C   UNL     1      43.006 -16.223   5.812  1.00  0.00     0.185 C 
BRANCH  13  14
HETATM   14  C   UNL     1      43.310 -16.257   7.307  1.00  0.00     0.227 C 
HETATM   15  N   UNL     1      44.027 -15.203   7.821  1.00  0.00    -0.360 N 
HETATM   16  H   UNL     1      44.150 -15.236   8.829  1.00  0.00     0.162 HD
HETATM   17  O   UNL     1      42.936 -17.162   8.054  1.00  0.00    -0.273 OA
BRANCH  15  18
HETATM   18  C   UNL     1      44.296 -13.957   7.120  1.00  0.00     0.127 C 
BRANCH  18  19
HETATM   19  C   UNL     1      45.414 -13.122   7.746  1.00  0.00     0.058 C 
BRANCH  19  20
HETATM   20  C   UNL     1      44.823 -12.154   8.746  1.00  0.00    -0.057 A 
HETATM   21  C   UNL     1      45.521 -11.836   9.921  1.00  0.00     0.009 A 
HETATM   22  C   UNL     1      44.929 -11.036  10.900  1.00  0.00     0.025 A 
HETATM   23  C   UNL     1      43.636 -10.545  10.702  1.00  0.00     0.074 A 
HETATM   24  C   UNL     1      42.934 -10.844   9.533  1.00  0.00     0.025 A 
HETATM   25  C   UNL     1      43.530 -11.643   8.556  1.00  0.00     0.009 A 
BRANCH  23  26
HETATM   26  S   UNL     1      42.842  -9.631  11.994  1.00  0.00     0.239 S 
HETATM   27  O   UNL     1      43.574  -9.825  13.224  1.00  0.00    -0.206 OA
HETATM   28  O   UNL     1      42.506  -8.318  11.494  1.00  0.00    -0.206 OA
BRANCH  26  29
HETATM   29  N   UNL     1      41.393 -10.455  12.173  1.00  0.00    -0.225 NA
HETATM   30  H   UNL     1      40.673 -10.025  11.590  1.00  0.00     0.136 HD
HETATM   31  H   UNL     1      41.530 -11.448  11.982  1.00  0.00     0.136 HD
ENDBRANCH  26  29
ENDBRANCH  23  26
ENDBRANCH  19  20
ENDBRANCH  18  19
ENDBRANCH  15  18
ENDBRANCH  13  14
ENDBRANCH  12  13
ENDBRANCH   2  12
BRANCH   1  32
HETATM   32  C   UNL     1      41.537 -15.100   2.591  1.00  0.00     0.051 A 
HETATM   33  C   UNL     1      40.426 -15.674   1.946  1.00  0.00    -0.035 A 
HETATM   34  C   UNL     1      39.018 -15.173   2.103  1.00  0.00     0.050 C 
HETATM   35  C   UNL     1      40.669 -16.739   1.069  1.00  0.00     0.011 A 
HETATM   36  C   UNL     1      41.965 -17.233   0.886  1.00  0.00     0.024 A 
HETATM   37  C   UNL     1      43.039 -16.659   1.566  1.00  0.00     0.036 A 
HETATM   38  C   UNL     1      42.838 -15.584   2.425  1.00  0.00     0.054 A 
HETATM   39 CL   UNL     1      44.621 -17.291   1.354  1.00  0.00    -0.084 Cl
ENDBRANCH   1  32
BRANCH   6  40
HETATM   40  N   UNL     1      41.418 -12.448   1.692  1.00  0.00    -0.384 N 
HETATM   41  H   UNL     1      40.629 -12.049   1.195  1.00  0.00     0.157 HD
HETATM   42  H   UNL     1      42.318 -12.268   1.266  1.00  0.00     0.157 HD
ENDBRANCH   6  40
TORSDOF 10
ENDMDL
MODEL 6
REMARK VINA RESULT:      -7.3      4.310      7.087
REMARK  10 active torsions:
REMARK  status: ('A' for Active; 'I' for Inactive)
REMARK    1  A    between atoms: C_3  and  N_4 
REMARK    2  A    between atoms: C_5  and  S_6 
REMARK    3  A    between atoms: S_6  and  C_7 
REMARK    4  A    between atoms: C_7  and  C_8 
REMARK       I    between atoms: C_8  and  N_9 
REMARK    5  A    between atoms: N_9  and  C_10 
REMARK    6  A    between atoms: C_10  and  C_11 
REMARK    7  A    between atoms: C_11  and  C_12 
REMARK    8  A    between atoms: C_15  and  S_16 
REMARK    9  A    between atoms: S_16  and  N_17 
REMARK   10  A    between atoms: C_26  and  N_27 
ROOT
HETATM    1  N   UNL     1      40.077 -14.552   0.152  1.00  0.00    -0.275 N 
HETATM    2  C   UNL     1      39.351 -14.300   1.278  1.00  0.00     0.177 A 
HETATM    3  N   UNL     1      39.397 -15.037   2.411  1.00  0.00    -0.204 NA
HETATM    4  C   UNL     1      40.337 -15.979   2.353  1.00  0.00     0.162 A 
HETATM    5  C   UNL     1      41.157 -16.268   1.282  1.00  0.00     0.081 A 
HETATM    6  C   UNL     1      41.008 -15.545   0.086  1.00  0.00     0.124 A 
HETATM    7  N   UNL     1      40.677 -16.840   3.357  1.00  0.00    -0.260 N 
HETATM    8  H   UNL     1      40.275 -16.906   4.286  1.00  0.00     0.191 HD
HETATM    9  N   UNL     1      41.673 -17.672   3.021  1.00  0.00    -0.177 NA
HETATM   10  C   UNL     1      41.982 -17.329   1.764  1.00  0.00     0.068 A 
HETATM   11  C   UNL     1      43.082 -18.047   1.068  1.00  0.00     0.073 C 
ENDROOT
BRANCH   2  12
HETATM   12  S   UNL     1      38.195 -12.918   1.352  1.00  0.00    -0.082 SA
BRANCH  12  13
HETATM   13  C   UNL     1      38.843 -12.030   2.804  1.00  0.00     0.185 C 
BRANCH  13  14
HETATM   14  C   UNL     1      40.030 -11.130   2.473  1.00  0.00     0.227 C 
HETATM   15  N   UNL     1      41.216 -11.403   3.109  1.00  0.00    -0.360 N 
HETATM   16  H   UNL     1      41.993 -10.820   2.811  1.00  0.00     0.162 HD
HETATM   17  O   UNL     1      39.970 -10.199   1.667  1.00  0.00    -0.273 OA
BRANCH  15  18
HETATM   18  C   UNL     1      41.497 -12.613   3.867  1.00  0.00     0.127 C 
BRANCH  18  19
HETATM   19  C   UNL     1      42.143 -12.357   5.229  1.00  0.00     0.058 C 
BRANCH  19  20
HETATM   20  C   UNL     1      42.560 -13.671   5.847  1.00  0.00    -0.057 A 
HETATM   21  C   UNL     1      43.882 -13.865   6.276  1.00  0.00     0.009 A 
HETATM   22  C   UNL     1      44.299 -15.115   6.739  1.00  0.00     0.025 A 
HETATM   23  C   UNL     1      43.390 -16.175   6.780  1.00  0.00     0.074 A 
HETATM   24  C   UNL     1      42.068 -15.994   6.366  1.00  0.00     0.025 A 
HETATM   25  C   UNL     1      41.655 -14.743   5.905  1.00  0.00     0.009 A 
BRANCH  23  26
HETATM   26  S   UNL     1      43.949 -17.787   7.254  1.00  0.00     0.239 S 
HETATM   27  O   UNL     1      43.006 -18.769   6.773  1.00  0.00    -0.206 OA
HETATM   28  O   UNL     1      45.366 -17.881   6.990  1.00  0.00    -0.206 OA
BRANCH  26  29
HETATM   29  N   UNL     1      43.780 -17.746   8.921  1.00  0.00    -0.225 NA
HETATM   30  H   UNL     1      44.669 -17.976   9.367  1.00  0.00     0.136 HD
HETATM   31  H   UNL     1      43.401 -16.844   9.211  1.00  0.00     0.136 HD
ENDBRANCH  26  29
ENDBRANCH  23  26
ENDBRANCH  19  20
ENDBRANCH  18  19
ENDBRANCH  15  18
ENDBRANCH  13  14
ENDBRANCH  12  13
ENDBRANCH   2  12
BRANCH   1  32
HETATM   32  C   UNL     1      39.875 -13.736  -1.015  1.00  0.00     0.051 A 
HETATM   33  C   UNL     1      40.725 -12.641  -1.263  1.00  0.00    -0.035 A 
HETATM   34  C   UNL     1      41.920 -12.304  -0.417  1.00  0.00     0.050 C 
HETATM   35  C   UNL     1      40.460 -11.864  -2.398  1.00  0.00     0.011 A 
HETATM   36  C   UNL     1      39.363 -12.146  -3.218  1.00  0.00     0.024 A 
HETATM   37  C   UNL     1      38.524 -13.221  -2.925  1.00  0.00     0.036 A 
HETATM   38  C   UNL     1      38.771 -14.029  -1.821  1.00  0.00     0.054 A 
HETATM   39 CL   UNL     1      37.164 -13.541  -3.923  1.00  0.00    -0.084 Cl
ENDBRANCH   1  32
BRANCH   6  40
HETATM   40  N   UNL     1      41.741 -15.826  -1.059  1.00  0.00    -0.384 N 
HETATM   41  H   UNL     1      41.658 -16.744  -1.483  1.00  0.00     0.157 HD
HETATM   42  H   UNL     1      42.067 -15.101  -1.686  1.00  0.00     0.157 HD
ENDBRANCH   6  40
TORSDOF 10
ENDMDL
MODEL 7
REMARK VINA RESULT:      -7.2      3.610      7.270
REMARK  10 active torsions:
REMARK  status: ('A' for Active; 'I' for Inactive)
REMARK    1  A    between atoms: C_3  and  N_4 
REMARK    2  A    between atoms: C_5  and  S_6 
REMARK    3  A    between atoms: S_6  and  C_7 
REMARK    4  A    between atoms: C_7  and  C_8 
REMARK       I    between atoms: C_8  and  N_9 
REMARK    5  A    between atoms: N_9  and  C_10 
REMARK    6  A    between atoms: C_10  and  C_11 
REMARK    7  A    between atoms: C_11  and  C_12 
REMARK    8  A    between atoms: C_15  and  S_16 
REMARK    9  A    between atoms: S_16  and  N_17 
REMARK   10  A    between atoms: C_26  and  N_27 
ROOT
HETATM    1  N   UNL     1      42.120 -15.314   1.765  1.00  0.00    -0.275 N 
HETATM    2  C   UNL     1      42.516 -14.035   2.024  1.00  0.00     0.177 A 
HETATM    3  N   UNL     1      42.491 -13.020   1.131  1.00  0.00    -0.204 NA
HETATM    4  C   UNL     1      41.911 -13.380  -0.014  1.00  0.00     0.162 A 
HETATM    5  C   UNL     1      41.429 -14.629  -0.342  1.00  0.00     0.081 A 
HETATM    6  C   UNL     1      41.565 -15.683   0.576  1.00  0.00     0.124 A 
HETATM    7  N   UNL     1      41.673 -12.568  -1.086  1.00  0.00    -0.260 N 
HETATM    8  H   UNL     1      41.899 -11.584  -1.186  1.00  0.00     0.191 HD
HETATM    9  N   UNL     1      41.057 -13.197  -2.096  1.00  0.00    -0.177 NA
HETATM   10  C   UNL     1      40.893 -14.451  -1.654  1.00  0.00     0.068 A 
HETATM   11  C   UNL     1      40.212 -15.442  -2.528  1.00  0.00     0.073 C 
ENDROOT
BRANCH   2  12
HETATM   12  S   UNL     1      43.161 -13.569   3.642  1.00  0.00    -0.082 SA
BRANCH  12  13
HETATM   13  C   UNL     1      41.933 -12.315   4.132  1.00  0.00     0.185 C 
BRANCH  13  14
HETATM   14  C   UNL     1      40.816 -12.882   5.004  1.00  0.00     0.227 C 
HETATM   15  N   UNL     1      39.610 -13.125   4.393  1.00  0.00    -0.360 N 
HETATM   16  H   UNL     1      38.918 -13.560   4.996  1.00  0.00     0.162 HD
HETATM   17  O   UNL     1      40.956 -13.137   6.202  1.00  0.00    -0.273 OA
BRANCH  15  18
HETATM   18  C   UNL     1      39.388 -13.124   2.955  1.00  0.00     0.127 C 
BRANCH  18  19
HETATM   19  C   UNL     1      38.776 -11.829   2.422  1.00  0.00     0.058 C 
BRANCH  19  20
HETATM   20  C   UNL     1      38.313 -12.036   0.998  1.00  0.00    -0.057 A 
HETATM   21  C   UNL     1      37.895 -13.303   0.566  1.00  0.00     0.009 A 
HETATM   22  C   UNL     1      37.579 -13.524  -0.777  1.00  0.00     0.025 A 
HETATM   23  C   UNL     1      37.674 -12.471  -1.691  1.00  0.00     0.074 A 
HETATM   24  C   UNL     1      38.078 -11.202  -1.273  1.00  0.00     0.025 A 
HETATM   25  C   UNL     1      38.392 -10.985   0.070  1.00  0.00     0.009 A 
BRANCH  23  26
HETATM   26  S   UNL     1      37.389 -12.781  -3.411  1.00  0.00     0.239 S 
HETATM   27  O   UNL     1      37.199 -14.199  -3.606  1.00  0.00    -0.206 OA
HETATM   28  O   UNL     1      36.454 -11.799  -3.909  1.00  0.00    -0.206 OA
BRANCH  26  29
HETATM   29  N   UNL     1      38.875 -12.407  -4.090  1.00  0.00    -0.225 NA
HETATM   30  H   UNL     1      38.747 -11.780  -4.886  1.00  0.00     0.136 HD
HETATM   31  H   UNL     1      39.501 -12.032  -3.376  1.00  0.00     0.136 HD
ENDBRANCH  26  29
ENDBRANCH  23  26
ENDBRANCH  19  20
ENDBRANCH  18  19
ENDBRANCH  15  18
ENDBRANCH  13  14
ENDBRANCH  12  13
ENDBRANCH   2  12
BRANCH   1  32
HETATM   32  C   UNL     1      42.272 -16.320   2.782  1.00  0.00     0.051 A 
HETATM   33  C   UNL     1      43.280 -17.294   2.662  1.00  0.00    -0.035 A 
HETATM   34  C   UNL     1      44.299 -17.311   1.558  1.00  0.00     0.050 C 
HETATM   35  C   UNL     1      43.359 -18.267   3.668  1.00  0.00     0.011 A 
HETATM   36  C   UNL     1      42.436 -18.285   4.718  1.00  0.00     0.024 A 
HETATM   37  C   UNL     1      41.430 -17.322   4.789  1.00  0.00     0.036 A 
HETATM   38  C   UNL     1      41.338 -16.326   3.822  1.00  0.00     0.054 A 
HETATM   39 CL   UNL     1      40.287 -17.370   6.068  1.00  0.00    -0.084 Cl
ENDBRANCH   1  32
BRANCH   6  40
HETATM   40  N   UNL     1      41.174 -16.986   0.291  1.00  0.00    -0.384 N 
HETATM   41  H   UNL     1      40.535 -17.149  -0.479  1.00  0.00     0.157 HD
HETATM   42  H   UNL     1      41.731 -17.789   0.553  1.00  0.00     0.157 HD
ENDBRANCH   6  40
TORSDOF 10
ENDMDL
MODEL 8
REMARK VINA RESULT:      -7.1      4.847      9.020
REMARK  10 active torsions:
REMARK  status: ('A' for Active; 'I' for Inactive)
REMARK    1  A    between atoms: C_3  and  N_4 
REMARK    2  A    between atoms: C_5  and  S_6 
REMARK    3  A    between atoms: S_6  and  C_7 
REMARK    4  A    between atoms: C_7  and  C_8 
REMARK       I    between atoms: C_8  and  N_9 
REMARK    5  A    between atoms: N_9  and  C_10 
REMARK    6  A    between atoms: C_10  and  C_11 
REMARK    7  A    between atoms: C_11  and  C_12 
REMARK    8  A    between atoms: C_15  and  S_16 
REMARK    9  A    between atoms: S_16  and  N_17 
REMARK   10  A    between atoms: C_26  and  N_27 
ROOT
HETATM    1  N   UNL     1      40.336 -12.916  -1.891  1.00  0.00    -0.275 N 
HETATM    2  C   UNL     1      40.379 -13.055  -0.535  1.00  0.00     0.177 A 
HETATM    3  N   UNL     1      41.142 -12.310   0.297  1.00  0.00    -0.204 NA
HETATM    4  C   UNL     1      41.764 -11.325  -0.349  1.00  0.00     0.162 A 
HETATM    5  C   UNL     1      41.733 -11.072  -1.704  1.00  0.00     0.081 A 
HETATM    6  C   UNL     1      41.009 -11.930  -2.548  1.00  0.00     0.124 A 
HETATM    7  N   UNL     1      42.552 -10.363   0.216  1.00  0.00    -0.260 N 
HETATM    8  H   UNL     1      42.791 -10.248   1.196  1.00  0.00     0.191 HD
HETATM    9  N   UNL     1      43.035  -9.487  -0.675  1.00  0.00    -0.177 NA
HETATM   10  C   UNL     1      42.537  -9.900  -1.848  1.00  0.00     0.068 A 
HETATM   11  C   UNL     1      42.858  -9.133  -3.080  1.00  0.00     0.073 C 
ENDROOT
BRANCH   2  12
HETATM   12  S   UNL     1      39.400 -14.317   0.304  1.00  0.00    -0.082 SA
BRANCH  12  13
HETATM   13  C   UNL     1      40.673 -15.053   1.379  1.00  0.00     0.185 C 
BRANCH  13  14
HETATM   14  C   UNL     1      40.476 -16.551   1.597  1.00  0.00     0.227 C 
HETATM   15  N   UNL     1      41.445 -17.386   1.095  1.00  0.00    -0.360 N 
HETATM   16  H   UNL     1      41.304 -18.368   1.318  1.00  0.00     0.162 HD
HETATM   17  O   UNL     1      39.513 -17.026   2.201  1.00  0.00    -0.273 OA
BRANCH  15  18
HETATM   18  C   UNL     1      42.745 -16.956   0.604  1.00  0.00     0.127 C 
BRANCH  18  19
HETATM   19  C   UNL     1      43.924 -17.679   1.255  1.00  0.00     0.058 C 
BRANCH  19  20
HETATM   20  C   UNL     1      43.815 -17.574   2.759  1.00  0.00    -0.057 A 
HETATM   21  C   UNL     1      43.843 -18.730   3.554  1.00  0.00     0.009 A 
HETATM   22  C   UNL     1      43.626 -18.645   4.931  1.00  0.00     0.025 A 
HETATM   23  C   UNL     1      43.386 -17.401   5.518  1.00  0.00     0.074 A 
HETATM   24  C   UNL     1      43.366 -16.241   4.740  1.00  0.00     0.025 A 
HETATM   25  C   UNL     1      43.584 -16.329   3.365  1.00  0.00     0.009 A 
BRANCH  23  26
HETATM   26  S   UNL     1      42.992 -17.309   7.242  1.00  0.00     0.239 S 
HETATM   27  O   UNL     1      41.559 -17.213   7.391  1.00  0.00    -0.206 OA
HETATM   28  O   UNL     1      43.779 -18.293   7.950  1.00  0.00    -0.206 OA
BRANCH  26  29
HETATM   29  N   UNL     1      43.612 -15.811   7.669  1.00  0.00    -0.225 NA
HETATM   30  H   UNL     1      42.903 -15.269   8.165  1.00  0.00     0.136 HD
HETATM   31  H   UNL     1      44.477 -15.930   8.199  1.00  0.00     0.136 HD
ENDBRANCH  26  29
ENDBRANCH  23  26
ENDBRANCH  19  20
ENDBRANCH  18  19
ENDBRANCH  15  18
ENDBRANCH  13  14
ENDBRANCH  12  13
ENDBRANCH   2  12
BRANCH   1  32
HETATM   32  C   UNL     1      39.541 -13.827  -2.669  1.00  0.00     0.051 A 
HETATM   33  C   UNL     1      40.092 -15.048  -3.103  1.00  0.00    -0.035 A 
HETATM   34  C   UNL     1      41.467 -15.523  -2.728  1.00  0.00     0.050 C 
HETATM   35  C   UNL     1      39.279 -15.880  -3.885  1.00  0.00     0.011 A 
HETATM   36  C   UNL     1      37.990 -15.480  -4.252  1.00  0.00     0.024 A 
HETATM   37  C   UNL     1      37.487 -14.250  -3.829  1.00  0.00     0.036 A 
HETATM   38  C   UNL     1      38.257 -13.410  -3.030  1.00  0.00     0.054 A 
HETATM   39 CL   UNL     1      35.914 -13.759  -4.308  1.00  0.00    -0.084 Cl
ENDBRANCH   1  32
BRANCH   6  40
HETATM   40  N   UNL     1      40.991 -11.788  -3.930  1.00  0.00    -0.384 N 
HETATM   41  H   UNL     1      40.098 -11.800  -4.413  1.00  0.00     0.157 HD
HETATM   42  H   UNL     1      41.738 -11.334  -4.440  1.00  0.00     0.157 HD
ENDBRANCH   6  40
TORSDOF 10
ENDMDL
MODEL 9
REMARK VINA RESULT:      -7.1      4.176      7.056
REMARK  10 active torsions:
REMARK  status: ('A' for Active; 'I' for Inactive)
REMARK    1  A    between atoms: C_3  and  N_4 
REMARK    2  A    between atoms: C_5  and  S_6 
REMARK    3  A    between atoms: S_6  and  C_7 
REMARK    4  A    between atoms: C_7  and  C_8 
REMARK       I    between atoms: C_8  and  N_9 
REMARK    5  A    between atoms: N_9  and  C_10 
REMARK    6  A    between atoms: C_10  and  C_11 
REMARK    7  A    between atoms: C_11  and  C_12 
REMARK    8  A    between atoms: C_15  and  S_16 
REMARK    9  A    between atoms: S_16  and  N_17 
REMARK   10  A    between atoms: C_26  and  N_27 
ROOT
HETATM    1  N   UNL     1      39.858 -14.052  -0.195  1.00  0.00    -0.275 N 
HETATM    2  C   UNL     1      38.889 -14.012   0.763  1.00  0.00     0.177 A 
HETATM    3  N   UNL     1      38.796 -14.865   1.808  1.00  0.00    -0.204 NA
HETATM    4  C   UNL     1      39.842 -15.688   1.872  1.00  0.00     0.162 A 
HETATM    5  C   UNL     1      40.895 -15.760   0.985  1.00  0.00     0.081 A 
HETATM    6  C   UNL     1      40.904 -14.925  -0.144  1.00  0.00     0.124 A 
HETATM    7  N   UNL     1      40.076 -16.617   2.844  1.00  0.00    -0.260 N 
HETATM    8  H   UNL     1      39.503 -16.832   3.654  1.00  0.00     0.191 HD
HETATM    9  N   UNL     1      41.219 -17.292   2.662  1.00  0.00    -0.177 NA
HETATM   10  C   UNL     1      41.734 -16.775   1.539  1.00  0.00     0.068 A 
HETATM   11  C   UNL     1      43.037 -17.285   1.039  1.00  0.00     0.073 C 
ENDROOT
BRANCH   2  12
HETATM   12  S   UNL     1      37.573 -12.779   0.705  1.00  0.00    -0.082 SA
BRANCH  12  13
HETATM   13  C   UNL     1      38.049 -11.730   2.116  1.00  0.00     0.185 C 
BRANCH  13  14
HETATM   14  C   UNL     1      38.860 -10.506   1.703  1.00  0.00     0.227 C 
HETATM   15  N   UNL     1      40.198 -10.509   2.017  1.00  0.00    -0.360 N 
HETATM   16  H   UNL     1      40.710  -9.704   1.667  1.00  0.00     0.162 HD
HETATM   17  O   UNL     1      38.377  -9.545   1.102  1.00  0.00    -0.273 OA
BRANCH  15  18
HETATM   18  C   UNL     1      40.944 -11.670   2.477  1.00  0.00     0.127 C 
BRANCH  18  19
HETATM   19  C   UNL     1      41.151 -11.715   3.991  1.00  0.00     0.058 C 
BRANCH  19  20
HETATM   20  C   UNL     1      41.643 -13.086   4.395  1.00  0.00    -0.057 A 
HETATM   21  C   UNL     1      40.944 -13.835   5.354  1.00  0.00     0.009 A 
HETATM   22  C   UNL     1      41.459 -15.050   5.814  1.00  0.00     0.025 A 
HETATM   23  C   UNL     1      42.672 -15.522   5.308  1.00  0.00     0.074 A 
HETATM   24  C   UNL     1      43.373 -14.792   4.345  1.00  0.00     0.025 A 
HETATM   25  C   UNL     1      42.855 -13.580   3.887  1.00  0.00     0.009 A 
BRANCH  23  26
HETATM   26  S   UNL     1      43.381 -17.000   5.978  1.00  0.00     0.239 S 
HETATM   27  O   UNL     1      44.664 -16.682   6.559  1.00  0.00    -0.206 OA
HETATM   28  O   UNL     1      42.359 -17.716   6.705  1.00  0.00    -0.206 OA
BRANCH  26  29
HETATM   29  N   UNL     1      43.698 -17.899   4.599  1.00  0.00    -0.225 NA
HETATM   30  H   UNL     1      42.824 -18.243   4.199  1.00  0.00     0.136 HD
HETATM   31  H   UNL     1      44.255 -17.348   3.944  1.00  0.00     0.136 HD
ENDBRANCH  26  29
ENDBRANCH  23  26
ENDBRANCH  19  20
ENDBRANCH  18  19
ENDBRANCH  15  18
ENDBRANCH  13  14
ENDBRANCH  12  13
ENDBRANCH   2  12
BRANCH   1  32
HETATM   32  C   UNL     1      39.798 -13.133  -1.300  1.00  0.00     0.051 A 
HETATM   33  C   UNL     1      39.046 -13.458  -2.445  1.00  0.00    -0.035 A 
HETATM   34  C   UNL     1      38.204 -14.696  -2.568  1.00  0.00     0.050 C 
HETATM   35  C   UNL     1      39.051 -12.538  -3.502  1.00  0.00     0.011 A 
HETATM   36  C   UNL     1      39.815 -11.368  -3.428  1.00  0.00     0.024 A 
HETATM   37  C   UNL     1      40.572 -11.093  -2.290  1.00  0.00     0.036 A 
HETATM   38  C   UNL     1      40.571 -11.972  -1.211  1.00  0.00     0.054 A 
HETATM   39 CL   UNL     1      41.526  -9.668  -2.222  1.00  0.00    -0.084 Cl
ENDBRANCH   1  32
BRANCH   6  40
HETATM   40  N   UNL     1      41.888 -14.991  -1.123  1.00  0.00    -0.384 N 
HETATM   41  H   UNL     1      42.001 -14.208  -1.758  1.00  0.00     0.157 HD
HETATM   42  H   UNL     1      42.705 -15.581  -1.032  1.00  0.00     0.157 HD
ENDBRANCH   6  40
TORSDOF 10
ENDMDL
MODEL 10
REMARK VINA RESULT:      -7.1      3.382      8.496
REMARK  10 active torsions:
REMARK  status: ('A' for Active; 'I' for Inactive)
REMARK    1  A    between atoms: C_3  and  N_4 
REMARK    2  A    between atoms: C_5  and  S_6 
REMARK    3  A    between atoms: S_6  and  C_7 
REMARK    4  A    between atoms: C_7  and  C_8 
REMARK       I    between atoms: C_8  and  N_9 
REMARK    5  A    between atoms: N_9  and  C_10 
REMARK    6  A    between atoms: C_10  and  C_11 
REMARK    7  A    between atoms: C_11  and  C_12 
REMARK    8  A    between atoms: C_15  and  S_16 
REMARK    9  A    between atoms: S_16  and  N_17 
REMARK   10  A    between atoms: C_26  and  N_27 
ROOT
HETATM    1  N   UNL     1      40.789 -12.387   1.772  1.00  0.00    -0.275 N 
HETATM    2  C   UNL     1      40.614 -13.704   1.464  1.00  0.00     0.177 A 
HETATM    3  N   UNL     1      40.999 -14.287   0.306  1.00  0.00    -0.204 NA
HETATM    4  C   UNL     1      41.691 -13.449  -0.466  1.00  0.00     0.162 A 
HETATM    5  C   UNL     1      41.967 -12.123  -0.210  1.00  0.00     0.081 A 
HETATM    6  C   UNL     1      41.463 -11.527   0.958  1.00  0.00     0.124 A 
HETATM    7  N   UNL     1      42.273 -13.753  -1.664  1.00  0.00    -0.260 N 
HETATM    8  H   UNL     1      42.267 -14.641  -2.153  1.00  0.00     0.191 HD
HETATM    9  N   UNL     1      42.921 -12.715  -2.211  1.00  0.00    -0.177 NA
HETATM   10  C   UNL     1      42.752 -11.719  -1.333  1.00  0.00     0.068 A 
HETATM   11  C   UNL     1      43.369 -10.395  -1.614  1.00  0.00     0.073 C 
ENDROOT
BRANCH   2  12
HETATM   12  S   UNL     1      39.797 -14.829   2.612  1.00  0.00    -0.082 SA
BRANCH  12  13
HETATM   13  C   UNL     1      41.223 -15.370   3.608  1.00  0.00     0.185 C 
BRANCH  13  14
HETATM   14  C   UNL     1      40.996 -15.216   5.109  1.00  0.00     0.227 C 
HETATM   15  N   UNL     1      42.038 -15.560   5.936  1.00  0.00    -0.360 N 
HETATM   16  H   UNL     1      41.864 -15.382   6.921  1.00  0.00     0.162 HD
HETATM   17  O   UNL     1      39.945 -14.795   5.595  1.00  0.00    -0.273 OA
BRANCH  15  18
HETATM   18  C   UNL     1      43.402 -15.812   5.498  1.00  0.00     0.127 C 
BRANCH  18  19
HETATM   19  C   UNL     1      44.064 -17.006   6.187  1.00  0.00     0.058 C 
BRANCH  19  20
HETATM   20  C   UNL     1      44.195 -18.149   5.207  1.00  0.00    -0.057 A 
HETATM   21  C   UNL     1      43.517 -18.110   3.979  1.00  0.00     0.009 A 
HETATM   22  C   UNL     1      43.541 -19.213   3.123  1.00  0.00     0.025 A 
HETATM   23  C   UNL     1      44.251 -20.358   3.492  1.00  0.00     0.074 A 
HETATM   24  C   UNL     1      44.939 -20.407   4.706  1.00  0.00     0.025 A 
HETATM   25  C   UNL     1      44.914 -19.302   5.558  1.00  0.00     0.009 A 
BRANCH  23  26
HETATM   26  S   UNL     1      44.182 -21.797   2.462  1.00  0.00     0.239 S 
HETATM   27  O   UNL     1      44.580 -22.948   3.239  1.00  0.00    -0.206 OA
HETATM   28  O   UNL     1      42.955 -21.764   1.702  1.00  0.00    -0.206 OA
BRANCH  26  29
HETATM   29  N   UNL     1      45.423 -21.513   1.371  1.00  0.00    -0.225 NA
HETATM   30  H   UNL     1      46.304 -21.868   1.746  1.00  0.00     0.136 HD
HETATM   31  H   UNL     1      45.182 -21.905   0.459  1.00  0.00     0.136 HD
ENDBRANCH  26  29
ENDBRANCH  23  26
ENDBRANCH  19  20
ENDBRANCH  18  19
ENDBRANCH  15  18
ENDBRANCH  13  14
ENDBRANCH  12  13
ENDBRANCH   2  12
BRANCH   1  32
HETATM   32  C   UNL     1      40.262 -11.875   3.009  1.00  0.00     0.051 A 
HETATM   33  C   UNL     1      38.943 -11.389   3.063  1.00  0.00    -0.035 A 
HETATM   34  C   UNL     1      37.983 -11.447   1.908  1.00  0.00     0.050 C 
HETATM   35  C   UNL     1      38.495 -10.874   4.287  1.00  0.00     0.011 A 
HETATM   36  C   UNL     1      39.352 -10.808   5.390  1.00  0.00     0.024 A 
HETATM   37  C   UNL     1      40.664 -11.271   5.292  1.00  0.00     0.036 A 
HETATM   38  C   UNL     1      41.134 -11.812   4.100  1.00  0.00     0.054 A 
HETATM   39 CL   UNL     1      41.714 -11.160   6.645  1.00  0.00    -0.084 Cl
ENDBRANCH   1  32
BRANCH   6  40
HETATM   40  N   UNL     1      41.632 -10.179   1.249  1.00  0.00    -0.384 N 
HETATM   41  H   UNL     1      40.825  -9.566   1.221  1.00  0.00     0.157 HD
HETATM   42  H   UNL     1      42.401  -9.837   1.812  1.00  0.00     0.157 HD
ENDBRANCH   6  40
TORSDOF 10
ENDMDL
