MODEL 1
REMARK VINA RESULT:      -9.1      0.000      0.000
REMARK  7 active torsions:
REMARK  status: ('A' for Active; 'I' for Inactive)
REMARK       I    between atoms: C_2  and  N_3 
REMARK    1  A    between atoms: N_3  and  C_4 
REMARK    2  A    between atoms: C_6  and  N_7 
REMARK       I    between atoms: N_7  and  C_8 
REMARK       I    between atoms: C_8  and  N_9 
REMARK    3  A    between atoms: N_9  and  C_10 
REMARK    4  A    between atoms: C_10  and  C_11 
REMARK    5  A    between atoms: C_11  and  C_12 
REMARK    6  A    between atoms: N_14  and  C_16 
REMARK    7  A    between atoms: C_16  and  C_17 
ROOT
HETATM    1  N   UNL     1      39.744 -14.817   3.322  1.00  0.00    -0.309 N 
HETATM    2  C   UNL     1      40.295 -14.545   4.534  1.00  0.00     0.320 C 
HETATM    3  N   UNL     1      41.625 -14.268   4.570  1.00  0.00    -0.343 N 
HETATM    4  O   UNL     1      39.583 -14.498   5.535  1.00  0.00    -0.247 OA
HETATM    5  H   UNL     1      38.732 -14.753   3.341  1.00  0.00     0.170 HD
HETATM    6  H   UNL     1      42.042 -13.960   3.699  1.00  0.00     0.164 HD
ENDROOT
BRANCH   3   7
HETATM    7  C   UNL     1      42.393 -14.166   5.791  1.00  0.00     0.125 C 
BRANCH   7   8
HETATM    8  C   UNL     1      43.207 -15.412   6.163  1.00  0.00     0.026 C 
BRANCH   8   9
HETATM    9  C   UNL     1      42.412 -16.677   6.548  1.00  0.00     0.014 C 
HETATM   10  C   UNL     1      42.496 -17.822   5.538  1.00  0.00     0.240 C 
HETATM   11  N   UNL     1      43.636 -18.708   6.013  1.00  0.00    -0.067 N 
HETATM   12  H   UNL     1      43.221 -19.637   6.157  1.00  0.00     0.280 HD
HETATM   13  C   UNL     1      44.095 -18.193   7.350  1.00  0.00     0.235 C 
HETATM   14  C   UNL     1      42.946 -17.324   7.825  1.00  0.00     0.034 C 
BRANCH  11  15
HETATM   15  C   UNL     1      44.746 -18.902   5.013  1.00  0.00     0.273 C 
BRANCH  15  16
HETATM   16  C   UNL     1      44.419 -19.924   3.959  1.00  0.00    -0.033 A 
HETATM   17  C   UNL     1      44.748 -21.276   4.153  1.00  0.00     0.009 A 
HETATM   18  C   UNL     1      44.495 -22.218   3.156  1.00  0.00     0.001 A 
HETATM   19  C   UNL     1      43.905 -21.824   1.957  1.00  0.00     0.000 A 
HETATM   20  C   UNL     1      43.563 -20.488   1.757  1.00  0.00     0.001 A 
HETATM   21  C   UNL     1      43.818 -19.541   2.750  1.00  0.00     0.009 A 
ENDBRANCH  15  16
ENDBRANCH  11  15
ENDBRANCH   8   9
ENDBRANCH   7   8
ENDBRANCH   3   7
BRANCH   1  22
HETATM   22  C   UNL     1      40.288 -15.411   2.165  1.00  0.00     0.038 A 
HETATM   23  C   UNL     1      40.668 -14.696   1.020  1.00  0.00     0.059 A 
HETATM   24  C   UNL     1      41.277 -15.342  -0.063  1.00  0.00     0.036 A 
HETATM   25  C   UNL     1      41.546 -16.711   0.033  1.00  0.00     0.029 A 
HETATM   26  C   UNL     1      41.182 -17.431   1.169  1.00  0.00     0.004 A 
HETATM   27  C   UNL     1      40.555 -16.783   2.230  1.00  0.00     0.029 A 
BRANCH  24  28
HETATM   28  N   UNL     1      41.714 -14.699  -1.235  1.00  0.00    -0.327 N 
HETATM   29  C   UNL     1      41.270 -14.702  -2.523  1.00  0.00     0.218 C 
HETATM   30  C   UNL     1      40.237 -15.686  -2.991  1.00  0.00     0.117 C 
HETATM   31  O   UNL     1      41.769 -13.903  -3.320  1.00  0.00    -0.274 OA
HETATM   32  H   UNL     1      42.527 -14.099  -1.141  1.00  0.00     0.169 HD
ENDBRANCH  24  28
ENDBRANCH   1  22
TORSDOF 7
ENDMDL
MODEL 2
REMARK VINA RESULT:      -8.5      4.554      7.798
REMARK  7 active torsions:
REMARK  status: ('A' for Active; 'I' for Inactive)
REMARK       I    between atoms: C_2  and  N_3 
REMARK    1  A    between atoms: N_3  and  C_4 
REMARK    2  A    between atoms: C_6  and  N_7 
REMARK       I    between atoms: N_7  and  C_8 
REMARK       I    between atoms: C_8  and  N_9 
REMARK    3  A    between atoms: N_9  and  C_10 
REMARK    4  A    between atoms: C_10  and  C_11 
REMARK    5  A    between atoms: C_11  and  C_12 
REMARK    6  A    between atoms: N_14  and  C_16 
REMARK    7  A    between atoms: C_16  and  C_17 
ROOT
HETATM    1  N   UNL     1      44.969 -11.393   9.099  1.00  0.00    -0.309 N 
HETATM    2  C   UNL     1      45.302 -12.456   8.322  1.00  0.00     0.320 C 
HETATM    3  N   UNL     1      44.298 -13.283   7.925  1.00  0.00    -0.343 N 
HETATM    4  O   UNL     1      46.466 -12.606   7.954  1.00  0.00    -0.247 OA
HETATM    5  H   UNL     1      45.707 -10.698   9.130  1.00  0.00     0.170 HD
HETATM    6  H   UNL     1      43.364 -12.893   7.946  1.00  0.00     0.164 HD
ENDROOT
BRANCH   3   7
HETATM    7  C   UNL     1      44.514 -14.557   7.279  1.00  0.00     0.125 C 
BRANCH   7   8
HETATM    8  C   UNL     1      43.344 -15.074   6.433  1.00  0.00     0.026 C 
BRANCH   8   9
HETATM    9  C   UNL     1      42.680 -16.390   6.890  1.00  0.00     0.014 C 
HETATM   10  C   UNL     1      42.270 -17.331   5.757  1.00  0.00     0.240 C 
HETATM   11  N   UNL     1      43.436 -18.287   5.570  1.00  0.00    -0.067 N 
HETATM   12  H   UNL     1      43.048 -19.227   5.713  1.00  0.00     0.280 HD
HETATM   13  C   UNL     1      44.429 -18.024   6.670  1.00  0.00     0.235 C 
HETATM   14  C   UNL     1      43.632 -17.258   7.710  1.00  0.00     0.034 C 
BRANCH  11  15
HETATM   15  C   UNL     1      44.036 -18.292   4.189  1.00  0.00     0.273 C 
BRANCH  15  16
HETATM   16  C   UNL     1      44.191 -19.676   3.618  1.00  0.00    -0.033 A 
HETATM   17  C   UNL     1      43.806 -19.947   2.294  1.00  0.00     0.009 A 
HETATM   18  C   UNL     1      43.897 -21.240   1.779  1.00  0.00     0.001 A 
HETATM   19  C   UNL     1      44.380 -22.275   2.576  1.00  0.00     0.000 A 
HETATM   20  C   UNL     1      44.777 -22.018   3.887  1.00  0.00     0.001 A 
HETATM   21  C   UNL     1      44.683 -20.726   4.409  1.00  0.00     0.009 A 
ENDBRANCH  15  16
ENDBRANCH  11  15
ENDBRANCH   8   9
ENDBRANCH   7   8
ENDBRANCH   3   7
BRANCH   1  22
HETATM   22  C   UNL     1      43.938 -11.219  10.045  1.00  0.00     0.038 A 
HETATM   23  C   UNL     1      42.709 -10.604   9.763  1.00  0.00     0.059 A 
HETATM   24  C   UNL     1      41.698 -10.538  10.729  1.00  0.00     0.036 A 
HETATM   25  C   UNL     1      41.915 -11.140  11.973  1.00  0.00     0.029 A 
HETATM   26  C   UNL     1      43.127 -11.761  12.263  1.00  0.00     0.004 A 
HETATM   27  C   UNL     1      44.134 -11.800  11.302  1.00  0.00     0.029 A 
BRANCH  24  28
HETATM   28  N   UNL     1      40.430  -9.966  10.522  1.00  0.00    -0.327 N 
HETATM   29  C   UNL     1      39.382 -10.284   9.712  1.00  0.00     0.218 C 
HETATM   30  C   UNL     1      39.522 -11.306   8.620  1.00  0.00     0.117 C 
HETATM   31  O   UNL     1      38.317  -9.681   9.862  1.00  0.00    -0.274 OA
HETATM   32  H   UNL     1      40.214  -9.143  11.075  1.00  0.00     0.169 HD
ENDBRANCH  24  28
ENDBRANCH   1  22
TORSDOF 7
ENDMDL
MODEL 3
REMARK VINA RESULT:      -8.5      5.148      8.824
REMARK  7 active torsions:
REMARK  status: ('A' for Active; 'I' for Inactive)
REMARK       I    between atoms: C_2  and  N_3 
REMARK    1  A    between atoms: N_3  and  C_4 
REMARK    2  A    between atoms: C_6  and  N_7 
REMARK       I    between atoms: N_7  and  C_8 
REMARK       I    between atoms: C_8  and  N_9 
REMARK    3  A    between atoms: N_9  and  C_10 
REMARK    4  A    between atoms: C_10  and  C_11 
REMARK    5  A    between atoms: C_11  and  C_12 
REMARK    6  A    between atoms: N_14  and  C_16 
REMARK    7  A    between atoms: C_16  and  C_17 
ROOT
HETATM    1  N   UNL     1      44.677 -11.478   9.138  1.00  0.00    -0.309 N 
HETATM    2  C   UNL     1      45.047 -12.595   8.460  1.00  0.00     0.320 C 
HETATM    3  N   UNL     1      44.071 -13.293   7.820  1.00  0.00    -0.343 N 
HETATM    4  O   UNL     1      46.235 -12.908   8.392  1.00  0.00    -0.247 OA
HETATM    5  H   UNL     1      45.472 -10.886   9.357  1.00  0.00     0.170 HD
HETATM    6  H   UNL     1      43.221 -12.782   7.610  1.00  0.00     0.164 HD
ENDROOT
BRANCH   3   7
HETATM    7  C   UNL     1      44.267 -14.601   7.238  1.00  0.00     0.125 C 
BRANCH   7   8
HETATM    8  C   UNL     1      43.573 -14.834   5.890  1.00  0.00     0.026 C 
BRANCH   8   9
HETATM    9  C   UNL     1      42.372 -15.803   5.881  1.00  0.00     0.014 C 
HETATM   10  C   UNL     1      42.174 -16.570   4.573  1.00  0.00     0.240 C 
HETATM   11  N   UNL     1      42.907 -17.889   4.751  1.00  0.00    -0.067 N 
HETATM   12  H   UNL     1      42.198 -18.619   4.612  1.00  0.00     0.280 HD
HETATM   13  C   UNL     1      43.376 -17.967   6.179  1.00  0.00     0.235 C 
HETATM   14  C   UNL     1      42.536 -16.929   6.901  1.00  0.00     0.034 C 
BRANCH  11  15
HETATM   15  C   UNL     1      43.984 -18.159   3.734  1.00  0.00     0.273 C 
BRANCH  15  16
HETATM   16  C   UNL     1      44.072 -19.608   3.338  1.00  0.00    -0.033 A 
HETATM   17  C   UNL     1      44.708 -20.537   4.179  1.00  0.00     0.009 A 
HETATM   18  C   UNL     1      44.840 -21.871   3.792  1.00  0.00     0.001 A 
HETATM   19  C   UNL     1      44.332 -22.294   2.566  1.00  0.00     0.000 A 
HETATM   20  C   UNL     1      43.689 -21.386   1.728  1.00  0.00     0.001 A 
HETATM   21  C   UNL     1      43.558 -20.048   2.109  1.00  0.00     0.009 A 
ENDBRANCH  15  16
ENDBRANCH  11  15
ENDBRANCH   8   9
ENDBRANCH   7   8
ENDBRANCH   3   7
BRANCH   1  22
HETATM   22  C   UNL     1      43.478 -11.145   9.798  1.00  0.00     0.038 A 
HETATM   23  C   UNL     1      43.292 -11.240  11.186  1.00  0.00     0.059 A 
HETATM   24  C   UNL     1      42.100 -10.815  11.784  1.00  0.00     0.036 A 
HETATM   25  C   UNL     1      41.107 -10.246  10.979  1.00  0.00     0.029 A 
HETATM   26  C   UNL     1      41.283 -10.137   9.601  1.00  0.00     0.004 A 
HETATM   27  C   UNL     1      42.463 -10.585   9.014  1.00  0.00     0.029 A 
BRANCH  24  28
HETATM   28  N   UNL     1      41.842 -10.849  13.166  1.00  0.00    -0.327 N 
HETATM   29  C   UNL     1      42.175 -10.027  14.199  1.00  0.00     0.218 C 
HETATM   30  C   UNL     1      43.179  -8.923  14.027  1.00  0.00     0.117 C 
HETATM   31  O   UNL     1      41.666 -10.233  15.304  1.00  0.00    -0.274 OA
HETATM   32  H   UNL     1      41.295 -11.637  13.501  1.00  0.00     0.169 HD
ENDBRANCH  24  28
ENDBRANCH   1  22
TORSDOF 7
ENDMDL
MODEL 4
REMARK VINA RESULT:      -8.3      3.813      7.039
REMARK  7 active torsions:
REMARK  status: ('A' for Active; 'I' for Inactive)
REMARK       I    between atoms: C_2  and  N_3 
REMARK    1  A    between atoms: N_3  and  C_4 
REMARK    2  A    between atoms: C_6  and  N_7 
REMARK       I    between atoms: N_7  and  C_8 
REMARK       I    between atoms: C_8  and  N_9 
REMARK    3  A    between atoms: N_9  and  C_10 
REMARK    4  A    between atoms: C_10  and  C_11 
REMARK    5  A    between atoms: C_11  and  C_12 
REMARK    6  A    between atoms: N_14  and  C_16 
REMARK    7  A    between atoms: C_16  and  C_17 
ROOT
HETATM    1  N   UNL     1      39.614 -11.136   7.404  1.00  0.00    -0.309 N 
HETATM    2  C   UNL     1      39.590 -12.022   6.374  1.00  0.00     0.320 C 
HETATM    3  N   UNL     1      39.942 -13.307   6.644  1.00  0.00    -0.343 N 
HETATM    4  O   UNL     1      39.201 -11.663   5.264  1.00  0.00    -0.247 OA
HETATM    5  H   UNL     1      39.099 -10.289   7.189  1.00  0.00     0.170 HD
HETATM    6  H   UNL     1      39.877 -13.594   7.613  1.00  0.00     0.164 HD
ENDROOT
BRANCH   3   7
HETATM    7  C   UNL     1      40.167 -14.309   5.627  1.00  0.00     0.125 C 
BRANCH   7   8
HETATM    8  C   UNL     1      41.549 -14.974   5.650  1.00  0.00     0.026 C 
BRANCH   8   9
HETATM    9  C   UNL     1      41.682 -16.281   6.460  1.00  0.00     0.014 C 
HETATM   10  C   UNL     1      41.705 -17.558   5.619  1.00  0.00     0.240 C 
HETATM   11  N   UNL     1      43.173 -17.865   5.373  1.00  0.00    -0.067 N 
HETATM   12  H   UNL     1      43.326 -18.806   5.757  1.00  0.00     0.280 HD
HETATM   13  C   UNL     1      43.989 -16.896   6.185  1.00  0.00     0.235 C 
HETATM   14  C   UNL     1      43.010 -16.358   7.211  1.00  0.00     0.034 C 
BRANCH  11  15
HETATM   15  C   UNL     1      43.570 -17.941   3.922  1.00  0.00     0.273 C 
BRANCH  15  16
HETATM   16  C   UNL     1      43.813 -19.348   3.450  1.00  0.00    -0.033 A 
HETATM   17  C   UNL     1      44.535 -20.252   4.248  1.00  0.00     0.009 A 
HETATM   18  C   UNL     1      44.809 -21.541   3.790  1.00  0.00     0.001 A 
HETATM   19  C   UNL     1      44.360 -21.945   2.535  1.00  0.00     0.000 A 
HETATM   20  C   UNL     1      43.632 -21.064   1.739  1.00  0.00     0.001 A 
HETATM   21  C   UNL     1      43.359 -19.771   2.191  1.00  0.00     0.009 A 
ENDBRANCH  15  16
ENDBRANCH  11  15
ENDBRANCH   8   9
ENDBRANCH   7   8
ENDBRANCH   3   7
BRANCH   1  22
HETATM   22  C   UNL     1      40.418 -11.075   8.560  1.00  0.00     0.038 A 
HETATM   23  C   UNL     1      41.807 -10.875   8.540  1.00  0.00     0.059 A 
HETATM   24  C   UNL     1      42.532 -10.744   9.730  1.00  0.00     0.036 A 
HETATM   25  C   UNL     1      41.842 -10.768  10.947  1.00  0.00     0.029 A 
HETATM   26  C   UNL     1      40.462 -10.957  10.979  1.00  0.00     0.004 A 
HETATM   27  C   UNL     1      39.754 -11.110   9.790  1.00  0.00     0.029 A 
BRANCH  24  28
HETATM   28  N   UNL     1      43.918 -10.514   9.802  1.00  0.00    -0.327 N 
HETATM   29  C   UNL     1      45.004 -11.199   9.345  1.00  0.00     0.218 C 
HETATM   30  C   UNL     1      44.877 -12.595   8.806  1.00  0.00     0.117 C 
HETATM   31  O   UNL     1      46.113 -10.665   9.423  1.00  0.00    -0.274 OA
HETATM   32  H   UNL     1      44.208  -9.672  10.288  1.00  0.00     0.169 HD
ENDBRANCH  24  28
ENDBRANCH   1  22
TORSDOF 7
ENDMDL
MODEL 5
REMARK VINA RESULT:      -8.3      4.246      8.321
REMARK  7 active torsions:
REMARK  status: ('A' for Active; 'I' for Inactive)
REMARK       I    between atoms: C_2  and  N_3 
REMARK    1  A    between atoms: N_3  and  C_4 
REMARK    2  A    between atoms: C_6  and  N_7 
REMARK       I    between atoms: N_7  and  C_8 
REMARK       I    between atoms: C_8  and  N_9 
REMARK    3  A    between atoms: N_9  and  C_10 
REMARK    4  A    between atoms: C_10  and  C_11 
REMARK    5  A    between atoms: C_11  and  C_12 
REMARK    6  A    between atoms: N_14  and  C_16 
REMARK    7  A    between atoms: C_16  and  C_17 
ROOT
HETATM    1  N   UNL     1      45.187 -13.581   7.878  1.00  0.00    -0.309 N 
HETATM    2  C   UNL     1      44.343 -14.131   6.966  1.00  0.00     0.320 C 
HETATM    3  N   UNL     1      43.322 -13.358   6.509  1.00  0.00    -0.343 N 
HETATM    4  O   UNL     1      44.554 -15.266   6.541  1.00  0.00    -0.247 OA
HETATM    5  H   UNL     1      46.048 -14.109   7.966  1.00  0.00     0.170 HD
HETATM    6  H   UNL     1      43.440 -12.357   6.610  1.00  0.00     0.164 HD
ENDROOT
BRANCH   3   7
HETATM    7  C   UNL     1      42.231 -13.860   5.706  1.00  0.00     0.125 C 
BRANCH   7   8
HETATM    8  C   UNL     1      41.969 -13.100   4.400  1.00  0.00     0.026 C 
BRANCH   8   9
HETATM    9  C   UNL     1      42.873 -13.446   3.197  1.00  0.00     0.014 C 
HETATM   10  C   UNL     1      43.477 -14.850   3.229  1.00  0.00     0.240 C 
HETATM   11  N   UNL     1      42.524 -15.728   2.435  1.00  0.00    -0.067 N 
HETATM   12  H   UNL     1      43.088 -16.131   1.677  1.00  0.00     0.280 HD
HETATM   13  C   UNL     1      41.484 -14.836   1.814  1.00  0.00     0.235 C 
HETATM   14  C   UNL     1      42.098 -13.451   1.880  1.00  0.00     0.034 C 
BRANCH  11  15
HETATM   15  C   UNL     1      41.957 -16.898   3.196  1.00  0.00     0.273 C 
BRANCH  15  16
HETATM   16  C   UNL     1      42.834 -18.120   3.139  1.00  0.00    -0.033 A 
HETATM   17  C   UNL     1      42.852 -18.929   1.991  1.00  0.00     0.009 A 
HETATM   18  C   UNL     1      43.622 -20.092   1.955  1.00  0.00     0.001 A 
HETATM   19  C   UNL     1      44.389 -20.455   3.059  1.00  0.00     0.000 A 
HETATM   20  C   UNL     1      44.390 -19.654   4.199  1.00  0.00     0.001 A 
HETATM   21  C   UNL     1      43.617 -18.492   4.243  1.00  0.00     0.009 A 
ENDBRANCH  15  16
ENDBRANCH  11  15
ENDBRANCH   8   9
ENDBRANCH   7   8
ENDBRANCH   3   7
BRANCH   1  22
HETATM   22  C   UNL     1      44.972 -12.606   8.874  1.00  0.00     0.038 A 
HETATM   23  C   UNL     1      43.949 -12.674   9.831  1.00  0.00     0.059 A 
HETATM   24  C   UNL     1      43.844 -11.712  10.843  1.00  0.00     0.036 A 
HETATM   25  C   UNL     1      44.809 -10.701  10.914  1.00  0.00     0.029 A 
HETATM   26  C   UNL     1      45.836 -10.629   9.975  1.00  0.00     0.004 A 
HETATM   27  C   UNL     1      45.916 -11.577   8.959  1.00  0.00     0.029 A 
BRANCH  24  28
HETATM   28  N   UNL     1      42.869 -11.719  11.856  1.00  0.00    -0.327 N 
HETATM   29  C   UNL     1      41.562 -11.337  11.898  1.00  0.00     0.218 C 
HETATM   30  C   UNL     1      40.941 -10.552  10.778  1.00  0.00     0.117 C 
HETATM   31  O   UNL     1      40.901 -11.610  12.903  1.00  0.00    -0.274 OA
HETATM   32  H   UNL     1      43.164 -12.077  12.759  1.00  0.00     0.169 HD
ENDBRANCH  24  28
ENDBRANCH   1  22
TORSDOF 7
ENDMDL
MODEL 6
REMARK VINA RESULT:      -8.2      4.397      7.827
REMARK  7 active torsions:
REMARK  status: ('A' for Active; 'I' for Inactive)
REMARK       I    between atoms: C_2  and  N_3 
REMARK    1  A    between atoms: N_3  and  C_4 
REMARK    2  A    between atoms: C_6  and  N_7 
REMARK       I    between atoms: N_7  and  C_8 
REMARK       I    between atoms: C_8  and  N_9 
REMARK    3  A    between atoms: N_9  and  C_10 
REMARK    4  A    between atoms: C_10  and  C_11 
REMARK    5  A    between atoms: C_11  and  C_12 
REMARK    6  A    between atoms: N_14  and  C_16 
REMARK    7  A    between atoms: C_16  and  C_17 
ROOT
HETATM    1  N   UNL     1      39.988 -10.341   9.359  1.00  0.00    -0.309 N 
HETATM    2  C   UNL     1      39.498 -10.746   8.159  1.00  0.00     0.320 C 
HETATM    3  N   UNL     1      39.814 -12.001   7.743  1.00  0.00    -0.343 N 
HETATM    4  O   UNL     1      38.748 -10.008   7.521  1.00  0.00    -0.247 OA
HETATM    5  H   UNL     1      39.505  -9.520   9.710  1.00  0.00     0.170 HD
HETATM    6  H   UNL     1      40.099 -12.652   8.465  1.00  0.00     0.164 HD
ENDROOT
BRANCH   3   7
HETATM    7  C   UNL     1      39.548 -12.499   6.413  1.00  0.00     0.125 C 
BRANCH   7   8
HETATM    8  C   UNL     1      40.255 -13.809   6.045  1.00  0.00     0.026 C 
BRANCH   8   9
HETATM    9  C   UNL     1      41.707 -13.700   5.534  1.00  0.00     0.014 C 
HETATM   10  C   UNL     1      42.520 -14.992   5.627  1.00  0.00     0.240 C 
HETATM   11  N   UNL     1      42.370 -15.673   4.277  1.00  0.00    -0.067 N 
HETATM   12  H   UNL     1      43.325 -15.781   3.915  1.00  0.00     0.280 HD
HETATM   13  C   UNL     1      41.632 -14.731   3.364  1.00  0.00     0.235 C 
HETATM   14  C   UNL     1      41.767 -13.380   4.042  1.00  0.00     0.034 C 
BRANCH  11  15
HETATM   15  C   UNL     1      41.788 -17.061   4.329  1.00  0.00     0.273 C 
BRANCH  15  16
HETATM   16  C   UNL     1      42.726 -18.114   3.802  1.00  0.00    -0.033 A 
HETATM   17  C   UNL     1      42.724 -18.449   2.437  1.00  0.00     0.009 A 
HETATM   18  C   UNL     1      43.552 -19.462   1.954  1.00  0.00     0.001 A 
HETATM   19  C   UNL     1      44.398 -20.145   2.824  1.00  0.00     0.000 A 
HETATM   20  C   UNL     1      44.419 -19.814   4.178  1.00  0.00     0.001 A 
HETATM   21  C   UNL     1      43.588 -18.805   4.667  1.00  0.00     0.009 A 
ENDBRANCH  15  16
ENDBRANCH  11  15
ENDBRANCH   8   9
ENDBRANCH   7   8
ENDBRANCH   3   7
BRANCH   1  22
HETATM   22  C   UNL     1      41.175 -10.679  10.041  1.00  0.00     0.038 A 
HETATM   23  C   UNL     1      42.461 -10.526   9.503  1.00  0.00     0.059 A 
HETATM   24  C   UNL     1      43.600 -10.807  10.267  1.00  0.00     0.036 A 
HETATM   25  C   UNL     1      43.437 -11.199  11.600  1.00  0.00     0.029 A 
HETATM   26  C   UNL     1      42.165 -11.345  12.150  1.00  0.00     0.004 A 
HETATM   27  C   UNL     1      41.039 -11.086  11.372  1.00  0.00     0.029 A 
BRANCH  24  28
HETATM   28  N   UNL     1      44.923 -10.655   9.817  1.00  0.00    -0.327 N 
HETATM   29  C   UNL     1      45.712 -11.378   8.973  1.00  0.00     0.218 C 
HETATM   30  C   UNL     1      45.301 -12.741   8.495  1.00  0.00     0.117 C 
HETATM   31  O   UNL     1      46.802 -10.908   8.638  1.00  0.00    -0.274 OA
HETATM   32  H   UNL     1      45.429  -9.850  10.173  1.00  0.00     0.169 HD
ENDBRANCH  24  28
ENDBRANCH   1  22
TORSDOF 7
ENDMDL
MODEL 7
REMARK VINA RESULT:      -8.0      1.836      2.507
REMARK  7 active torsions:
REMARK  status: ('A' for Active; 'I' for Inactive)
REMARK       I    between atoms: C_2  and  N_3 
REMARK    1  A    between atoms: N_3  and  C_4 
REMARK    2  A    between atoms: C_6  and  N_7 
REMARK       I    between atoms: N_7  and  C_8 
REMARK       I    between atoms: C_8  and  N_9 
REMARK    3  A    between atoms: N_9  and  C_10 
REMARK    4  A    between atoms: C_10  and  C_11 
REMARK    5  A    between atoms: C_11  and  C_12 
REMARK    6  A    between atoms: N_14  and  C_16 
REMARK    7  A    between atoms: C_16  and  C_17 
ROOT
HETATM    1  N   UNL     1      41.306 -12.482   3.557  1.00  0.00    -0.309 N 
HETATM    2  C   UNL     1      41.907 -12.554   4.773  1.00  0.00     0.320 C 
HETATM    3  N   UNL     1      42.793 -13.565   4.977  1.00  0.00    -0.343 N 
HETATM    4  O   UNL     1      41.687 -11.689   5.619  1.00  0.00    -0.247 OA
HETATM    5  H   UNL     1      40.876 -11.577   3.398  1.00  0.00     0.170 HD
HETATM    6  H   UNL     1      43.191 -13.984   4.145  1.00  0.00     0.164 HD
ENDROOT
BRANCH   3   7
HETATM    7  C   UNL     1      43.350 -13.898   6.268  1.00  0.00     0.125 C 
BRANCH   7   8
HETATM    8  C   UNL     1      44.282 -15.117   6.289  1.00  0.00     0.026 C 
BRANCH   8   9
HETATM    9  C   UNL     1      43.898 -16.272   7.237  1.00  0.00     0.014 C 
HETATM   10  C   UNL     1      42.474 -16.801   7.063  1.00  0.00     0.240 C 
HETATM   11  N   UNL     1      42.582 -17.971   6.099  1.00  0.00    -0.067 N 
HETATM   12  H   UNL     1      42.201 -18.780   6.604  1.00  0.00     0.280 HD
HETATM   13  C   UNL     1      44.043 -18.228   5.847  1.00  0.00     0.235 C 
HETATM   14  C   UNL     1      44.745 -17.520   6.991  1.00  0.00     0.034 C 
BRANCH  11  15
HETATM   15  C   UNL     1      41.755 -17.839   4.847  1.00  0.00     0.273 C 
BRANCH  15  16
HETATM   16  C   UNL     1      42.589 -17.747   3.597  1.00  0.00    -0.033 A 
HETATM   17  C   UNL     1      43.179 -16.528   3.224  1.00  0.00     0.009 A 
HETATM   18  C   UNL     1      43.907 -16.426   2.039  1.00  0.00     0.001 A 
HETATM   19  C   UNL     1      44.060 -17.539   1.216  1.00  0.00     0.000 A 
HETATM   20  C   UNL     1      43.490 -18.757   1.580  1.00  0.00     0.001 A 
HETATM   21  C   UNL     1      42.756 -18.864   2.764  1.00  0.00     0.009 A 
ENDBRANCH  15  16
ENDBRANCH  11  15
ENDBRANCH   8   9
ENDBRANCH   7   8
ENDBRANCH   3   7
BRANCH   1  22
HETATM   22  C   UNL     1      40.955 -13.486   2.632  1.00  0.00     0.038 A 
HETATM   23  C   UNL     1      41.464 -13.564   1.327  1.00  0.00     0.059 A 
HETATM   24  C   UNL     1      41.134 -14.635   0.489  1.00  0.00     0.036 A 
HETATM   25  C   UNL     1      40.322 -15.658   0.989  1.00  0.00     0.029 A 
HETATM   26  C   UNL     1      39.818 -15.597   2.287  1.00  0.00     0.004 A 
HETATM   27  C   UNL     1      40.133 -14.515   3.104  1.00  0.00     0.029 A 
BRANCH  24  28
HETATM   28  N   UNL     1      41.620 -14.806  -0.820  1.00  0.00    -0.327 N 
HETATM   29  C   UNL     1      41.100 -14.544  -2.052  1.00  0.00     0.218 C 
HETATM   30  C   UNL     1      39.654 -14.179  -2.228  1.00  0.00     0.117 C 
HETATM   31  O   UNL     1      41.833 -14.657  -3.037  1.00  0.00    -0.274 OA
HETATM   32  H   UNL     1      42.550 -15.205  -0.905  1.00  0.00     0.169 HD
ENDBRANCH  24  28
ENDBRANCH   1  22
TORSDOF 7
ENDMDL
MODEL 8
REMARK VINA RESULT:      -7.9      4.754      8.643
REMARK  7 active torsions:
REMARK  status: ('A' for Active; 'I' for Inactive)
REMARK       I    between atoms: C_2  and  N_3 
REMARK    1  A    between atoms: N_3  and  C_4 
REMARK    2  A    between atoms: C_6  and  N_7 
REMARK       I    between atoms: N_7  and  C_8 
REMARK       I    between atoms: C_8  and  N_9 
REMARK    3  A    between atoms: N_9  and  C_10 
REMARK    4  A    between atoms: C_10  and  C_11 
REMARK    5  A    between atoms: C_11  and  C_12 
REMARK    6  A    between atoms: N_14  and  C_16 
REMARK    7  A    between atoms: C_16  and  C_17 
ROOT
HETATM    1  N   UNL     1      42.027 -10.221   7.833  1.00  0.00    -0.309 N 
HETATM    2  C   UNL     1      41.422 -10.859   6.798  1.00  0.00     0.320 C 
HETATM    3  N   UNL     1      40.738 -12.000   7.078  1.00  0.00    -0.343 N 
HETATM    4  O   UNL     1      41.455 -10.369   5.670  1.00  0.00    -0.247 OA
HETATM    5  H   UNL     1      42.282  -9.268   7.595  1.00  0.00     0.170 HD
HETATM    6  H   UNL     1      40.446 -12.121   8.040  1.00  0.00     0.164 HD
ENDROOT
BRANCH   3   7
HETATM    7  C   UNL     1      40.223 -12.897   6.068  1.00  0.00     0.125 C 
BRANCH   7   8
HETATM    8  C   UNL     1      41.034 -14.181   5.851  1.00  0.00     0.026 C 
BRANCH   8   9
HETATM    9  C   UNL     1      42.167 -14.122   4.804  1.00  0.00     0.014 C 
HETATM   10  C   UNL     1      43.014 -15.391   4.701  1.00  0.00     0.240 C 
HETATM   11  N   UNL     1      42.385 -16.219   3.594  1.00  0.00    -0.067 N 
HETATM   12  H   UNL     1      43.128 -16.362   2.900  1.00  0.00     0.280 HD
HETATM   13  C   UNL     1      41.306 -15.389   2.952  1.00  0.00     0.235 C 
HETATM   14  C   UNL     1      41.628 -13.970   3.383  1.00  0.00     0.034 C 
BRANCH  11  15
HETATM   15  C   UNL     1      41.936 -17.596   4.009  1.00  0.00     0.273 C 
BRANCH  15  16
HETATM   16  C   UNL     1      42.892 -18.680   3.587  1.00  0.00    -0.033 A 
HETATM   17  C   UNL     1      43.844 -19.180   4.490  1.00  0.00     0.009 A 
HETATM   18  C   UNL     1      44.767 -20.145   4.087  1.00  0.00     0.001 A 
HETATM   19  C   UNL     1      44.745 -20.628   2.781  1.00  0.00     0.000 A 
HETATM   20  C   UNL     1      43.798 -20.149   1.878  1.00  0.00     0.001 A 
HETATM   21  C   UNL     1      42.875 -19.179   2.275  1.00  0.00     0.009 A 
ENDBRANCH  15  16
ENDBRANCH  11  15
ENDBRANCH   8   9
ENDBRANCH   7   8
ENDBRANCH   3   7
BRANCH   1  22
HETATM   22  C   UNL     1      42.583 -10.712   9.031  1.00  0.00     0.038 A 
HETATM   23  C   UNL     1      41.984 -10.566  10.292  1.00  0.00     0.059 A 
HETATM   24  C   UNL     1      42.552 -11.150  11.431  1.00  0.00     0.036 A 
HETATM   25  C   UNL     1      43.706 -11.927  11.285  1.00  0.00     0.029 A 
HETATM   26  C   UNL     1      44.305 -12.087  10.038  1.00  0.00     0.004 A 
HETATM   27  C   UNL     1      43.745 -11.481   8.916  1.00  0.00     0.029 A 
BRANCH  24  28
HETATM   28  N   UNL     1      42.005 -11.078  12.724  1.00  0.00    -0.327 N 
HETATM   29  C   UNL     1      42.221 -10.251  13.785  1.00  0.00     0.218 C 
HETATM   30  C   UNL     1      43.380  -9.295  13.808  1.00  0.00     0.117 C 
HETATM   31  O   UNL     1      41.467 -10.332  14.758  1.00  0.00    -0.274 OA
HETATM   32  H   UNL     1      41.298 -11.770  12.952  1.00  0.00     0.169 HD
ENDBRANCH  24  28
ENDBRANCH   1  22
TORSDOF 7
ENDMDL
MODEL 9
REMARK VINA RESULT:      -7.9      2.807      4.130
REMARK  7 active torsions:
REMARK  status: ('A' for Active; 'I' for Inactive)
REMARK       I    between atoms: C_2  and  N_3 
REMARK    1  A    between atoms: N_3  and  C_4 
REMARK    2  A    between atoms: C_6  and  N_7 
REMARK       I    between atoms: N_7  and  C_8 
REMARK       I    between atoms: C_8  and  N_9 
REMARK    3  A    between atoms: N_9  and  C_10 
REMARK    4  A    between atoms: C_10  and  C_11 
REMARK    5  A    between atoms: C_11  and  C_12 
REMARK    6  A    between atoms: N_14  and  C_16 
REMARK    7  A    between atoms: C_16  and  C_17 
ROOT
HETATM    1  N   UNL     1      41.741 -15.353  -0.854  1.00  0.00    -0.309 N 
HETATM    2  C   UNL     1      41.534 -16.128   0.243  1.00  0.00     0.320 C 
HETATM    3  N   UNL     1      40.405 -15.904   0.966  1.00  0.00    -0.343 N 
HETATM    4  O   UNL     1      42.324 -17.032   0.513  1.00  0.00    -0.247 OA
HETATM    5  H   UNL     1      42.444 -15.746  -1.471  1.00  0.00     0.170 HD
HETATM    6  H   UNL     1      39.652 -15.430   0.483  1.00  0.00     0.164 HD
ENDROOT
BRANCH   3   7
HETATM    7  C   UNL     1      40.149 -16.495   2.260  1.00  0.00     0.125 C 
BRANCH   7   8
HETATM    8  C   UNL     1      40.698 -15.715   3.461  1.00  0.00     0.026 C 
BRANCH   8   9
HETATM    9  C   UNL     1      41.009 -16.525   4.737  1.00  0.00     0.014 C 
HETATM   10  C   UNL     1      41.668 -17.883   4.492  1.00  0.00     0.240 C 
HETATM   11  N   UNL     1      43.165 -17.641   4.593  1.00  0.00    -0.067 N 
HETATM   12  H   UNL     1      43.496 -18.264   5.339  1.00  0.00     0.280 HD
HETATM   13  C   UNL     1      43.373 -16.222   5.049  1.00  0.00     0.235 C 
HETATM   14  C   UNL     1      42.030 -15.820   5.630  1.00  0.00     0.034 C 
BRANCH  11  15
HETATM   15  C   UNL     1      43.951 -18.013   3.363  1.00  0.00     0.273 C 
BRANCH  15  16
HETATM   16  C   UNL     1      44.147 -19.498   3.216  1.00  0.00    -0.033 A 
HETATM   17  C   UNL     1      43.743 -20.155   2.042  1.00  0.00     0.009 A 
HETATM   18  C   UNL     1      43.873 -21.539   1.923  1.00  0.00     0.001 A 
HETATM   19  C   UNL     1      44.415 -22.281   2.970  1.00  0.00     0.000 A 
HETATM   20  C   UNL     1      44.832 -21.640   4.134  1.00  0.00     0.001 A 
HETATM   21  C   UNL     1      44.699 -20.255   4.260  1.00  0.00     0.009 A 
ENDBRANCH  15  16
ENDBRANCH  11  15
ENDBRANCH   8   9
ENDBRANCH   7   8
ENDBRANCH   3   7
BRANCH   1  22
HETATM   22  C   UNL     1      41.365 -14.024  -1.137  1.00  0.00     0.038 A 
HETATM   23  C   UNL     1      41.789 -12.913  -0.394  1.00  0.00     0.059 A 
HETATM   24  C   UNL     1      41.442 -11.613  -0.781  1.00  0.00     0.036 A 
HETATM   25  C   UNL     1      40.702 -11.434  -1.955  1.00  0.00     0.029 A 
HETATM   26  C   UNL     1      40.282 -12.529  -2.706  1.00  0.00     0.004 A 
HETATM   27  C   UNL     1      40.612 -13.819  -2.298  1.00  0.00     0.029 A 
BRANCH  24  28
HETATM   28  N   UNL     1      41.847 -10.444  -0.112  1.00  0.00    -0.327 N 
HETATM   29  C   UNL     1      42.834  -9.532  -0.338  1.00  0.00     0.218 C 
HETATM   30  C   UNL     1      43.914  -9.784  -1.350  1.00  0.00     0.117 C 
HETATM   31  O   UNL     1      42.851  -8.503   0.342  1.00  0.00    -0.274 OA
HETATM   32  H   UNL     1      41.316 -10.195   0.716  1.00  0.00     0.169 HD
ENDBRANCH  24  28
ENDBRANCH   1  22
TORSDOF 7
ENDMDL
MODEL 10
REMARK VINA RESULT:      -7.8      2.636      6.730
REMARK  7 active torsions:
REMARK  status: ('A' for Active; 'I' for Inactive)
REMARK       I    between atoms: C_2  and  N_3 
REMARK    1  A    between atoms: N_3  and  C_4 
REMARK    2  A    between atoms: C_6  and  N_7 
REMARK       I    between atoms: N_7  and  C_8 
REMARK       I    between atoms: C_8  and  N_9 
REMARK    3  A    between atoms: N_9  and  C_10 
REMARK    4  A    between atoms: C_10  and  C_11 
REMARK    5  A    between atoms: C_11  and  C_12 
REMARK    6  A    between atoms: N_14  and  C_16 
REMARK    7  A    between atoms: C_16  and  C_17 
ROOT
HETATM    1  N   UNL     1      41.953 -16.803   5.370  1.00  0.00    -0.309 N 
HETATM    2  C   UNL     1      41.931 -15.474   5.088  1.00  0.00     0.320 C 
HETATM    3  N   UNL     1      42.678 -15.043   4.037  1.00  0.00    -0.343 N 
HETATM    4  O   UNL     1      41.206 -14.721   5.736  1.00  0.00    -0.247 OA
HETATM    5  H   UNL     1      41.188 -17.075   5.978  1.00  0.00     0.170 HD
HETATM    6  H   UNL     1      42.928 -15.743   3.349  1.00  0.00     0.164 HD
ENDROOT
BRANCH   3   7
HETATM    7  C   UNL     1      42.924 -13.649   3.743  1.00  0.00     0.125 C 
BRANCH   7   8
HETATM    8  C   UNL     1      42.361 -13.148   2.407  1.00  0.00     0.026 C 
BRANCH   8   9
HETATM    9  C   UNL     1      41.445 -11.907   2.457  1.00  0.00     0.014 C 
HETATM   10  C   UNL     1      40.397 -11.837   1.346  1.00  0.00     0.240 C 
HETATM   11  N   UNL     1      39.140 -12.468   1.922  1.00  0.00    -0.067 N 
HETATM   12  H   UNL     1      38.414 -11.744   1.859  1.00  0.00     0.280 HD
HETATM   13  C   UNL     1      39.390 -12.746   3.380  1.00  0.00     0.235 C 
HETATM   14  C   UNL     1      40.587 -11.878   3.721  1.00  0.00     0.034 C 
BRANCH  11  15
HETATM   15  C   UNL     1      38.614 -13.650   1.151  1.00  0.00     0.273 C 
BRANCH  15  16
HETATM   16  C   UNL     1      39.608 -14.775   1.046  1.00  0.00    -0.033 A 
HETATM   17  C   UNL     1      40.468 -14.863  -0.062  1.00  0.00     0.009 A 
HETATM   18  C   UNL     1      41.353 -15.933  -0.191  1.00  0.00     0.001 A 
HETATM   19  C   UNL     1      41.396 -16.924   0.788  1.00  0.00     0.000 A 
HETATM   20  C   UNL     1      40.557 -16.843   1.897  1.00  0.00     0.001 A 
HETATM   21  C   UNL     1      39.666 -15.776   2.028  1.00  0.00     0.009 A 
ENDBRANCH  15  16
ENDBRANCH  11  15
ENDBRANCH   8   9
ENDBRANCH   7   8
ENDBRANCH   3   7
BRANCH   1  22
HETATM   22  C   UNL     1      42.960 -17.774   5.196  1.00  0.00     0.038 A 
HETATM   23  C   UNL     1      43.037 -18.636   4.092  1.00  0.00     0.059 A 
HETATM   24  C   UNL     1      44.110 -19.522   3.944  1.00  0.00     0.036 A 
HETATM   25  C   UNL     1      45.136 -19.502   4.894  1.00  0.00     0.029 A 
HETATM   26  C   UNL     1      45.076 -18.644   5.990  1.00  0.00     0.004 A 
HETATM   27  C   UNL     1      43.992 -17.784   6.139  1.00  0.00     0.029 A 
BRANCH  24  28
HETATM   28  N   UNL     1      44.280 -20.399   2.857  1.00  0.00    -0.327 N 
HETATM   29  C   UNL     1      44.388 -21.754   2.757  1.00  0.00     0.218 C 
HETATM   30  C   UNL     1      44.578 -22.614   3.974  1.00  0.00     0.117 C 
HETATM   31  O   UNL     1      44.373 -22.264   1.635  1.00  0.00    -0.274 OA
HETATM   32  H   UNL     1      44.338 -19.970   1.939  1.00  0.00     0.169 HD
ENDBRANCH  24  28
ENDBRANCH   1  22
TORSDOF 7
ENDMDL
