MODEL 1
REMARK VINA RESULT:      -7.8      0.000      0.000
REMARK  9 active torsions:
REMARK  status: ('A' for Active; 'I' for Inactive)
REMARK    1  A    between atoms: C_2  and  N_3 
REMARK    2  A    between atoms: N_3  and  C_5 
REMARK    3  A    between atoms: N_3  and  C_29 
REMARK    4  A    between atoms: C_5  and  C_6 
REMARK    5  A    between atoms: C_6  and  O_7 
REMARK    6  A    between atoms: O_7  and  C_8 
REMARK    7  A    between atoms: C_9  and  C_10 
REMARK    8  A    between atoms: C_10  and  N_11 
REMARK       I    between atoms: N_11  and  C_12 
REMARK    9  A    between atoms: C_12  and  C_13 
ROOT
HETATM    1  N   UNL     1      42.132 -17.986   1.548  1.00  0.00    -0.352 N 
HETATM    2  C   UNL     1      43.485 -18.120   1.823  1.00  0.00     0.254 C 
HETATM    3  O   UNL     1      44.355 -17.393   1.364  1.00  0.00    -0.268 OA
HETATM    4  H   UNL     1      41.523 -18.328   2.279  1.00  0.00     0.163 HD
ENDROOT
BRANCH   1   5
HETATM    5  C   UNL     1      41.627 -16.838   0.818  1.00  0.00     0.164 C 
BRANCH   5   6
HETATM    6  C   UNL     1      41.229 -15.659   1.673  1.00  0.00    -0.007 A 
HETATM    7  C   UNL     1      41.310 -14.325   1.235  1.00  0.00     0.076 A 
HETATM    8  C   UNL     1      40.875 -13.296   2.086  1.00  0.00     0.037 A 
HETATM    9  C   UNL     1      40.385 -13.580   3.363  1.00  0.00     0.003 A 
HETATM   10  C   UNL     1      40.325 -14.893   3.808  1.00  0.00     0.001 A 
HETATM   11  C   UNL     1      40.742 -15.922   2.968  1.00  0.00     0.011 A 
BRANCH   7  12
HETATM   12  O   UNL     1      41.797 -14.113  -0.035  1.00  0.00    -0.349 OA
BRANCH  12  13
HETATM   13  C   UNL     1      40.897 -13.486  -0.954  1.00  0.00     0.203 C 
BRANCH  13  14
HETATM   14  C   UNL     1      40.080 -14.546  -1.703  1.00  0.00     0.261 C 
BRANCH  14  15
HETATM   15  N   UNL     1      38.562 -14.407  -1.556  1.00  0.00    -0.070 N 
HETATM   16  H   UNL     1      38.242 -15.331  -1.232  1.00  0.00     0.279 HD
BRANCH  15  17
HETATM   17  C   UNL     1      37.805 -14.142  -2.847  1.00  0.00     0.230 C 
HETATM   18  C   UNL     1      37.838 -15.341  -3.777  1.00  0.00     0.034 C 
ENDBRANCH  15  17
BRANCH  15  19
HETATM   19  C   UNL     1      38.106 -13.431  -0.482  1.00  0.00     0.230 C 
HETATM   20  C   UNL     1      37.555 -14.151   0.735  1.00  0.00     0.034 C 
ENDBRANCH  15  19
ENDBRANCH  14  15
ENDBRANCH  13  14
ENDBRANCH  12  13
ENDBRANCH   7  12
ENDBRANCH   5   6
ENDBRANCH   1   5
BRANCH   2  21
HETATM   21  C   UNL     1      43.852 -19.178   2.798  1.00  0.00     0.064 A 
HETATM   22  C   UNL     1      43.918 -18.973   4.163  1.00  0.00     0.077 A 
HETATM   23  C   UNL     1      44.351 -19.971   5.040  1.00  0.00     0.065 A 
HETATM   24  N   UNL     1      43.584 -17.854   4.934  1.00  0.00    -0.330 N 
HETATM   25  N   UNL     1      44.318 -19.455   6.337  1.00  0.00    -0.331 N 
HETATM   26  C   UNL     1      44.707 -21.225   4.607  1.00  0.00     0.074 A 
HETATM   27  C   UNL     1      43.824 -18.148   6.279  1.00  0.00     0.176 A 
HETATM   28  H   UNL     1      44.565 -19.951   7.183  1.00  0.00     0.168 HD
HETATM   29  S   UNL     1      43.548 -17.123   7.538  1.00  0.00    -0.041 SA
HETATM   30  C   UNL     1      44.604 -21.456   3.235  1.00  0.00     0.119 A 
HETATM   31  F   UNL     1      44.920 -22.667   2.757  1.00  0.00    -0.206 F 
HETATM   32  C   UNL     1      44.185 -20.459   2.336  1.00  0.00     0.061 A 
HETATM   33  H   UNL     1      43.135 -17.021   4.587  1.00  0.00     0.168 HD
ENDBRANCH   2  21
TORSDOF 9
ENDMDL
MODEL 2
REMARK VINA RESULT:      -7.7      3.482      7.796
REMARK  9 active torsions:
REMARK  status: ('A' for Active; 'I' for Inactive)
REMARK    1  A    between atoms: C_2  and  N_3 
REMARK    2  A    between atoms: N_3  and  C_5 
REMARK    3  A    between atoms: N_3  and  C_29 
REMARK    4  A    between atoms: C_5  and  C_6 
REMARK    5  A    between atoms: C_6  and  O_7 
REMARK    6  A    between atoms: O_7  and  C_8 
REMARK    7  A    between atoms: C_9  and  C_10 
REMARK    8  A    between atoms: C_10  and  N_11 
REMARK       I    between atoms: N_11  and  C_12 
REMARK    9  A    between atoms: C_12  and  C_13 
ROOT
HETATM    1  N   UNL     1      43.346 -17.842   2.753  1.00  0.00    -0.352 N 
HETATM    2  C   UNL     1      42.974 -17.275   1.543  1.00  0.00     0.254 C 
HETATM    3  O   UNL     1      43.508 -17.528   0.472  1.00  0.00    -0.268 OA
HETATM    4  H   UNL     1      42.601 -17.896   3.434  1.00  0.00     0.163 HD
ENDROOT
BRANCH   1   5
HETATM    5  C   UNL     1      44.303 -18.932   2.806  1.00  0.00     0.164 C 
BRANCH   5   6
HETATM    6  C   UNL     1      44.300 -19.726   4.089  1.00  0.00    -0.007 A 
HETATM    7  C   UNL     1      43.961 -19.174   5.338  1.00  0.00     0.076 A 
HETATM    8  C   UNL     1      43.944 -20.003   6.471  1.00  0.00     0.037 A 
HETATM    9  C   UNL     1      44.277 -21.356   6.377  1.00  0.00     0.003 A 
HETATM   10  C   UNL     1      44.635 -21.899   5.152  1.00  0.00     0.001 A 
HETATM   11  C   UNL     1      44.644 -21.091   4.018  1.00  0.00     0.011 A 
BRANCH   7  12
HETATM   12  O   UNL     1      43.637 -17.837   5.363  1.00  0.00    -0.349 OA
BRANCH  12  13
HETATM   13  C   UNL     1      43.246 -17.310   6.635  1.00  0.00     0.203 C 
BRANCH  13  14
HETATM   14  C   UNL     1      42.286 -16.130   6.447  1.00  0.00     0.261 C 
BRANCH  14  15
HETATM   15  N   UNL     1      42.931 -14.749   6.594  1.00  0.00    -0.070 N 
HETATM   16  H   UNL     1      42.490 -14.338   7.428  1.00  0.00     0.279 HD
BRANCH  15  17
HETATM   17  C   UNL     1      42.648 -13.774   5.462  1.00  0.00     0.230 C 
HETATM   18  C   UNL     1      43.644 -13.923   4.326  1.00  0.00     0.034 C 
ENDBRANCH  15  17
BRANCH  15  19
HETATM   19  C   UNL     1      44.421 -14.764   6.900  1.00  0.00     0.230 C 
HETATM   20  C   UNL     1      44.835 -13.567   7.736  1.00  0.00     0.034 C 
ENDBRANCH  15  19
ENDBRANCH  14  15
ENDBRANCH  13  14
ENDBRANCH  12  13
ENDBRANCH   7  12
ENDBRANCH   5   6
ENDBRANCH   1   5
BRANCH   2  21
HETATM   21  C   UNL     1      41.801 -16.366   1.580  1.00  0.00     0.064 A 
HETATM   22  C   UNL     1      41.254 -15.774   0.458  1.00  0.00     0.077 A 
HETATM   23  C   UNL     1      40.203 -14.855   0.545  1.00  0.00     0.065 A 
HETATM   24  N   UNL     1      41.556 -15.936  -0.898  1.00  0.00    -0.330 N 
HETATM   25  N   UNL     1      39.888 -14.432  -0.747  1.00  0.00    -0.331 N 
HETATM   26  C   UNL     1      39.628 -14.510   1.744  1.00  0.00     0.074 A 
HETATM   27  C   UNL     1      40.711 -15.114  -1.648  1.00  0.00     0.176 A 
HETATM   28  H   UNL     1      39.160 -13.777  -0.999  1.00  0.00     0.168 HD
HETATM   29  S   UNL     1      40.706 -15.007  -3.292  1.00  0.00    -0.041 SA
HETATM   30  C   UNL     1      40.145 -15.134   2.879  1.00  0.00     0.119 A 
HETATM   31  F   UNL     1      39.611 -14.850   4.074  1.00  0.00    -0.206 F 
HETATM   32  C   UNL     1      41.212 -16.048   2.813  1.00  0.00     0.061 A 
HETATM   33  H   UNL     1      42.194 -16.621  -1.274  1.00  0.00     0.168 HD
ENDBRANCH   2  21
TORSDOF 9
ENDMDL
MODEL 3
REMARK VINA RESULT:      -7.6      6.629      9.976
REMARK  9 active torsions:
REMARK  status: ('A' for Active; 'I' for Inactive)
REMARK    1  A    between atoms: C_2  and  N_3 
REMARK    2  A    between atoms: N_3  and  C_5 
REMARK    3  A    between atoms: N_3  and  C_29 
REMARK    4  A    between atoms: C_5  and  C_6 
REMARK    5  A    between atoms: C_6  and  O_7 
REMARK    6  A    between atoms: O_7  and  C_8 
REMARK    7  A    between atoms: C_9  and  C_10 
REMARK    8  A    between atoms: C_10  and  N_11 
REMARK       I    between atoms: N_11  and  C_12 
REMARK    9  A    between atoms: C_12  and  C_13 
ROOT
HETATM    1  N   UNL     1      44.377 -13.147   8.451  1.00  0.00    -0.352 N 
HETATM    2  C   UNL     1      44.880 -11.935   8.898  1.00  0.00     0.254 C 
HETATM    3  O   UNL     1      45.955 -11.467   8.550  1.00  0.00    -0.268 OA
HETATM    4  H   UNL     1      43.367 -13.207   8.455  1.00  0.00     0.163 HD
ENDROOT
BRANCH   1   5
HETATM    5  C   UNL     1      45.029 -13.879   7.380  1.00  0.00     0.164 C 
BRANCH   5   6
HETATM    6  C   UNL     1      44.096 -14.510   6.375  1.00  0.00    -0.007 A 
HETATM    7  C   UNL     1      43.371 -15.689   6.628  1.00  0.00     0.076 A 
HETATM    8  C   UNL     1      42.494 -16.178   5.647  1.00  0.00     0.037 A 
HETATM    9  C   UNL     1      42.349 -15.522   4.422  1.00  0.00     0.003 A 
HETATM   10  C   UNL     1      43.080 -14.372   4.159  1.00  0.00     0.001 A 
HETATM   11  C   UNL     1      43.944 -13.871   5.129  1.00  0.00     0.011 A 
BRANCH   7  12
HETATM   12  O   UNL     1      43.555 -16.285   7.856  1.00  0.00    -0.349 OA
BRANCH  12  13
HETATM   13  C   UNL     1      43.248 -17.680   7.927  1.00  0.00     0.203 C 
BRANCH  13  14
HETATM   14  C   UNL     1      44.374 -18.504   7.291  1.00  0.00     0.261 C 
BRANCH  14  15
HETATM   15  N   UNL     1      43.926 -19.445   6.170  1.00  0.00    -0.070 N 
HETATM   16  H   UNL     1      42.976 -19.132   5.925  1.00  0.00     0.279 HD
BRANCH  15  17
HETATM   17  C   UNL     1      43.784 -20.906   6.565  1.00  0.00     0.230 C 
HETATM   18  C   UNL     1      44.640 -21.812   5.699  1.00  0.00     0.034 C 
ENDBRANCH  15  17
BRANCH  15  19
HETATM   19  C   UNL     1      44.725 -19.336   4.880  1.00  0.00     0.230 C 
HETATM   20  C   UNL     1      43.847 -18.939   3.708  1.00  0.00     0.034 C 
ENDBRANCH  15  19
ENDBRANCH  14  15
ENDBRANCH  13  14
ENDBRANCH  12  13
ENDBRANCH   7  12
ENDBRANCH   5   6
ENDBRANCH   1   5
BRANCH   2  21
HETATM   21  C   UNL     1      43.994 -11.151   9.795  1.00  0.00     0.064 A 
HETATM   22  C   UNL     1      42.751 -10.677   9.423  1.00  0.00     0.077 A 
HETATM   23  C   UNL     1      41.984  -9.869  10.268  1.00  0.00     0.065 A 
HETATM   24  N   UNL     1      42.011 -10.878   8.253  1.00  0.00    -0.330 N 
HETATM   25  N   UNL     1      40.798  -9.548   9.605  1.00  0.00    -0.331 N 
HETATM   26  C   UNL     1      42.402  -9.523  11.530  1.00  0.00     0.074 A 
HETATM   27  C   UNL     1      40.801 -10.188   8.362  1.00  0.00     0.176 A 
HETATM   28  H   UNL     1      40.042  -8.986   9.973  1.00  0.00     0.168 HD
HETATM   29  S   UNL     1      39.614 -10.167   7.220  1.00  0.00    -0.041 SA
HETATM   30  C   UNL     1      43.638 -10.031  11.932  1.00  0.00     0.119 A 
HETATM   31  F   UNL     1      44.088  -9.741  13.160  1.00  0.00    -0.206 F 
HETATM   32  C   UNL     1      44.429 -10.831  11.090  1.00  0.00     0.061 A 
HETATM   33  H   UNL     1      42.260 -11.512   7.509  1.00  0.00     0.168 HD
ENDBRANCH   2  21
TORSDOF 9
ENDMDL
MODEL 4
REMARK VINA RESULT:      -7.6      3.991      8.274
REMARK  9 active torsions:
REMARK  status: ('A' for Active; 'I' for Inactive)
REMARK    1  A    between atoms: C_2  and  N_3 
REMARK    2  A    between atoms: N_3  and  C_5 
REMARK    3  A    between atoms: N_3  and  C_29 
REMARK    4  A    between atoms: C_5  and  C_6 
REMARK    5  A    between atoms: C_6  and  O_7 
REMARK    6  A    between atoms: O_7  and  C_8 
REMARK    7  A    between atoms: C_9  and  C_10 
REMARK    8  A    between atoms: C_10  and  N_11 
REMARK       I    between atoms: N_11  and  C_12 
REMARK    9  A    between atoms: C_12  and  C_13 
ROOT
HETATM    1  N   UNL     1      40.566 -16.081   0.857  1.00  0.00    -0.352 N 
HETATM    2  C   UNL     1      40.201 -14.744   0.819  1.00  0.00     0.254 C 
HETATM    3  O   UNL     1      39.627 -14.161   1.729  1.00  0.00    -0.268 OA
HETATM    4  H   UNL     1      41.367 -16.311   0.285  1.00  0.00     0.163 HD
ENDROOT
BRANCH   1   5
HETATM    5  C   UNL     1      40.444 -16.856   2.079  1.00  0.00     0.164 C 
BRANCH   5   6
HETATM    6  C   UNL     1      41.711 -17.538   2.534  1.00  0.00    -0.007 A 
HETATM    7  C   UNL     1      41.949 -17.915   3.868  1.00  0.00     0.076 A 
HETATM    8  C   UNL     1      43.140 -18.585   4.189  1.00  0.00     0.037 A 
HETATM    9  C   UNL     1      44.095 -18.863   3.208  1.00  0.00     0.003 A 
HETATM   10  C   UNL     1      43.875 -18.473   1.895  1.00  0.00     0.001 A 
HETATM   11  C   UNL     1      42.692 -17.819   1.562  1.00  0.00     0.011 A 
BRANCH   7  12
HETATM   12  O   UNL     1      40.967 -17.617   4.786  1.00  0.00    -0.349 OA
BRANCH  12  13
HETATM   13  C   UNL     1      41.410 -17.001   5.999  1.00  0.00     0.203 C 
BRANCH  13  14
HETATM   14  C   UNL     1      41.118 -15.495   5.966  1.00  0.00     0.261 C 
BRANCH  14  15
HETATM   15  N   UNL     1      42.291 -14.625   5.506  1.00  0.00    -0.070 N 
HETATM   16  H   UNL     1      42.241 -13.781   6.094  1.00  0.00     0.279 HD
BRANCH  15  17
HETATM   17  C   UNL     1      42.209 -14.127   4.072  1.00  0.00     0.230 C 
HETATM   18  C   UNL     1      43.484 -14.414   3.301  1.00  0.00     0.034 C 
ENDBRANCH  15  17
BRANCH  15  19
HETATM   19  C   UNL     1      43.670 -15.211   5.770  1.00  0.00     0.230 C 
HETATM   20  C   UNL     1      44.305 -14.616   7.013  1.00  0.00     0.034 C 
ENDBRANCH  15  19
ENDBRANCH  14  15
ENDBRANCH  13  14
ENDBRANCH  12  13
ENDBRANCH   7  12
ENDBRANCH   5   6
ENDBRANCH   1   5
BRANCH   2  21
HETATM   21  C   UNL     1      40.618 -13.987  -0.389  1.00  0.00     0.064 A 
HETATM   22  C   UNL     1      39.915 -13.994  -1.578  1.00  0.00     0.077 A 
HETATM   23  C   UNL     1      40.386 -13.337  -2.719  1.00  0.00     0.065 A 
HETATM   24  N   UNL     1      38.683 -14.570  -1.906  1.00  0.00    -0.330 N 
HETATM   25  N   UNL     1      39.466 -13.540  -3.749  1.00  0.00    -0.331 N 
HETATM   26  C   UNL     1      41.557 -12.619  -2.721  1.00  0.00     0.074 A 
HETATM   27  C   UNL     1      38.398 -14.288  -3.244  1.00  0.00     0.176 A 
HETATM   28  H   UNL     1      39.533 -13.174  -4.690  1.00  0.00     0.168 HD
HETATM   29  S   UNL     1      37.035 -14.756  -4.043  1.00  0.00    -0.041 SA
HETATM   30  C   UNL     1      42.254 -12.570  -1.513  1.00  0.00     0.119 A 
HETATM   31  F   UNL     1      43.393 -11.869  -1.451  1.00  0.00    -0.206 F 
HETATM   32  C   UNL     1      41.803 -13.238  -0.361  1.00  0.00     0.061 A 
HETATM   33  H   UNL     1      38.055 -15.011  -1.253  1.00  0.00     0.168 HD
ENDBRANCH   2  21
TORSDOF 9
ENDMDL
MODEL 5
REMARK VINA RESULT:      -7.6      3.086      8.029
REMARK  9 active torsions:
REMARK  status: ('A' for Active; 'I' for Inactive)
REMARK    1  A    between atoms: C_2  and  N_3 
REMARK    2  A    between atoms: N_3  and  C_5 
REMARK    3  A    between atoms: N_3  and  C_29 
REMARK    4  A    between atoms: C_5  and  C_6 
REMARK    5  A    between atoms: C_6  and  O_7 
REMARK    6  A    between atoms: O_7  and  C_8 
REMARK    7  A    between atoms: C_9  and  C_10 
REMARK    8  A    between atoms: C_10  and  N_11 
REMARK       I    between atoms: N_11  and  C_12 
REMARK    9  A    between atoms: C_12  and  C_13 
ROOT
HETATM    1  N   UNL     1      43.003 -17.130   2.067  1.00  0.00    -0.352 N 
HETATM    2  C   UNL     1      41.670 -16.750   2.097  1.00  0.00     0.254 C 
HETATM    3  O   UNL     1      40.898 -17.019   3.008  1.00  0.00    -0.268 OA
HETATM    4  H   UNL     1      43.600 -16.516   1.531  1.00  0.00     0.163 HD
ENDROOT
BRANCH   1   5
HETATM    5  C   UNL     1      43.634 -17.740   3.224  1.00  0.00     0.164 C 
BRANCH   5   6
HETATM    6  C   UNL     1      43.921 -19.216   3.093  1.00  0.00    -0.007 A 
HETATM    7  C   UNL     1      44.588 -19.963   4.081  1.00  0.00     0.076 A 
HETATM    8  C   UNL     1      44.771 -21.342   3.890  1.00  0.00     0.037 A 
HETATM    9  C   UNL     1      44.321 -21.972   2.728  1.00  0.00     0.003 A 
HETATM   10  C   UNL     1      43.683 -21.235   1.741  1.00  0.00     0.001 A 
HETATM   11  C   UNL     1      43.484 -19.870   1.924  1.00  0.00     0.011 A 
BRANCH   7  12
HETATM   12  O   UNL     1      45.002 -19.284   5.205  1.00  0.00    -0.349 OA
BRANCH  12  13
HETATM   13  C   UNL     1      44.229 -19.501   6.389  1.00  0.00     0.203 C 
BRANCH  13  14
HETATM   14  C   UNL     1      44.288 -18.265   7.294  1.00  0.00     0.261 C 
BRANCH  14  15
HETATM   15  N   UNL     1      43.506 -17.054   6.777  1.00  0.00    -0.070 N 
HETATM   16  H   UNL     1      43.870 -16.889   5.828  1.00  0.00     0.279 HD
BRANCH  15  17
HETATM   17  C   UNL     1      43.739 -15.757   7.534  1.00  0.00     0.230 C 
HETATM   18  C   UNL     1      44.704 -14.842   6.804  1.00  0.00     0.034 C 
ENDBRANCH  15  17
BRANCH  15  19
HETATM   19  C   UNL     1      42.013 -17.282   6.594  1.00  0.00     0.230 C 
HETATM   20  C   UNL     1      41.291 -16.002   6.215  1.00  0.00     0.034 C 
ENDBRANCH  15  19
ENDBRANCH  14  15
ENDBRANCH  13  14
ENDBRANCH  12  13
ENDBRANCH   7  12
ENDBRANCH   5   6
ENDBRANCH   1   5
BRANCH   2  21
HETATM   21  C   UNL     1      41.207 -15.899   0.972  1.00  0.00     0.064 A 
HETATM   22  C   UNL     1      40.479 -14.737   1.138  1.00  0.00     0.077 A 
HETATM   23  C   UNL     1      39.988 -14.010   0.049  1.00  0.00     0.065 A 
HETATM   24  N   UNL     1      40.108 -14.051   2.300  1.00  0.00    -0.330 N 
HETATM   25  N   UNL     1      39.290 -12.906   0.543  1.00  0.00    -0.331 N 
HETATM   26  C   UNL     1      40.225 -14.386  -1.251  1.00  0.00     0.074 A 
HETATM   27  C   UNL     1      39.378 -12.917   1.938  1.00  0.00     0.176 A 
HETATM   28  H   UNL     1      38.834 -12.193  -0.011  1.00  0.00     0.168 HD
HETATM   29  S   UNL     1      38.763 -11.808   2.990  1.00  0.00    -0.041 SA
HETATM   30  C   UNL     1      40.995 -15.535  -1.430  1.00  0.00     0.119 A 
HETATM   31  F   UNL     1      41.274 -15.939  -2.676  1.00  0.00    -0.206 F 
HETATM   32  C   UNL     1      41.483 -16.287  -0.347  1.00  0.00     0.061 A 
HETATM   33  H   UNL     1      40.418 -14.276   3.232  1.00  0.00     0.168 HD
ENDBRANCH   2  21
TORSDOF 9
ENDMDL
MODEL 6
REMARK VINA RESULT:      -7.4      2.009      4.531
REMARK  9 active torsions:
REMARK  status: ('A' for Active; 'I' for Inactive)
REMARK    1  A    between atoms: C_2  and  N_3 
REMARK    2  A    between atoms: N_3  and  C_5 
REMARK    3  A    between atoms: N_3  and  C_29 
REMARK    4  A    between atoms: C_5  and  C_6 
REMARK    5  A    between atoms: C_6  and  O_7 
REMARK    6  A    between atoms: O_7  and  C_8 
REMARK    7  A    between atoms: C_9  and  C_10 
REMARK    8  A    between atoms: C_10  and  N_11 
REMARK       I    between atoms: N_11  and  C_12 
REMARK    9  A    between atoms: C_12  and  C_13 
ROOT
HETATM    1  N   UNL     1      42.645 -16.820   2.332  1.00  0.00    -0.352 N 
HETATM    2  C   UNL     1      43.776 -17.508   1.922  1.00  0.00     0.254 C 
HETATM    3  O   UNL     1      44.659 -17.027   1.224  1.00  0.00    -0.268 OA
HETATM    4  H   UNL     1      42.249 -17.149   3.202  1.00  0.00     0.163 HD
ENDROOT
BRANCH   1   5
HETATM    5  C   UNL     1      42.511 -15.393   2.100  1.00  0.00     0.164 C 
BRANCH   5   6
HETATM    6  C   UNL     1      41.203 -14.963   1.483  1.00  0.00    -0.007 A 
HETATM    7  C   UNL     1      40.024 -14.771   2.227  1.00  0.00     0.076 A 
HETATM    8  C   UNL     1      38.864 -14.328   1.572  1.00  0.00     0.037 A 
HETATM    9  C   UNL     1      38.862 -14.097   0.194  1.00  0.00     0.003 A 
HETATM   10  C   UNL     1      40.015 -14.308  -0.548  1.00  0.00     0.001 A 
HETATM   11  C   UNL     1      41.175 -14.735   0.093  1.00  0.00     0.011 A 
BRANCH   7  12
HETATM   12  O   UNL     1      40.094 -15.011   3.581  1.00  0.00    -0.349 OA
BRANCH  12  13
HETATM   13  C   UNL     1      39.885 -13.878   4.429  1.00  0.00     0.203 C 
BRANCH  13  14
HETATM   14  C   UNL     1      40.895 -13.886   5.583  1.00  0.00     0.261 C 
BRANCH  14  15
HETATM   15  N   UNL     1      41.953 -14.991   5.501  1.00  0.00    -0.070 N 
HETATM   16  H   UNL     1      41.845 -15.391   4.559  1.00  0.00     0.279 HD
BRANCH  15  17
HETATM   17  C   UNL     1      41.756 -16.152   6.462  1.00  0.00     0.230 C 
HETATM   18  C   UNL     1      41.031 -17.313   5.805  1.00  0.00     0.034 C 
ENDBRANCH  15  17
BRANCH  15  19
HETATM   19  C   UNL     1      43.394 -14.508   5.565  1.00  0.00     0.230 C 
HETATM   20  C   UNL     1      44.083 -14.965   6.837  1.00  0.00     0.034 C 
ENDBRANCH  15  19
ENDBRANCH  14  15
ENDBRANCH  13  14
ENDBRANCH  12  13
ENDBRANCH   7  12
ENDBRANCH   5   6
ENDBRANCH   1   5
BRANCH   2  21
HETATM   21  C   UNL     1      43.926 -18.889   2.445  1.00  0.00     0.064 A 
HETATM   22  C   UNL     1      44.144 -19.185   3.777  1.00  0.00     0.077 A 
HETATM   23  C   UNL     1      44.366 -20.494   4.217  1.00  0.00     0.065 A 
HETATM   24  N   UNL     1      44.172 -18.355   4.903  1.00  0.00    -0.330 N 
HETATM   25  N   UNL     1      44.565 -20.460   5.599  1.00  0.00    -0.331 N 
HETATM   26  C   UNL     1      44.350 -21.568   3.362  1.00  0.00     0.074 A 
HETATM   27  C   UNL     1      44.426 -19.138   6.032  1.00  0.00     0.176 A 
HETATM   28  H   UNL     1      44.736 -21.258   6.197  1.00  0.00     0.168 HD
HETATM   29  S   UNL     1      44.521 -18.573   7.577  1.00  0.00    -0.041 SA
HETATM   30  C   UNL     1      44.089 -21.285   2.021  1.00  0.00     0.119 A 
HETATM   31  F   UNL     1      44.042 -22.296   1.144  1.00  0.00    -0.206 F 
HETATM   32  C   UNL     1      43.879 -19.975   1.558  1.00  0.00     0.061 A 
HETATM   33  H   UNL     1      43.931 -17.376   4.910  1.00  0.00     0.168 HD
ENDBRANCH   2  21
TORSDOF 9
ENDMDL
MODEL 7
REMARK VINA RESULT:      -7.4      0.991      1.840
REMARK  9 active torsions:
REMARK  status: ('A' for Active; 'I' for Inactive)
REMARK    1  A    between atoms: C_2  and  N_3 
REMARK    2  A    between atoms: N_3  and  C_5 
REMARK    3  A    between atoms: N_3  and  C_29 
REMARK    4  A    between atoms: C_5  and  C_6 
REMARK    5  A    between atoms: C_6  and  O_7 
REMARK    6  A    between atoms: O_7  and  C_8 
REMARK    7  A    between atoms: C_9  and  C_10 
REMARK    8  A    between atoms: C_10  and  N_11 
REMARK       I    between atoms: N_11  and  C_12 
REMARK    9  A    between atoms: C_12  and  C_13 
ROOT
HETATM    1  N   UNL     1      42.102 -18.102   1.701  1.00  0.00    -0.352 N 
HETATM    2  C   UNL     1      43.461 -18.277   1.913  1.00  0.00     0.254 C 
HETATM    3  O   UNL     1      44.332 -17.588   1.399  1.00  0.00    -0.268 OA
HETATM    4  H   UNL     1      41.518 -18.411   2.466  1.00  0.00     0.163 HD
ENDROOT
BRANCH   1   5
HETATM    5  C   UNL     1      41.600 -16.949   0.975  1.00  0.00     0.164 C 
BRANCH   5   6
HETATM    6  C   UNL     1      40.955 -15.885   1.829  1.00  0.00    -0.007 A 
HETATM    7  C   UNL     1      40.198 -14.823   1.301  1.00  0.00     0.076 A 
HETATM    8  C   UNL     1      39.599 -13.905   2.178  1.00  0.00     0.037 A 
HETATM    9  C   UNL     1      39.762 -14.021   3.560  1.00  0.00     0.003 A 
HETATM   10  C   UNL     1      40.526 -15.053   4.085  1.00  0.00     0.001 A 
HETATM   11  C   UNL     1      41.115 -15.977   3.226  1.00  0.00     0.011 A 
BRANCH   7  12
HETATM   12  O   UNL     1      40.072 -14.768  -0.069  1.00  0.00    -0.349 OA
BRANCH  12  13
HETATM   13  C   UNL     1      39.138 -13.808  -0.574  1.00  0.00     0.203 C 
BRANCH  13  14
HETATM   14  C   UNL     1      39.244 -13.719  -2.101  1.00  0.00     0.261 C 
BRANCH  14  15
HETATM   15  N   UNL     1      40.238 -14.697  -2.733  1.00  0.00    -0.070 N 
HETATM   16  H   UNL     1      40.646 -15.210  -1.939  1.00  0.00     0.279 HD
BRANCH  15  17
HETATM   17  C   UNL     1      41.415 -14.056  -3.451  1.00  0.00     0.230 C 
HETATM   18  C   UNL     1      42.153 -13.074  -2.560  1.00  0.00     0.034 C 
ENDBRANCH  15  17
BRANCH  15  19
HETATM   19  C   UNL     1      39.615 -15.766  -3.618  1.00  0.00     0.230 C 
HETATM   20  C   UNL     1      38.180 -15.429  -3.980  1.00  0.00     0.034 C 
ENDBRANCH  15  19
ENDBRANCH  14  15
ENDBRANCH  13  14
ENDBRANCH  12  13
ENDBRANCH   7  12
ENDBRANCH   5   6
ENDBRANCH   1   5
BRANCH   2  21
HETATM   21  C   UNL     1      43.840 -19.330   2.888  1.00  0.00     0.064 A 
HETATM   22  C   UNL     1      43.903 -19.124   4.253  1.00  0.00     0.077 A 
HETATM   23  C   UNL     1      44.348 -20.118   5.130  1.00  0.00     0.065 A 
HETATM   24  N   UNL     1      43.556 -18.010   5.024  1.00  0.00    -0.330 N 
HETATM   25  N   UNL     1      44.308 -19.602   6.427  1.00  0.00    -0.331 N 
HETATM   26  C   UNL     1      44.718 -21.368   4.697  1.00  0.00     0.074 A 
HETATM   27  C   UNL     1      43.799 -18.301   6.369  1.00  0.00     0.176 A 
HETATM   28  H   UNL     1      44.560 -20.096   7.273  1.00  0.00     0.168 HD
HETATM   29  S   UNL     1      43.511 -17.279   7.628  1.00  0.00    -0.041 SA
HETATM   30  C   UNL     1      44.618 -21.600   3.325  1.00  0.00     0.119 A 
HETATM   31  F   UNL     1      44.948 -22.806   2.847  1.00  0.00    -0.206 F 
HETATM   32  C   UNL     1      44.189 -20.608   2.426  1.00  0.00     0.061 A 
HETATM   33  H   UNL     1      43.098 -17.182   4.677  1.00  0.00     0.168 HD
ENDBRANCH   2  21
TORSDOF 9
ENDMDL
MODEL 8
REMARK VINA RESULT:      -7.4      2.239      4.504
REMARK  9 active torsions:
REMARK  status: ('A' for Active; 'I' for Inactive)
REMARK    1  A    between atoms: C_2  and  N_3 
REMARK    2  A    between atoms: N_3  and  C_5 
REMARK    3  A    between atoms: N_3  and  C_29 
REMARK    4  A    between atoms: C_5  and  C_6 
REMARK    5  A    between atoms: C_6  and  O_7 
REMARK    6  A    between atoms: O_7  and  C_8 
REMARK    7  A    between atoms: C_9  and  C_10 
REMARK    8  A    between atoms: C_10  and  N_11 
REMARK       I    between atoms: N_11  and  C_12 
REMARK    9  A    between atoms: C_12  and  C_13 
ROOT
HETATM    1  N   UNL     1      41.947 -17.323   1.210  1.00  0.00    -0.352 N 
HETATM    2  C   UNL     1      41.812 -17.679   2.544  1.00  0.00     0.254 C 
HETATM    3  O   UNL     1      40.885 -17.325   3.259  1.00  0.00    -0.268 OA
HETATM    4  H   UNL     1      42.464 -17.988   0.652  1.00  0.00     0.163 HD
ENDROOT
BRANCH   1   5
HETATM    5  C   UNL     1      40.880 -16.634   0.508  1.00  0.00     0.164 C 
BRANCH   5   6
HETATM    6  C   UNL     1      41.258 -15.295  -0.077  1.00  0.00    -0.007 A 
HETATM    7  C   UNL     1      41.578 -14.172   0.707  1.00  0.00     0.076 A 
HETATM    8  C   UNL     1      41.961 -12.979   0.072  1.00  0.00     0.037 A 
HETATM    9  C   UNL     1      42.008 -12.890  -1.321  1.00  0.00     0.003 A 
HETATM   10  C   UNL     1      41.671 -13.988  -2.099  1.00  0.00     0.001 A 
HETATM   11  C   UNL     1      41.301 -15.180  -1.481  1.00  0.00     0.011 A 
BRANCH   7  12
HETATM   12  O   UNL     1      41.518 -14.326   2.074  1.00  0.00    -0.349 OA
BRANCH  12  13
HETATM   13  C   UNL     1      42.730 -14.066   2.787  1.00  0.00     0.203 C 
BRANCH  13  14
HETATM   14  C   UNL     1      42.544 -12.871   3.730  1.00  0.00     0.261 C 
BRANCH  14  15
HETATM   15  N   UNL     1      42.433 -13.236   5.213  1.00  0.00    -0.070 N 
HETATM   16  H   UNL     1      42.755 -12.398   5.717  1.00  0.00     0.279 HD
BRANCH  15  17
HETATM   17  C   UNL     1      43.342 -14.363   5.676  1.00  0.00     0.230 C 
HETATM   18  C   UNL     1      44.251 -13.927   6.810  1.00  0.00     0.034 C 
ENDBRANCH  15  17
BRANCH  15  19
HETATM   19  C   UNL     1      41.017 -13.480   5.712  1.00  0.00     0.230 C 
HETATM   20  C   UNL     1      40.714 -14.961   5.839  1.00  0.00     0.034 C 
ENDBRANCH  15  19
ENDBRANCH  14  15
ENDBRANCH  13  14
ENDBRANCH  12  13
ENDBRANCH   7  12
ENDBRANCH   5   6
ENDBRANCH   1   5
BRANCH   2  21
HETATM   21  C   UNL     1      42.838 -18.609   3.079  1.00  0.00     0.064 A 
HETATM   22  C   UNL     1      43.295 -18.578   4.383  1.00  0.00     0.077 A 
HETATM   23  C   UNL     1      44.324 -19.415   4.825  1.00  0.00     0.065 A 
HETATM   24  N   UNL     1      42.880 -17.811   5.477  1.00  0.00    -0.330 N 
HETATM   25  N   UNL     1      44.562 -19.136   6.172  1.00  0.00    -0.331 N 
HETATM   26  C   UNL     1      44.922 -20.339   4.004  1.00  0.00     0.074 A 
HETATM   27  C   UNL     1      43.655 -18.156   6.586  1.00  0.00     0.176 A 
HETATM   28  H   UNL     1      45.243 -19.593   6.764  1.00  0.00     0.168 HD
HETATM   29  S   UNL     1      43.492 -17.513   8.095  1.00  0.00    -0.041 SA
HETATM   30  C   UNL     1      44.439 -20.408   2.697  1.00  0.00     0.119 A 
HETATM   31  F   UNL     1      44.972 -21.304   1.856  1.00  0.00    -0.206 F 
HETATM   32  C   UNL     1      43.416 -19.564   2.230  1.00  0.00     0.061 A 
HETATM   33  H   UNL     1      42.078 -17.201   5.489  1.00  0.00     0.168 HD
ENDBRANCH   2  21
TORSDOF 9
ENDMDL
MODEL 9
REMARK VINA RESULT:      -7.2      2.724      3.811
REMARK  9 active torsions:
REMARK  status: ('A' for Active; 'I' for Inactive)
REMARK    1  A    between atoms: C_2  and  N_3 
REMARK    2  A    between atoms: N_3  and  C_5 
REMARK    3  A    between atoms: N_3  and  C_29 
REMARK    4  A    between atoms: C_5  and  C_6 
REMARK    5  A    between atoms: C_6  and  O_7 
REMARK    6  A    between atoms: O_7  and  C_8 
REMARK    7  A    between atoms: C_9  and  C_10 
REMARK    8  A    between atoms: C_10  and  N_11 
REMARK       I    between atoms: N_11  and  C_12 
REMARK    9  A    between atoms: C_12  and  C_13 
ROOT
HETATM    1  N   UNL     1      40.181 -16.210   2.710  1.00  0.00    -0.352 N 
HETATM    2  C   UNL     1      41.200 -17.018   2.227  1.00  0.00     0.254 C 
HETATM    3  O   UNL     1      41.298 -17.379   1.062  1.00  0.00    -0.268 OA
HETATM    4  H   UNL     1      40.435 -15.656   3.516  1.00  0.00     0.163 HD
ENDROOT
BRANCH   1   5
HETATM    5  C   UNL     1      39.235 -15.579   1.807  1.00  0.00     0.164 C 
BRANCH   5   6
HETATM    6  C   UNL     1      38.994 -14.110   2.056  1.00  0.00    -0.007 A 
HETATM    7  C   UNL     1      38.207 -13.303   1.214  1.00  0.00     0.076 A 
HETATM    8  C   UNL     1      38.004 -11.955   1.551  1.00  0.00     0.037 A 
HETATM    9  C   UNL     1      38.589 -11.405   2.694  1.00  0.00     0.003 A 
HETATM   10  C   UNL     1      39.385 -12.191   3.514  1.00  0.00     0.001 A 
HETATM   11  C   UNL     1      39.583 -13.532   3.197  1.00  0.00     0.011 A 
BRANCH   7  12
HETATM   12  O   UNL     1      37.656 -13.907   0.106  1.00  0.00    -0.349 OA
BRANCH  12  13
HETATM   13  C   UNL     1      37.951 -13.294  -1.153  1.00  0.00     0.203 C 
BRANCH  13  14
HETATM   14  C   UNL     1      38.317 -14.364  -2.189  1.00  0.00     0.261 C 
BRANCH  14  15
HETATM   15  N   UNL     1      39.748 -14.898  -2.080  1.00  0.00    -0.070 N 
HETATM   16  H   UNL     1      39.747 -15.490  -1.238  1.00  0.00     0.279 HD
BRANCH  15  17
HETATM   17  C   UNL     1      40.819 -13.846  -1.838  1.00  0.00     0.230 C 
HETATM   18  C   UNL     1      41.612 -14.128  -0.575  1.00  0.00     0.034 C 
ENDBRANCH  15  17
BRANCH  15  19
HETATM   19  C   UNL     1      40.179 -15.819  -3.211  1.00  0.00     0.230 C 
HETATM   20  C   UNL     1      39.039 -16.098  -4.173  1.00  0.00     0.034 C 
ENDBRANCH  15  19
ENDBRANCH  14  15
ENDBRANCH  13  14
ENDBRANCH  12  13
ENDBRANCH   7  12
ENDBRANCH   5   6
ENDBRANCH   1   5
BRANCH   2  21
HETATM   21  C   UNL     1      42.259 -17.385   3.200  1.00  0.00     0.064 A 
HETATM   22  C   UNL     1      42.988 -18.557   3.134  1.00  0.00     0.077 A 
HETATM   23  C   UNL     1      43.917 -18.906   4.119  1.00  0.00     0.065 A 
HETATM   24  N   UNL     1      43.003 -19.569   2.167  1.00  0.00    -0.330 N 
HETATM   25  N   UNL     1      44.471 -20.141   3.775  1.00  0.00    -0.331 N 
HETATM   26  C   UNL     1      44.187 -18.095   5.193  1.00  0.00     0.074 A 
HETATM   27  C   UNL     1      43.922 -20.547   2.555  1.00  0.00     0.176 A 
HETATM   28  H   UNL     1      45.182 -20.641   4.294  1.00  0.00     0.168 HD
HETATM   29  S   UNL     1      44.277 -21.908   1.698  1.00  0.00    -0.041 SA
HETATM   30  C   UNL     1      43.487 -16.889   5.248  1.00  0.00     0.119 A 
HETATM   31  F   UNL     1      43.723 -16.049   6.263  1.00  0.00    -0.206 F 
HETATM   32  C   UNL     1      42.538 -16.529   4.275  1.00  0.00     0.061 A 
HETATM   33  H   UNL     1      42.520 -19.535   1.283  1.00  0.00     0.168 HD
ENDBRANCH   2  21
TORSDOF 9
ENDMDL
MODEL 10
REMARK VINA RESULT:      -7.2      6.176      8.485
REMARK  9 active torsions:
REMARK  status: ('A' for Active; 'I' for Inactive)
REMARK    1  A    between atoms: C_2  and  N_3 
REMARK    2  A    between atoms: N_3  and  C_5 
REMARK    3  A    between atoms: N_3  and  C_29 
REMARK    4  A    between atoms: C_5  and  C_6 
REMARK    5  A    between atoms: C_6  and  O_7 
REMARK    6  A    between atoms: O_7  and  C_8 
REMARK    7  A    between atoms: C_9  and  C_10 
REMARK    8  A    between atoms: C_10  and  N_11 
REMARK       I    between atoms: N_11  and  C_12 
REMARK    9  A    between atoms: C_12  and  C_13 
ROOT
HETATM    1  N   UNL     1      44.140 -13.588   7.877  1.00  0.00    -0.352 N 
HETATM    2  C   UNL     1      44.864 -12.610   8.543  1.00  0.00     0.254 C 
HETATM    3  O   UNL     1      46.075 -12.466   8.447  1.00  0.00    -0.268 OA
HETATM    4  H   UNL     1      43.176 -13.342   7.696  1.00  0.00     0.163 HD
ENDROOT
BRANCH   1   5
HETATM    5  C   UNL     1      44.761 -14.417   6.860  1.00  0.00     0.164 C 
BRANCH   5   6
HETATM    6  C   UNL     1      44.111 -15.762   6.646  1.00  0.00    -0.007 A 
HETATM    7  C   UNL     1      42.787 -15.918   6.197  1.00  0.00     0.076 A 
HETATM    8  C   UNL     1      42.283 -17.211   5.985  1.00  0.00     0.037 A 
HETATM    9  C   UNL     1      43.069 -18.338   6.232  1.00  0.00     0.003 A 
HETATM   10  C   UNL     1      44.368 -18.191   6.698  1.00  0.00     0.001 A 
HETATM   11  C   UNL     1      44.883 -16.913   6.900  1.00  0.00     0.011 A 
BRANCH   7  12
HETATM   12  O   UNL     1      42.066 -14.768   5.966  1.00  0.00    -0.349 OA
BRANCH  12  13
HETATM   13  C   UNL     1      41.793 -14.464   4.595  1.00  0.00     0.203 C 
BRANCH  13  14
HETATM   14  C   UNL     1      40.291 -14.595   4.313  1.00  0.00     0.261 C 
BRANCH  14  15
HETATM   15  N   UNL     1      39.929 -15.616   3.230  1.00  0.00    -0.070 N 
HETATM   16  H   UNL     1      39.267 -16.260   3.684  1.00  0.00     0.279 HD
BRANCH  15  17
HETATM   17  C   UNL     1      41.078 -16.486   2.746  1.00  0.00     0.230 C 
HETATM   18  C   UNL     1      40.946 -16.828   1.273  1.00  0.00     0.034 C 
ENDBRANCH  15  17
BRANCH  15  19
HETATM   19  C   UNL     1      39.175 -15.049   2.037  1.00  0.00     0.230 C 
HETATM   20  C   UNL     1      39.184 -13.531   2.037  1.00  0.00     0.034 C 
ENDBRANCH  15  19
ENDBRANCH  14  15
ENDBRANCH  13  14
ENDBRANCH  12  13
ENDBRANCH   7  12
ENDBRANCH   5   6
ENDBRANCH   1   5
BRANCH   2  21
HETATM   21  C   UNL     1      44.073 -11.651   9.355  1.00  0.00     0.064 A 
HETATM   22  C   UNL     1      42.902 -11.062   8.920  1.00  0.00     0.077 A 
HETATM   23  C   UNL     1      42.233 -10.098   9.681  1.00  0.00     0.065 A 
HETATM   24  N   UNL     1      42.154 -11.268   7.756  1.00  0.00    -0.330 N 
HETATM   25  N   UNL     1      41.102  -9.691   8.970  1.00  0.00    -0.331 N 
HETATM   26  C   UNL     1      42.678  -9.701  10.918  1.00  0.00     0.074 A 
HETATM   27  C   UNL     1      41.038 -10.428   7.784  1.00  0.00     0.176 A 
HETATM   28  H   UNL     1      40.418  -9.011   9.276  1.00  0.00     0.168 HD
HETATM   29  S   UNL     1      39.874 -10.359   6.621  1.00  0.00    -0.041 SA
HETATM   30  C   UNL     1      43.838 -10.320  11.385  1.00  0.00     0.119 A 
HETATM   31  F   UNL     1      44.308  -9.986  12.593  1.00  0.00    -0.206 F 
HETATM   32  C   UNL     1      44.532 -11.280  10.627  1.00  0.00     0.061 A 
HETATM   33  H   UNL     1      42.330 -11.988   7.072  1.00  0.00     0.168 HD
ENDBRANCH   2  21
TORSDOF 9
ENDMDL
