MODEL 1
REMARK VINA RESULT:      -9.5      0.000      0.000
REMARK  5 active torsions:
REMARK  status: ('A' for Active; 'I' for Inactive)
REMARK    1  A    between atoms: C_2  and  C_3 
REMARK    2  A    between atoms: N_12  and  N_13 
REMARK       I    between atoms: N_13  and  C_14 
REMARK    3  A    between atoms: C_14  and  C_15 
REMARK    4  A    between atoms: C_15  and  N_16 
REMARK       I    between atoms: N_16  and  C_17 
REMARK    5  A    between atoms: C_17  and  C_18 
ROOT
HETATM    1  N   UNL     1      43.480 -14.553   5.672  1.00  0.00    -0.255 N 
HETATM    2  C   UNL     1      44.495 -14.876   6.553  1.00  0.00     0.254 C 
HETATM    3  O   UNL     1      44.920 -16.015   6.733  1.00  0.00    -0.270 OA
HETATM    4  H   UNL     1      42.967 -13.679   5.819  1.00  0.00     0.191 HD
ENDROOT
BRANCH   1   5
HETATM    5  N   UNL     1      42.783 -15.591   5.082  1.00  0.00    -0.167 N 
HETATM    6  C   UNL     1      41.960 -16.440   5.767  1.00  0.00     0.345 A 
HETATM    7  N   UNL     1      41.515 -17.401   4.881  1.00  0.00    -0.319 N 
HETATM    8  O   UNL     1      41.647 -16.402   6.947  1.00  0.00    -0.245 OA
HETATM    9  C   UNL     1      42.167 -17.299   3.584  1.00  0.00     0.141 A 
HETATM   10  H   UNL     1      41.026 -18.218   5.221  1.00  0.00     0.166 HD
HETATM   11  C   UNL     1      41.138 -16.991   2.488  1.00  0.00     0.055 C 
HETATM   12  C   UNL     1      43.008 -16.014   3.794  1.00  0.00     0.279 A 
HETATM   13  O   UNL     1      43.722 -15.478   2.954  1.00  0.00    -0.268 OA
BRANCH   9  14
HETATM   14  C   UNL     1      42.971 -18.568   3.318  1.00  0.00    -0.021 A 
HETATM   15  C   UNL     1      43.902 -19.029   4.271  1.00  0.00     0.010 A 
HETATM   16  C   UNL     1      44.666 -20.176   4.045  1.00  0.00     0.001 A 
HETATM   17  C   UNL     1      44.525 -20.883   2.856  1.00  0.00     0.000 A 
HETATM   18  C   UNL     1      43.626 -20.439   1.892  1.00  0.00     0.001 A 
HETATM   19  C   UNL     1      42.861 -19.289   2.116  1.00  0.00     0.010 A 
ENDBRANCH   9  14
ENDBRANCH   1   5
BRANCH   2  20
HETATM   20  C   UNL     1      45.075 -13.660   7.278  1.00  0.00     0.227 C 
BRANCH  20  21
HETATM   21  N   UNL     1      44.165 -13.104   8.267  1.00  0.00    -0.348 N 
HETATM   22  C   UNL     1      44.512 -11.997   9.012  1.00  0.00     0.252 C 
HETATM   23  O   UNL     1      45.530 -11.352   8.775  1.00  0.00    -0.268 OA
HETATM   24  H   UNL     1      43.389 -13.684   8.553  1.00  0.00     0.163 HD
BRANCH  22  25
HETATM   25  C   UNL     1      43.616 -11.619  10.139  1.00  0.00     0.033 A 
HETATM   26  C   UNL     1      42.429 -10.940   9.833  1.00  0.00     0.036 A 
HETATM   27  C   UNL     1      41.568 -10.550  10.858  1.00  0.00     0.012 A 
HETATM   28 BR   UNL     1      39.972  -9.625  10.443  1.00  0.00    -0.051 Br
HETATM   29  C   UNL     1      41.875 -10.834  12.188  1.00  0.00     0.019 A 
HETATM   30  C   UNL     1      43.047 -11.526  12.496  1.00  0.00     0.002 A 
HETATM   31  C   UNL     1      43.915 -11.924  11.475  1.00  0.00     0.017 A 
ENDBRANCH  22  25
ENDBRANCH  20  21
ENDBRANCH   2  20
TORSDOF 5
ENDMDL
MODEL 2
REMARK VINA RESULT:      -9.4      1.925      2.388
REMARK  5 active torsions:
REMARK  status: ('A' for Active; 'I' for Inactive)
REMARK    1  A    between atoms: C_2  and  C_3 
REMARK    2  A    between atoms: N_12  and  N_13 
REMARK       I    between atoms: N_13  and  C_14 
REMARK    3  A    between atoms: C_14  and  C_15 
REMARK    4  A    between atoms: C_15  and  N_16 
REMARK       I    between atoms: N_16  and  C_17 
REMARK    5  A    between atoms: C_17  and  C_18 
ROOT
HETATM    1  N   UNL     1      42.042 -14.136   5.346  1.00  0.00    -0.255 N 
HETATM    2  C   UNL     1      41.146 -13.084   5.349  1.00  0.00     0.254 C 
HETATM    3  O   UNL     1      39.972 -13.173   4.998  1.00  0.00    -0.270 OA
HETATM    4  H   UNL     1      43.043 -13.922   5.324  1.00  0.00     0.191 HD
ENDROOT
BRANCH   1   5
HETATM    5  N   UNL     1      41.645 -15.320   4.754  1.00  0.00    -0.167 N 
HETATM    6  C   UNL     1      40.942 -16.296   5.404  1.00  0.00     0.345 A 
HETATM    7  N   UNL     1      40.807 -17.364   4.540  1.00  0.00    -0.319 N 
HETATM    8  O   UNL     1      40.498 -16.278   6.542  1.00  0.00    -0.245 OA
HETATM    9  C   UNL     1      41.566 -17.179   3.312  1.00  0.00     0.141 A 
HETATM   10  H   UNL     1      40.462 -18.252   4.879  1.00  0.00     0.166 HD
HETATM   11  C   UNL     1      40.625 -17.140   2.100  1.00  0.00     0.055 C 
HETATM   12  C   UNL     1      42.095 -15.737   3.525  1.00  0.00     0.279 A 
HETATM   13  O   UNL     1      42.773 -15.096   2.730  1.00  0.00    -0.268 OA
BRANCH   9  14
HETATM   14  C   UNL     1      42.639 -18.258   3.209  1.00  0.00    -0.021 A 
HETATM   15  C   UNL     1      42.762 -19.025   2.033  1.00  0.00     0.010 A 
HETATM   16  C   UNL     1      43.723 -20.032   1.918  1.00  0.00     0.001 A 
HETATM   17  C   UNL     1      44.576 -20.303   2.982  1.00  0.00     0.000 A 
HETATM   18  C   UNL     1      44.463 -19.574   4.160  1.00  0.00     0.001 A 
HETATM   19  C   UNL     1      43.500 -18.565   4.277  1.00  0.00     0.010 A 
ENDBRANCH   9  14
ENDBRANCH   1   5
BRANCH   2  20
HETATM   20  C   UNL     1      41.750 -11.777   5.867  1.00  0.00     0.227 C 
BRANCH  20  21
HETATM   21  N   UNL     1      41.986 -11.792   7.302  1.00  0.00    -0.348 N 
HETATM   22  C   UNL     1      42.220 -10.626   7.998  1.00  0.00     0.252 C 
HETATM   23  O   UNL     1      42.096  -9.523   7.471  1.00  0.00    -0.268 OA
HETATM   24  H   UNL     1      42.207 -12.685   7.721  1.00  0.00     0.163 HD
BRANCH  22  25
HETATM   25  C   UNL     1      42.655 -10.747   9.417  1.00  0.00     0.033 A 
HETATM   26  C   UNL     1      41.663 -10.900  10.395  1.00  0.00     0.036 A 
HETATM   27  C   UNL     1      42.023 -10.999  11.738  1.00  0.00     0.012 A 
HETATM   28 BR   UNL     1      40.682 -11.195  13.057  1.00  0.00    -0.051 Br
HETATM   29  C   UNL     1      43.363 -10.953  12.119  1.00  0.00     0.019 A 
HETATM   30  C   UNL     1      44.354 -10.819  11.146  1.00  0.00     0.002 A 
HETATM   31  C   UNL     1      44.004 -10.721   9.796  1.00  0.00     0.017 A 
ENDBRANCH  22  25
ENDBRANCH  20  21
ENDBRANCH   2  20
TORSDOF 5
ENDMDL
MODEL 3
REMARK VINA RESULT:      -9.2      1.687      2.165
REMARK  5 active torsions:
REMARK  status: ('A' for Active; 'I' for Inactive)
REMARK    1  A    between atoms: C_2  and  C_3 
REMARK    2  A    between atoms: N_12  and  N_13 
REMARK       I    between atoms: N_13  and  C_14 
REMARK    3  A    between atoms: C_14  and  C_15 
REMARK    4  A    between atoms: C_15  and  N_16 
REMARK       I    between atoms: N_16  and  C_17 
REMARK    5  A    between atoms: C_17  and  C_18 
ROOT
HETATM    1  N   UNL     1      43.331 -13.423   6.192  1.00  0.00    -0.255 N 
HETATM    2  C   UNL     1      44.275 -14.158   6.883  1.00  0.00     0.254 C 
HETATM    3  O   UNL     1      44.631 -15.293   6.574  1.00  0.00    -0.270 OA
HETATM    4  H   UNL     1      42.855 -12.659   6.681  1.00  0.00     0.191 HD
ENDROOT
BRANCH   1   5
HETATM    5  N   UNL     1      42.619 -14.062   5.193  1.00  0.00    -0.167 N 
HETATM    6  C   UNL     1      41.485 -14.791   5.418  1.00  0.00     0.345 A 
HETATM    7  N   UNL     1      41.105 -15.357   4.217  1.00  0.00    -0.319 N 
HETATM    8  O   UNL     1      40.883 -14.951   6.468  1.00  0.00    -0.245 OA
HETATM    9  C   UNL     1      42.086 -15.133   3.166  1.00  0.00     0.141 A 
HETATM   10  H   UNL     1      40.385 -16.067   4.195  1.00  0.00     0.166 HD
HETATM   11  C   UNL     1      41.475 -14.306   2.027  1.00  0.00     0.055 C 
HETATM   12  C   UNL     1      43.087 -14.212   3.911  1.00  0.00     0.279 A 
HETATM   13  O   UNL     1      44.094 -13.708   3.428  1.00  0.00    -0.268 OA
BRANCH   9  14
HETATM   14  C   UNL     1      42.652 -16.472   2.704  1.00  0.00    -0.021 A 
HETATM   15  C   UNL     1      42.608 -17.592   3.558  1.00  0.00     0.010 A 
HETATM   16  C   UNL     1      43.136 -18.825   3.169  1.00  0.00     0.001 A 
HETATM   17  C   UNL     1      43.731 -18.964   1.920  1.00  0.00     0.000 A 
HETATM   18  C   UNL     1      43.805 -17.869   1.066  1.00  0.00     0.001 A 
HETATM   19  C   UNL     1      43.277 -16.633   1.455  1.00  0.00     0.010 A 
ENDBRANCH   9  14
ENDBRANCH   1   5
BRANCH   2  20
HETATM   20  C   UNL     1      44.872 -13.408   8.075  1.00  0.00     0.227 C 
BRANCH  20  21
HETATM   21  N   UNL     1      43.940 -12.464   8.674  1.00  0.00    -0.348 N 
HETATM   22  C   UNL     1      44.389 -11.328   9.311  1.00  0.00     0.252 C 
HETATM   23  O   UNL     1      45.570 -10.990   9.274  1.00  0.00    -0.268 OA
HETATM   24  H   UNL     1      42.992 -12.784   8.815  1.00  0.00     0.163 HD
BRANCH  22  25
HETATM   25  C   UNL     1      43.390 -10.527  10.073  1.00  0.00     0.033 A 
HETATM   26  C   UNL     1      43.653 -10.269  11.424  1.00  0.00     0.036 A 
HETATM   27  C   UNL     1      42.738  -9.539  12.182  1.00  0.00     0.012 A 
HETATM   28 BR   UNL     1      43.089  -9.201  14.009  1.00  0.00    -0.051 Br
HETATM   29  C   UNL     1      41.564  -9.058  11.605  1.00  0.00     0.019 A 
HETATM   30  C   UNL     1      41.308  -9.297  10.254  1.00  0.00     0.002 A 
HETATM   31  C   UNL     1      42.220 -10.026   9.486  1.00  0.00     0.017 A 
ENDBRANCH  22  25
ENDBRANCH  20  21
ENDBRANCH   2  20
TORSDOF 5
ENDMDL
MODEL 4
REMARK VINA RESULT:      -9.0      5.390      8.549
REMARK  5 active torsions:
REMARK  status: ('A' for Active; 'I' for Inactive)
REMARK    1  A    between atoms: C_2  and  C_3 
REMARK    2  A    between atoms: N_12  and  N_13 
REMARK       I    between atoms: N_13  and  C_14 
REMARK    3  A    between atoms: C_14  and  C_15 
REMARK    4  A    between atoms: C_15  and  N_16 
REMARK       I    between atoms: N_16  and  C_17 
REMARK    5  A    between atoms: C_17  and  C_18 
ROOT
HETATM    1  N   UNL     1      41.057 -14.245   2.262  1.00  0.00    -0.255 N 
HETATM    2  C   UNL     1      42.216 -13.985   2.969  1.00  0.00     0.254 C 
HETATM    3  O   UNL     1      43.110 -13.236   2.581  1.00  0.00    -0.270 OA
HETATM    4  H   UNL     1      40.540 -15.103   2.473  1.00  0.00     0.191 HD
ENDROOT
BRANCH   1   5
HETATM    5  N   UNL     1      40.970 -13.769   0.967  1.00  0.00    -0.167 N 
HETATM    6  C   UNL     1      40.301 -12.628   0.620  1.00  0.00     0.345 A 
HETATM    7  N   UNL     1      40.343 -12.518  -0.756  1.00  0.00    -0.319 N 
HETATM    8  O   UNL     1      39.746 -11.824   1.353  1.00  0.00    -0.245 OA
HETATM    9  C   UNL     1      40.929 -13.692  -1.386  1.00  0.00     0.141 A 
HETATM   10  H   UNL     1      39.769 -11.833  -1.228  1.00  0.00     0.166 HD
HETATM   11  C   UNL     1      42.211 -13.315  -2.139  1.00  0.00     0.055 C 
HETATM   12  C   UNL     1      41.357 -14.497  -0.132  1.00  0.00     0.279 A 
HETATM   13  O   UNL     1      41.946 -15.572  -0.136  1.00  0.00    -0.268 OA
BRANCH   9  14
HETATM   14  C   UNL     1      39.885 -14.369  -2.269  1.00  0.00    -0.021 A 
HETATM   15  C   UNL     1      40.263 -15.413  -3.137  1.00  0.00     0.010 A 
HETATM   16  C   UNL     1      39.333 -16.038  -3.971  1.00  0.00     0.001 A 
HETATM   17  C   UNL     1      38.005 -15.625  -3.964  1.00  0.00     0.000 A 
HETATM   18  C   UNL     1      37.610 -14.584  -3.130  1.00  0.00     0.001 A 
HETATM   19  C   UNL     1      38.542 -13.957  -2.295  1.00  0.00     0.010 A 
ENDBRANCH   9  14
ENDBRANCH   1   5
BRANCH   2  20
HETATM   20  C   UNL     1      42.276 -14.705   4.317  1.00  0.00     0.227 C 
BRANCH  20  21
HETATM   21  N   UNL     1      43.111 -15.896   4.286  1.00  0.00    -0.348 N 
HETATM   22  C   UNL     1      42.652 -17.073   3.736  1.00  0.00     0.252 C 
HETATM   23  O   UNL     1      41.587 -17.129   3.125  1.00  0.00    -0.268 OA
HETATM   24  H   UNL     1      43.927 -15.899   4.882  1.00  0.00     0.163 HD
BRANCH  22  25
HETATM   25  C   UNL     1      43.484 -18.293   3.930  1.00  0.00     0.033 A 
HETATM   26  C   UNL     1      43.457 -19.269   2.926  1.00  0.00     0.036 A 
HETATM   27  C   UNL     1      44.206 -20.436   3.072  1.00  0.00     0.012 A 
HETATM   28 BR   UNL     1      44.160 -21.757   1.720  1.00  0.00    -0.051 Br
HETATM   29  C   UNL     1      44.988 -20.639   4.208  1.00  0.00     0.019 A 
HETATM   30  C   UNL     1      45.032 -19.660   5.202  1.00  0.00     0.002 A 
HETATM   31  C   UNL     1      44.287 -18.486   5.063  1.00  0.00     0.017 A 
ENDBRANCH  22  25
ENDBRANCH  20  21
ENDBRANCH   2  20
TORSDOF 5
ENDMDL
MODEL 5
REMARK VINA RESULT:      -8.7      2.334      3.362
REMARK  5 active torsions:
REMARK  status: ('A' for Active; 'I' for Inactive)
REMARK    1  A    between atoms: C_2  and  C_3 
REMARK    2  A    between atoms: N_12  and  N_13 
REMARK       I    between atoms: N_13  and  C_14 
REMARK    3  A    between atoms: C_14  and  C_15 
REMARK    4  A    between atoms: C_15  and  N_16 
REMARK       I    between atoms: N_16  and  C_17 
REMARK    5  A    between atoms: C_17  and  C_18 
ROOT
HETATM    1  N   UNL     1      42.190 -14.632   6.474  1.00  0.00    -0.255 N 
HETATM    2  C   UNL     1      42.016 -14.048   5.234  1.00  0.00     0.254 C 
HETATM    3  O   UNL     1      42.386 -14.549   4.175  1.00  0.00    -0.270 OA
HETATM    4  H   UNL     1      42.168 -14.030   7.303  1.00  0.00     0.191 HD
ENDROOT
BRANCH   1   5
HETATM    5  N   UNL     1      42.977 -15.766   6.549  1.00  0.00    -0.167 N 
HETATM    6  C   UNL     1      44.340 -15.739   6.650  1.00  0.00     0.345 A 
HETATM    7  N   UNL     1      44.791 -17.043   6.604  1.00  0.00    -0.319 N 
HETATM    8  O   UNL     1      45.072 -14.767   6.757  1.00  0.00    -0.245 OA
HETATM    9  C   UNL     1      43.722 -17.987   6.315  1.00  0.00     0.141 A 
HETATM   10  H   UNL     1      45.778 -17.236   6.500  1.00  0.00     0.166 HD
HETATM   11  C   UNL     1      43.533 -18.961   7.485  1.00  0.00     0.055 C 
HETATM   12  C   UNL     1      42.500 -17.032   6.314  1.00  0.00     0.279 A 
HETATM   13  O   UNL     1      41.331 -17.363   6.151  1.00  0.00    -0.268 OA
BRANCH   9  14
HETATM   14  C   UNL     1      44.004 -18.684   4.987  1.00  0.00    -0.021 A 
HETATM   15  C   UNL     1      43.667 -18.055   3.771  1.00  0.00     0.010 A 
HETATM   16  C   UNL     1      43.897 -18.678   2.543  1.00  0.00     0.001 A 
HETATM   17  C   UNL     1      44.458 -19.949   2.502  1.00  0.00     0.000 A 
HETATM   18  C   UNL     1      44.783 -20.599   3.688  1.00  0.00     0.001 A 
HETATM   19  C   UNL     1      44.552 -19.977   4.919  1.00  0.00     0.010 A 
ENDBRANCH   9  14
ENDBRANCH   1   5
BRANCH   2  20
HETATM   20  C   UNL     1      41.280 -12.708   5.294  1.00  0.00     0.227 C 
BRANCH  20  21
HETATM   21  N   UNL     1      41.291 -12.115   6.623  1.00  0.00    -0.348 N 
HETATM   22  C   UNL     1      41.451 -10.758   6.796  1.00  0.00     0.252 C 
HETATM   23  O   UNL     1      41.443  -9.980   5.845  1.00  0.00    -0.268 OA
HETATM   24  H   UNL     1      41.418 -12.744   7.404  1.00  0.00     0.163 HD
BRANCH  22  25
HETATM   25  C   UNL     1      41.658 -10.261   8.185  1.00  0.00     0.033 A 
HETATM   26  C   UNL     1      42.770 -10.739   8.891  1.00  0.00     0.036 A 
HETATM   27  C   UNL     1      42.994 -10.316  10.201  1.00  0.00     0.012 A 
HETATM   28 BR   UNL     1      44.489 -10.970  11.156  1.00  0.00    -0.051 Br
HETATM   29  C   UNL     1      42.124  -9.415  10.813  1.00  0.00     0.019 A 
HETATM   30  C   UNL     1      41.026  -8.923  10.107  1.00  0.00     0.002 A 
HETATM   31  C   UNL     1      40.794  -9.340   8.793  1.00  0.00     0.017 A 
ENDBRANCH  22  25
ENDBRANCH  20  21
ENDBRANCH   2  20
TORSDOF 5
ENDMDL
MODEL 6
REMARK VINA RESULT:      -8.7      5.420      8.962
REMARK  5 active torsions:
REMARK  status: ('A' for Active; 'I' for Inactive)
REMARK    1  A    between atoms: C_2  and  C_3 
REMARK    2  A    between atoms: N_12  and  N_13 
REMARK       I    between atoms: N_13  and  C_14 
REMARK    3  A    between atoms: C_14  and  C_15 
REMARK    4  A    between atoms: C_15  and  N_16 
REMARK       I    between atoms: N_16  and  C_17 
REMARK    5  A    between atoms: C_17  and  C_18 
ROOT
HETATM    1  N   UNL     1      41.694 -14.073   1.978  1.00  0.00    -0.255 N 
HETATM    2  C   UNL     1      40.667 -13.192   2.256  1.00  0.00     0.254 C 
HETATM    3  O   UNL     1      40.236 -12.965   3.384  1.00  0.00    -0.270 OA
HETATM    4  H   UNL     1      41.766 -14.454   1.030  1.00  0.00     0.191 HD
ENDROOT
BRANCH   1   5
HETATM    5  N   UNL     1      42.153 -14.875   3.007  1.00  0.00    -0.167 N 
HETATM    6  C   UNL     1      43.308 -14.637   3.697  1.00  0.00     0.345 A 
HETATM    7  N   UNL     1      43.496 -15.686   4.576  1.00  0.00    -0.319 N 
HETATM    8  O   UNL     1      44.072 -13.691   3.591  1.00  0.00    -0.245 OA
HETATM    9  C   UNL     1      42.523 -16.750   4.381  1.00  0.00     0.141 A 
HETATM   10  H   UNL     1      44.375 -15.788   5.065  1.00  0.00     0.166 HD
HETATM   11  C   UNL     1      41.664 -16.930   5.640  1.00  0.00     0.055 C 
HETATM   12  C   UNL     1      41.618 -16.106   3.300  1.00  0.00     0.279 A 
HETATM   13  O   UNL     1      40.607 -16.606   2.818  1.00  0.00    -0.268 OA
BRANCH   9  14
HETATM   14  C   UNL     1      43.242 -18.026   3.953  1.00  0.00    -0.021 A 
HETATM   15  C   UNL     1      43.997 -18.761   4.889  1.00  0.00     0.010 A 
HETATM   16  C   UNL     1      44.681 -19.921   4.520  1.00  0.00     0.001 A 
HETATM   17  C   UNL     1      44.635 -20.368   3.205  1.00  0.00     0.000 A 
HETATM   18  C   UNL     1      43.912 -19.650   2.257  1.00  0.00     0.001 A 
HETATM   19  C   UNL     1      43.227 -18.487   2.625  1.00  0.00     0.010 A 
ENDBRANCH   9  14
ENDBRANCH   1   5
BRANCH   2  20
HETATM   20  C   UNL     1      40.121 -12.487   1.013  1.00  0.00     0.227 C 
BRANCH  20  21
HETATM   21  N   UNL     1      39.672 -13.416  -0.013  1.00  0.00    -0.348 N 
HETATM   22  C   UNL     1      40.480 -13.745  -1.079  1.00  0.00     0.252 C 
HETATM   23  O   UNL     1      41.654 -13.389  -1.135  1.00  0.00    -0.268 OA
HETATM   24  H   UNL     1      38.682 -13.619  -0.045  1.00  0.00     0.163 HD
BRANCH  22  25
HETATM   25  C   UNL     1      39.870 -14.535  -2.185  1.00  0.00     0.033 A 
HETATM   26  C   UNL     1      38.647 -14.095  -2.707  1.00  0.00     0.036 A 
HETATM   27  C   UNL     1      38.030 -14.812  -3.730  1.00  0.00     0.012 A 
HETATM   28 BR   UNL     1      36.373 -14.222  -4.425  1.00  0.00    -0.051 Br
HETATM   29  C   UNL     1      38.623 -15.963  -4.246  1.00  0.00     0.019 A 
HETATM   30  C   UNL     1      39.851 -16.395  -3.742  1.00  0.00     0.002 A 
HETATM   31  C   UNL     1      40.478 -15.680  -2.717  1.00  0.00     0.017 A 
ENDBRANCH  22  25
ENDBRANCH  20  21
ENDBRANCH   2  20
TORSDOF 5
ENDMDL
MODEL 7
REMARK VINA RESULT:      -8.4      5.549      8.632
REMARK  5 active torsions:
REMARK  status: ('A' for Active; 'I' for Inactive)
REMARK    1  A    between atoms: C_2  and  C_3 
REMARK    2  A    between atoms: N_12  and  N_13 
REMARK       I    between atoms: N_13  and  C_14 
REMARK    3  A    between atoms: C_14  and  C_15 
REMARK    4  A    between atoms: C_15  and  N_16 
REMARK       I    between atoms: N_16  and  C_17 
REMARK    5  A    between atoms: C_17  and  C_18 
ROOT
HETATM    1  N   UNL     1      40.594 -15.715   3.425  1.00  0.00    -0.255 N 
HETATM    2  C   UNL     1      40.048 -16.106   2.217  1.00  0.00     0.254 C 
HETATM    3  O   UNL     1      40.452 -17.055   1.550  1.00  0.00    -0.270 OA
HETATM    4  H   UNL     1      40.438 -14.753   3.741  1.00  0.00     0.191 HD
ENDROOT
BRANCH   1   5
HETATM    5  N   UNL     1      41.771 -16.319   3.827  1.00  0.00    -0.167 N 
HETATM    6  C   UNL     1      43.011 -15.916   3.414  1.00  0.00     0.345 A 
HETATM    7  N   UNL     1      43.935 -16.801   3.935  1.00  0.00    -0.319 N 
HETATM    8  O   UNL     1      43.301 -14.962   2.710  1.00  0.00    -0.245 OA
HETATM    9  C   UNL     1      43.303 -17.930   4.601  1.00  0.00     0.141 A 
HETATM   10  H   UNL     1      44.894 -16.779   3.616  1.00  0.00     0.166 HD
HETATM   11  C   UNL     1      43.671 -17.949   6.091  1.00  0.00     0.055 C 
HETATM   12  C   UNL     1      41.813 -17.512   4.506  1.00  0.00     0.279 A 
HETATM   13  O   UNL     1      40.862 -18.133   4.969  1.00  0.00    -0.268 OA
BRANCH   9  14
HETATM   14  C   UNL     1      43.666 -19.220   3.872  1.00  0.00    -0.021 A 
HETATM   15  C   UNL     1      44.467 -20.190   4.507  1.00  0.00     0.010 A 
HETATM   16  C   UNL     1      44.830 -21.371   3.856  1.00  0.00     0.001 A 
HETATM   17  C   UNL     1      44.411 -21.605   2.552  1.00  0.00     0.000 A 
HETATM   18  C   UNL     1      43.635 -20.654   1.896  1.00  0.00     0.001 A 
HETATM   19  C   UNL     1      43.271 -19.470   2.547  1.00  0.00     0.010 A 
ENDBRANCH   9  14
ENDBRANCH   1   5
BRANCH   2  20
HETATM   20  C   UNL     1      38.853 -15.252   1.790  1.00  0.00     0.227 C 
BRANCH  20  21
HETATM   21  N   UNL     1      39.114 -14.473   0.589  1.00  0.00    -0.348 N 
HETATM   22  C   UNL     1      38.171 -13.606   0.083  1.00  0.00     0.252 C 
HETATM   23  O   UNL     1      37.138 -13.345   0.696  1.00  0.00    -0.268 OA
HETATM   24  H   UNL     1      39.896 -14.762   0.017  1.00  0.00     0.163 HD
BRANCH  22  25
HETATM   25  C   UNL     1      38.434 -13.007  -1.255  1.00  0.00     0.033 A 
HETATM   26  C   UNL     1      39.763 -12.947  -1.695  1.00  0.00     0.036 A 
HETATM   27  C   UNL     1      40.060 -12.378  -2.933  1.00  0.00     0.012 A 
HETATM   28 BR   UNL     1      41.855 -12.288  -3.519  1.00  0.00    -0.051 Br
HETATM   29  C   UNL     1      39.044 -11.873  -3.742  1.00  0.00     0.019 A 
HETATM   30  C   UNL     1      37.717 -11.949  -3.316  1.00  0.00     0.002 A 
HETATM   31  C   UNL     1      37.410 -12.519  -2.077  1.00  0.00     0.017 A 
ENDBRANCH  22  25
ENDBRANCH  20  21
ENDBRANCH   2  20
TORSDOF 5
ENDMDL
MODEL 8
REMARK VINA RESULT:      -8.4      3.886      9.721
REMARK  5 active torsions:
REMARK  status: ('A' for Active; 'I' for Inactive)
REMARK    1  A    between atoms: C_2  and  C_3 
REMARK    2  A    between atoms: N_12  and  N_13 
REMARK       I    between atoms: N_13  and  C_14 
REMARK    3  A    between atoms: C_14  and  C_15 
REMARK    4  A    between atoms: C_15  and  N_16 
REMARK       I    between atoms: N_16  and  C_17 
REMARK    5  A    between atoms: C_17  and  C_18 
ROOT
HETATM    1  N   UNL     1      40.738 -11.767   7.592  1.00  0.00    -0.255 N 
HETATM    2  C   UNL     1      39.708 -11.885   6.680  1.00  0.00     0.254 C 
HETATM    3  O   UNL     1      38.902 -10.992   6.425  1.00  0.00    -0.270 OA
HETATM    4  H   UNL     1      41.138 -12.623   7.988  1.00  0.00     0.191 HD
ENDROOT
BRANCH   1   5
HETATM    5  N   UNL     1      40.766 -10.640   8.392  1.00  0.00    -0.167 N 
HETATM    6  C   UNL     1      41.429  -9.491   8.061  1.00  0.00     0.345 A 
HETATM    7  N   UNL     1      41.321  -8.621   9.129  1.00  0.00    -0.319 N 
HETATM    8  O   UNL     1      42.026  -9.233   7.028  1.00  0.00    -0.245 OA
HETATM    9  C   UNL     1      40.694  -9.243  10.285  1.00  0.00     0.141 A 
HETATM   10  H   UNL     1      41.878  -7.778   9.155  1.00  0.00     0.166 HD
HETATM   11  C   UNL     1      39.380  -8.530  10.633  1.00  0.00     0.055 C 
HETATM   12  C   UNL     1      40.319 -10.625   9.691  1.00  0.00     0.279 A 
HETATM   13  O   UNL     1      39.720 -11.520  10.277  1.00  0.00    -0.268 OA
BRANCH   9  14
HETATM   14  C   UNL     1      41.686  -9.280  11.444  1.00  0.00    -0.021 A 
HETATM   15  C   UNL     1      41.543  -8.390  12.528  1.00  0.00     0.010 A 
HETATM   16  C   UNL     1      42.447  -8.389  13.591  1.00  0.00     0.001 A 
HETATM   17  C   UNL     1      43.523  -9.270  13.591  1.00  0.00     0.000 A 
HETATM   18  C   UNL     1      43.698 -10.145  12.525  1.00  0.00     0.001 A 
HETATM   19  C   UNL     1      42.793 -10.146  11.457  1.00  0.00     0.010 A 
ENDBRANCH   9  14
ENDBRANCH   1   5
BRANCH   2  20
HETATM   20  C   UNL     1      39.674 -13.244   5.978  1.00  0.00     0.227 C 
BRANCH  20  21
HETATM   21  N   UNL     1      40.916 -13.988   6.123  1.00  0.00    -0.348 N 
HETATM   22  C   UNL     1      41.255 -14.988   5.238  1.00  0.00     0.252 C 
HETATM   23  O   UNL     1      40.605 -15.195   4.216  1.00  0.00    -0.268 OA
HETATM   24  H   UNL     1      41.393 -13.912   7.011  1.00  0.00     0.163 HD
BRANCH  22  25
HETATM   25  C   UNL     1      42.433 -15.834   5.576  1.00  0.00     0.033 A 
HETATM   26  C   UNL     1      42.681 -16.959   4.778  1.00  0.00     0.036 A 
HETATM   27  C   UNL     1      43.762 -17.790   5.067  1.00  0.00     0.012 A 
HETATM   28 BR   UNL     1      44.088 -19.314   3.996  1.00  0.00    -0.051 Br
HETATM   29  C   UNL     1      44.605 -17.509   6.142  1.00  0.00     0.019 A 
HETATM   30  C   UNL     1      44.372 -16.380   6.927  1.00  0.00     0.002 A 
HETATM   31  C   UNL     1      43.292 -15.538   6.643  1.00  0.00     0.017 A 
ENDBRANCH  22  25
ENDBRANCH  20  21
ENDBRANCH   2  20
TORSDOF 5
ENDMDL
MODEL 9
REMARK VINA RESULT:      -8.3      5.579      8.918
REMARK  5 active torsions:
REMARK  status: ('A' for Active; 'I' for Inactive)
REMARK    1  A    between atoms: C_2  and  C_3 
REMARK    2  A    between atoms: N_12  and  N_13 
REMARK       I    between atoms: N_13  and  C_14 
REMARK    3  A    between atoms: C_14  and  C_15 
REMARK    4  A    between atoms: C_15  and  N_16 
REMARK       I    between atoms: N_16  and  C_17 
REMARK    5  A    between atoms: C_17  and  C_18 
ROOT
HETATM    1  N   UNL     1      40.928 -14.658   2.071  1.00  0.00    -0.255 N 
HETATM    2  C   UNL     1      42.101 -14.191   2.631  1.00  0.00     0.254 C 
HETATM    3  O   UNL     1      42.848 -13.376   2.093  1.00  0.00    -0.270 OA
HETATM    4  H   UNL     1      40.551 -15.551   2.405  1.00  0.00     0.191 HD
ENDROOT
BRANCH   1   5
HETATM    5  N   UNL     1      40.660 -14.322   0.757  1.00  0.00    -0.167 N 
HETATM    6  C   UNL     1      41.040 -15.083  -0.314  1.00  0.00     0.345 A 
HETATM    7  N   UNL     1      40.692 -14.397  -1.461  1.00  0.00    -0.319 N 
HETATM    8  O   UNL     1      41.594 -16.171  -0.310  1.00  0.00    -0.245 OA
HETATM    9  C   UNL     1      40.193 -13.061  -1.174  1.00  0.00     0.141 A 
HETATM   10  H   UNL     1      41.031 -14.709  -2.361  1.00  0.00     0.166 HD
HETATM   11  C   UNL     1      38.736 -12.921  -1.636  1.00  0.00     0.055 C 
HETATM   12  C   UNL     1      40.178 -13.094   0.376  1.00  0.00     0.279 A 
HETATM   13  O   UNL     1      39.791 -12.192   1.109  1.00  0.00    -0.268 OA
BRANCH   9  14
HETATM   14  C   UNL     1      41.125 -12.025  -1.795  1.00  0.00    -0.021 A 
HETATM   15  C   UNL     1      42.289 -11.620  -1.110  1.00  0.00     0.010 A 
HETATM   16  C   UNL     1      43.150 -10.660  -1.646  1.00  0.00     0.001 A 
HETATM   17  C   UNL     1      42.862 -10.074  -2.873  1.00  0.00     0.000 A 
HETATM   18  C   UNL     1      41.711 -10.443  -3.560  1.00  0.00     0.001 A 
HETATM   19  C   UNL     1      40.846 -11.404  -3.024  1.00  0.00     0.010 A 
ENDBRANCH   9  14
ENDBRANCH   1   5
BRANCH   2  20
HETATM   20  C   UNL     1      42.380 -14.766   4.020  1.00  0.00     0.227 C 
BRANCH  20  21
HETATM   21  N   UNL     1      43.183 -15.979   3.980  1.00  0.00    -0.348 N 
HETATM   22  C   UNL     1      42.600 -17.212   3.785  1.00  0.00     0.252 C 
HETATM   23  O   UNL     1      41.412 -17.327   3.493  1.00  0.00    -0.268 OA
HETATM   24  H   UNL     1      44.128 -15.915   4.332  1.00  0.00     0.163 HD
BRANCH  22  25
HETATM   25  C   UNL     1      43.461 -18.415   3.963  1.00  0.00     0.033 A 
HETATM   26  C   UNL     1      43.464 -19.375   2.942  1.00  0.00     0.036 A 
HETATM   27  C   UNL     1      44.239 -20.526   3.074  1.00  0.00     0.012 A 
HETATM   28 BR   UNL     1      44.234 -21.824   1.699  1.00  0.00    -0.051 Br
HETATM   29  C   UNL     1      45.019 -20.729   4.211  1.00  0.00     0.019 A 
HETATM   30  C   UNL     1      45.033 -19.767   5.222  1.00  0.00     0.002 A 
HETATM   31  C   UNL     1      44.260 -18.608   5.098  1.00  0.00     0.017 A 
ENDBRANCH  22  25
ENDBRANCH  20  21
ENDBRANCH   2  20
TORSDOF 5
ENDMDL
MODEL 10
REMARK VINA RESULT:      -8.1      5.430      8.238
REMARK  5 active torsions:
REMARK  status: ('A' for Active; 'I' for Inactive)
REMARK    1  A    between atoms: C_2  and  C_3 
REMARK    2  A    between atoms: N_12  and  N_13 
REMARK       I    between atoms: N_13  and  C_14 
REMARK    3  A    between atoms: C_14  and  C_15 
REMARK    4  A    between atoms: C_15  and  N_16 
REMARK       I    between atoms: N_16  and  C_17 
REMARK    5  A    between atoms: C_17  and  C_18 
ROOT
HETATM    1  N   UNL     1      41.329 -15.123   1.544  1.00  0.00    -0.255 N 
HETATM    2  C   UNL     1      41.739 -15.752   0.384  1.00  0.00     0.254 C 
HETATM    3  O   UNL     1      42.440 -16.761   0.354  1.00  0.00    -0.270 OA
HETATM    4  H   UNL     1      41.049 -14.139   1.491  1.00  0.00     0.191 HD
ENDROOT
BRANCH   1   5
HETATM    5  N   UNL     1      41.876 -15.551   2.739  1.00  0.00    -0.167 N 
HETATM    6  C   UNL     1      43.001 -15.008   3.296  1.00  0.00     0.345 A 
HETATM    7  N   UNL     1      43.306 -15.742   4.426  1.00  0.00    -0.319 N 
HETATM    8  O   UNL     1      43.656 -14.056   2.904  1.00  0.00    -0.245 OA
HETATM    9  C   UNL     1      42.454 -16.913   4.569  1.00  0.00     0.141 A 
HETATM   10  H   UNL     1      44.192 -15.609   4.894  1.00  0.00     0.166 HD
HETATM   11  C   UNL     1      41.624 -16.820   5.856  1.00  0.00     0.055 C 
HETATM   12  C   UNL     1      41.481 -16.698   3.382  1.00  0.00     0.279 A 
HETATM   13  O   UNL     1      40.530 -17.416   3.094  1.00  0.00    -0.268 OA
BRANCH   9  14
HETATM   14  C   UNL     1      43.308 -18.176   4.491  1.00  0.00    -0.021 A 
HETATM   15  C   UNL     1      43.637 -18.731   3.238  1.00  0.00     0.010 A 
HETATM   16  C   UNL     1      44.401 -19.896   3.137  1.00  0.00     0.001 A 
HETATM   17  C   UNL     1      44.843 -20.539   4.287  1.00  0.00     0.000 A 
HETATM   18  C   UNL     1      44.516 -20.023   5.536  1.00  0.00     0.001 A 
HETATM   19  C   UNL     1      43.750 -18.856   5.638  1.00  0.00     0.010 A 
ENDBRANCH   9  14
ENDBRANCH   1   5
BRANCH   2  20
HETATM   20  C   UNL     1      41.209 -15.085  -0.886  1.00  0.00     0.227 C 
BRANCH  20  21
HETATM   21  N   UNL     1      41.908 -13.851  -1.211  1.00  0.00    -0.348 N 
HETATM   22  C   UNL     1      41.463 -12.635  -0.741  1.00  0.00     0.252 C 
HETATM   23  O   UNL     1      40.555 -12.553   0.083  1.00  0.00    -0.268 OA
HETATM   24  H   UNL     1      42.572 -13.888  -1.972  1.00  0.00     0.163 HD
BRANCH  22  25
HETATM   25  C   UNL     1      42.109 -11.408  -1.286  1.00  0.00     0.033 A 
HETATM   26  C   UNL     1      41.972 -11.151  -2.657  1.00  0.00     0.036 A 
HETATM   27  C   UNL     1      42.575 -10.025  -3.215  1.00  0.00     0.012 A 
HETATM   28 BR   UNL     1      42.399  -9.686  -5.067  1.00  0.00    -0.051 Br
HETATM   29  C   UNL     1      43.309  -9.146  -2.420  1.00  0.00     0.019 A 
HETATM   30  C   UNL     1      43.431  -9.389  -1.051  1.00  0.00     0.002 A 
HETATM   31  C   UNL     1      42.829 -10.514  -0.482  1.00  0.00     0.017 A 
ENDBRANCH  22  25
ENDBRANCH  20  21
ENDBRANCH   2  20
TORSDOF 5
ENDMDL
