MODEL 1
REMARK VINA RESULT:      -9.9      0.000      0.000
REMARK  6 active torsions:
REMARK  status: ('A' for Active; 'I' for Inactive)
REMARK    1  A    between atoms: C_2  and  N_3 
REMARK    2  A    between atoms: C_11  and  C_12 
REMARK    3  A    between atoms: C_14  and  C_15 
REMARK    4  A    between atoms: C_15  and  O_16 
REMARK    5  A    between atoms: O_16  and  C_17 
REMARK    6  A    between atoms: C_19  and  C_20 
ROOT
HETATM    1  N   UNL     1      44.130 -20.516   3.421  1.00  0.00    -0.067 N 
HETATM    2  H   UNL     1      43.116 -20.572   3.582  1.00  0.00     0.280 HD
HETATM    3  C   UNL     1      44.762 -20.294   4.795  1.00  0.00     0.281 C 
HETATM    4  C   UNL     1      44.395 -18.949   5.320  1.00  0.00     0.018 A 
HETATM    5  C   UNL     1      43.904 -17.904   4.560  1.00  0.00    -0.023 A 
HETATM    6  C   UNL     1      43.607 -16.765   5.376  1.00  0.00     0.073 A 
HETATM    7  C   UNL     1      43.879 -17.003   6.702  1.00  0.00     0.088 A 
HETATM    8  N   UNL     1      43.622 -16.117   7.683  1.00  0.00    -0.357 N 
HETATM    9  C   UNL     1      43.363 -14.729   7.349  1.00  0.00     0.243 C 
HETATM   10  N   UNL     1      42.828 -14.605   6.015  1.00  0.00    -0.330 N 
HETATM   11  C   UNL     1      43.041 -15.486   4.995  1.00  0.00     0.256 C 
HETATM   12  O   UNL     1      42.744 -15.213   3.836  1.00  0.00    -0.267 OA
HETATM   13  S   UNL     1      44.536 -18.549   6.969  1.00  0.00    -0.074 SA
HETATM   14  C   UNL     1      43.671 -18.048   3.086  1.00  0.00     0.068 C 
HETATM   15  C   UNL     1      44.361 -19.301   2.516  1.00  0.00     0.240 C 
HETATM   16  H   UNL     1      44.066 -16.235   8.591  1.00  0.00     0.162 HD
HETATM   17  H   UNL     1      42.462 -13.706   5.738  1.00  0.00     0.165 HD
ENDROOT
BRANCH   9  18
HETATM   18  C   UNL     1      44.537 -13.820   7.528  1.00  0.00     0.095 A 
HETATM   19  O   UNL     1      44.450 -12.952   8.583  1.00  0.00    -0.313 OA
HETATM   20  C   UNL     1      45.591 -12.206   8.597  1.00  0.00     0.077 A 
HETATM   21  C   UNL     1      46.413 -12.587   7.556  1.00  0.00     0.037 A 
HETATM   22  C   UNL     1      45.738 -13.628   6.872  1.00  0.00     0.039 A 
BRANCH  20  23
HETATM   23  C   UNL     1      45.710 -11.185   9.672  1.00  0.00     0.240 C 
BRANCH  23  24
HETATM   24  O   UNL     1      44.525 -10.393   9.604  1.00  0.00    -0.345 OA
BRANCH  24  25
HETATM   25  C   UNL     1      43.683 -10.433  10.679  1.00  0.00     0.070 A 
HETATM   26  C   UNL     1      42.362 -10.887  10.677  1.00  0.00     0.052 A 
HETATM   27  C   UNL     1      41.599 -10.877  11.861  1.00  0.00     0.050 A 
HETATM   28  C   UNL     1      42.181 -10.403  13.046  1.00  0.00     0.016 A 
HETATM   29  C   UNL     1      43.498  -9.948  13.050  1.00  0.00     0.004 A 
HETATM   30  C   UNL     1      44.241  -9.965  11.871  1.00  0.00     0.037 A 
BRANCH  27  31
HETATM   31  C   UNL     1      40.171 -11.367  11.873  1.00  0.00     0.417 C 
HETATM   32  F   UNL     1      39.267 -10.390  12.168  1.00  0.00    -0.166 F 
HETATM   33  F   UNL     1      39.786 -11.880  10.672  1.00  0.00    -0.166 F 
HETATM   34  F   UNL     1      39.966 -12.354  12.787  1.00  0.00    -0.166 F 
ENDBRANCH  27  31
ENDBRANCH  24  25
ENDBRANCH  23  24
ENDBRANCH  20  23
ENDBRANCH   9  18
BRANCH   1  35
HETATM   35  C   UNL     1      44.568 -21.798   2.758  1.00  0.00     0.231 C 
HETATM   36  C   UNL     1      43.988 -21.916   1.361  1.00  0.00     0.034 C 
ENDBRANCH   1  35
TORSDOF 6
ENDMDL
MODEL 2
REMARK VINA RESULT:      -9.8      5.713      9.078
REMARK  6 active torsions:
REMARK  status: ('A' for Active; 'I' for Inactive)
REMARK    1  A    between atoms: C_2  and  N_3 
REMARK    2  A    between atoms: C_11  and  C_12 
REMARK    3  A    between atoms: C_14  and  C_15 
REMARK    4  A    between atoms: C_15  and  O_16 
REMARK    5  A    between atoms: O_16  and  C_17 
REMARK    6  A    between atoms: C_19  and  C_20 
ROOT
HETATM    1  N   UNL     1      40.597 -13.357   0.022  1.00  0.00    -0.067 N 
HETATM    2  H   UNL     1      39.810 -12.906   0.508  1.00  0.00     0.280 HD
HETATM    3  C   UNL     1      40.492 -14.847   0.345  1.00  0.00     0.281 C 
HETATM    4  C   UNL     1      40.764 -15.082   1.791  1.00  0.00     0.018 A 
HETATM    5  C   UNL     1      41.394 -14.189   2.638  1.00  0.00    -0.023 A 
HETATM    6  C   UNL     1      41.457 -14.700   3.974  1.00  0.00     0.073 A 
HETATM    7  C   UNL     1      40.872 -15.939   4.074  1.00  0.00     0.088 A 
HETATM    8  N   UNL     1      40.738 -16.605   5.237  1.00  0.00    -0.357 N 
HETATM    9  C   UNL     1      41.517 -16.200   6.392  1.00  0.00     0.243 C 
HETATM   10  N   UNL     1      41.864 -14.801   6.320  1.00  0.00    -0.330 N 
HETATM   11  C   UNL     1      41.990 -14.077   5.170  1.00  0.00     0.256 C 
HETATM   12  O   UNL     1      42.499 -12.961   5.164  1.00  0.00    -0.267 OA
HETATM   13  S   UNL     1      40.302 -16.517   2.580  1.00  0.00    -0.074 SA
HETATM   14  C   UNL     1      41.859 -12.846   2.158  1.00  0.00     0.068 C 
HETATM   15  C   UNL     1      41.876 -12.761   0.621  1.00  0.00     0.240 C 
HETATM   16  H   UNL     1      40.536 -17.603   5.220  1.00  0.00     0.162 HD
HETATM   17  H   UNL     1      42.265 -14.374   7.143  1.00  0.00     0.165 HD
ENDROOT
BRANCH   9  18
HETATM   18  C   UNL     1      42.735 -17.029   6.640  1.00  0.00     0.095 A 
HETATM   19  O   UNL     1      42.585 -18.372   6.417  1.00  0.00    -0.313 OA
HETATM   20  C   UNL     1      43.780 -18.970   6.690  1.00  0.00     0.077 A 
HETATM   21  C   UNL     1      44.698 -18.022   7.090  1.00  0.00     0.037 A 
HETATM   22  C   UNL     1      44.029 -16.773   7.053  1.00  0.00     0.039 A 
BRANCH  20  23
HETATM   23  C   UNL     1      43.844 -20.446   6.515  1.00  0.00     0.240 C 
BRANCH  23  24
HETATM   24  O   UNL     1      44.856 -20.689   5.539  1.00  0.00    -0.345 OA
BRANCH  24  25
HETATM   25  C   UNL     1      44.541 -20.430   4.234  1.00  0.00     0.070 A 
HETATM   26  C   UNL     1      44.392 -19.169   3.654  1.00  0.00     0.052 A 
HETATM   27  C   UNL     1      44.067 -19.040   2.290  1.00  0.00     0.050 A 
HETATM   28  C   UNL     1      43.890 -20.198   1.517  1.00  0.00     0.016 A 
HETATM   29  C   UNL     1      44.037 -21.458   2.093  1.00  0.00     0.004 A 
HETATM   30  C   UNL     1      44.361 -21.569   3.445  1.00  0.00     0.037 A 
BRANCH  27  31
HETATM   31  C   UNL     1      43.905 -17.683   1.651  1.00  0.00     0.417 C 
HETATM   32  F   UNL     1      43.645 -16.690   2.548  1.00  0.00    -0.166 F 
HETATM   33  F   UNL     1      45.019 -17.290   0.974  1.00  0.00    -0.166 F 
HETATM   34  F   UNL     1      42.885 -17.648   0.750  1.00  0.00    -0.166 F 
ENDBRANCH  27  31
ENDBRANCH  24  25
ENDBRANCH  23  24
ENDBRANCH  20  23
ENDBRANCH   9  18
BRANCH   1  35
HETATM   35  C   UNL     1      40.474 -13.050  -1.449  1.00  0.00     0.231 C 
HETATM   36  C   UNL     1      41.331 -13.989  -2.278  1.00  0.00     0.034 C 
ENDBRANCH   1  35
TORSDOF 6
ENDMDL
MODEL 3
REMARK VINA RESULT:      -9.7      2.708      3.379
REMARK  6 active torsions:
REMARK  status: ('A' for Active; 'I' for Inactive)
REMARK    1  A    between atoms: C_2  and  N_3 
REMARK    2  A    between atoms: C_11  and  C_12 
REMARK    3  A    between atoms: C_14  and  C_15 
REMARK    4  A    between atoms: C_15  and  O_16 
REMARK    5  A    between atoms: O_16  and  C_17 
REMARK    6  A    between atoms: C_19  and  C_20 
ROOT
HETATM    1  N   UNL     1      43.677 -19.914   3.119  1.00  0.00    -0.067 N 
HETATM    2  H   UNL     1      42.752 -20.363   3.080  1.00  0.00     0.280 HD
HETATM    3  C   UNL     1      43.753 -19.225   4.481  1.00  0.00     0.281 C 
HETATM    4  C   UNL     1      42.786 -18.092   4.540  1.00  0.00     0.018 A 
HETATM    5  C   UNL     1      42.196 -17.491   3.445  1.00  0.00    -0.023 A 
HETATM    6  C   UNL     1      41.281 -16.465   3.848  1.00  0.00     0.073 A 
HETATM    7  C   UNL     1      41.220 -16.346   5.216  1.00  0.00     0.088 A 
HETATM    8  N   UNL     1      40.383 -15.502   5.850  1.00  0.00    -0.357 N 
HETATM    9  C   UNL     1      39.750 -14.426   5.111  1.00  0.00     0.243 C 
HETATM   10  N   UNL     1      39.622 -14.759   3.713  1.00  0.00    -0.330 N 
HETATM   11  C   UNL     1      40.429 -15.623   3.031  1.00  0.00     0.256 C 
HETATM   12  O   UNL     1      40.407 -15.694   1.807  1.00  0.00    -0.267 OA
HETATM   13  S   UNL     1      42.283 -17.405   6.014  1.00  0.00    -0.074 SA
HETATM   14  C   UNL     1      42.475 -17.958   2.048  1.00  0.00     0.068 C 
HETATM   15  C   UNL     1      43.705 -18.881   1.986  1.00  0.00     0.240 C 
HETATM   16  H   UNL     1      40.553 -15.272   6.827  1.00  0.00     0.162 HD
HETATM   17  H   UNL     1      39.054 -14.156   3.137  1.00  0.00     0.165 HD
ENDROOT
BRANCH   9  18
HETATM   18  C   UNL     1      40.406 -13.093   5.273  1.00  0.00     0.095 A 
HETATM   19  O   UNL     1      40.359 -12.566   6.536  1.00  0.00    -0.313 OA
HETATM   20  C   UNL     1      40.997 -11.362   6.503  1.00  0.00     0.077 A 
HETATM   21  C   UNL     1      41.452 -11.107   5.227  1.00  0.00     0.037 A 
HETATM   22  C   UNL     1      41.078 -12.222   4.436  1.00  0.00     0.039 A 
BRANCH  20  23
HETATM   23  C   UNL     1      41.064 -10.605   7.783  1.00  0.00     0.240 C 
BRANCH  23  24
HETATM   24  O   UNL     1      42.436 -10.265   7.975  1.00  0.00    -0.345 OA
BRANCH  24  25
HETATM   25  C   UNL     1      43.012 -10.636   9.158  1.00  0.00     0.070 A 
HETATM   26  C   UNL     1      42.683 -10.152  10.425  1.00  0.00     0.052 A 
HETATM   27  C   UNL     1      43.357 -10.621  11.570  1.00  0.00     0.050 A 
HETATM   28  C   UNL     1      44.369 -11.581  11.421  1.00  0.00     0.016 A 
HETATM   29  C   UNL     1      44.701 -12.064  10.158  1.00  0.00     0.004 A 
HETATM   30  C   UNL     1      44.024 -11.591   9.035  1.00  0.00     0.037 A 
BRANCH  27  31
HETATM   31  C   UNL     1      43.008 -10.108  12.946  1.00  0.00     0.417 C 
HETATM   32  F   UNL     1      44.027  -9.428  13.543  1.00  0.00    -0.166 F 
HETATM   33  F   UNL     1      41.949  -9.253  12.930  1.00  0.00    -0.166 F 
HETATM   34  F   UNL     1      42.672 -11.108  13.805  1.00  0.00    -0.166 F 
ENDBRANCH  27  31
ENDBRANCH  24  25
ENDBRANCH  23  24
ENDBRANCH  20  23
ENDBRANCH   9  18
BRANCH   1  35
HETATM   35  C   UNL     1      44.723 -20.983   2.926  1.00  0.00     0.231 C 
HETATM   36  C   UNL     1      44.356 -21.907   1.780  1.00  0.00     0.034 C 
ENDBRANCH   1  35
TORSDOF 6
ENDMDL
MODEL 4
REMARK VINA RESULT:      -9.3      3.078      3.781
REMARK  6 active torsions:
REMARK  status: ('A' for Active; 'I' for Inactive)
REMARK    1  A    between atoms: C_2  and  N_3 
REMARK    2  A    between atoms: C_11  and  C_12 
REMARK    3  A    between atoms: C_14  and  C_15 
REMARK    4  A    between atoms: C_15  and  O_16 
REMARK    5  A    between atoms: O_16  and  C_17 
REMARK    6  A    between atoms: C_19  and  C_20 
ROOT
HETATM    1  N   UNL     1      43.668 -19.260   3.472  1.00  0.00    -0.067 N 
HETATM    2  H   UNL     1      42.743 -19.654   3.254  1.00  0.00     0.280 HD
HETATM    3  C   UNL     1      43.580 -18.754   4.912  1.00  0.00     0.281 C 
HETATM    4  C   UNL     1      42.652 -17.592   4.995  1.00  0.00     0.018 A 
HETATM    5  C   UNL     1      42.235 -16.827   3.921  1.00  0.00    -0.023 A 
HETATM    6  C   UNL     1      41.308 -15.817   4.334  1.00  0.00     0.073 A 
HETATM    7  C   UNL     1      41.065 -15.870   5.686  1.00  0.00     0.088 A 
HETATM    8  N   UNL     1      40.177 -15.073   6.312  1.00  0.00    -0.357 N 
HETATM    9  C   UNL     1      39.685 -13.882   5.646  1.00  0.00     0.243 C 
HETATM   10  N   UNL     1      39.737 -14.028   4.211  1.00  0.00    -0.330 N 
HETATM   11  C   UNL     1      40.601 -14.837   3.532  1.00  0.00     0.256 C 
HETATM   12  O   UNL     1      40.744 -14.751   2.317  1.00  0.00    -0.267 OA
HETATM   13  S   UNL     1      41.975 -17.074   6.468  1.00  0.00    -0.074 SA
HETATM   14  C   UNL     1      42.686 -17.127   2.522  1.00  0.00     0.068 C 
HETATM   15  C   UNL     1      43.883 -18.094   2.500  1.00  0.00     0.240 C 
HETATM   16  H   UNL     1      40.221 -14.978   7.324  1.00  0.00     0.162 HD
HETATM   17  H   UNL     1      39.272 -13.329   3.651  1.00  0.00     0.165 HD
ENDROOT
BRANCH   9  18
HETATM   18  C   UNL     1      40.356 -12.614   6.067  1.00  0.00     0.095 A 
HETATM   19  O   UNL     1      39.815 -12.002   7.166  1.00  0.00    -0.313 OA
HETATM   20  C   UNL     1      40.540 -10.873   7.407  1.00  0.00     0.077 A 
HETATM   21  C   UNL     1      41.544 -10.753   6.469  1.00  0.00     0.037 A 
HETATM   22  C   UNL     1      41.430 -11.874   5.610  1.00  0.00     0.039 A 
BRANCH  20  23
HETATM   23  C   UNL     1      40.120 -10.044   8.568  1.00  0.00     0.240 C 
BRANCH  23  24
HETATM   24  O   UNL     1      40.393 -10.821   9.734  1.00  0.00    -0.345 OA
BRANCH  24  25
HETATM   25  C   UNL     1      41.611 -10.647  10.331  1.00  0.00     0.070 A 
HETATM   26  C   UNL     1      42.813 -11.242   9.944  1.00  0.00     0.052 A 
HETATM   27  C   UNL     1      44.004 -10.976  10.648  1.00  0.00     0.050 A 
HETATM   28  C   UNL     1      43.968 -10.104  11.747  1.00  0.00     0.016 A 
HETATM   29  C   UNL     1      42.769  -9.511  12.136  1.00  0.00     0.004 A 
HETATM   30  C   UNL     1      41.599  -9.783  11.429  1.00  0.00     0.037 A 
BRANCH  27  31
HETATM   31  C   UNL     1      45.310 -11.611  10.239  1.00  0.00     0.417 C 
HETATM   32  F   UNL     1      45.805 -12.476  11.168  1.00  0.00    -0.166 F 
HETATM   33  F   UNL     1      45.203 -12.325   9.084  1.00  0.00    -0.166 F 
HETATM   34  F   UNL     1      46.292 -10.692  10.024  1.00  0.00    -0.166 F 
ENDBRANCH  27  31
ENDBRANCH  24  25
ENDBRANCH  23  24
ENDBRANCH  20  23
ENDBRANCH   9  18
BRANCH   1  35
HETATM   35  C   UNL     1      44.695 -20.346   3.278  1.00  0.00     0.231 C 
HETATM   36  C   UNL     1      44.209 -21.388   2.287  1.00  0.00     0.034 C 
ENDBRANCH   1  35
TORSDOF 6
ENDMDL
MODEL 5
REMARK VINA RESULT:      -9.2      2.763      3.510
REMARK  6 active torsions:
REMARK  status: ('A' for Active; 'I' for Inactive)
REMARK    1  A    between atoms: C_2  and  N_3 
REMARK    2  A    between atoms: C_11  and  C_12 
REMARK    3  A    between atoms: C_14  and  C_15 
REMARK    4  A    between atoms: C_15  and  O_16 
REMARK    5  A    between atoms: O_16  and  C_17 
REMARK    6  A    between atoms: C_19  and  C_20 
ROOT
HETATM    1  N   UNL     1      44.005 -20.069   4.664  1.00  0.00    -0.067 N 
HETATM    2  H   UNL     1      43.092 -20.538   4.733  1.00  0.00     0.280 HD
HETATM    3  C   UNL     1      44.047 -19.059   5.810  1.00  0.00     0.281 C 
HETATM    4  C   UNL     1      43.054 -17.973   5.577  1.00  0.00     0.018 A 
HETATM    5  C   UNL     1      42.463 -17.682   4.362  1.00  0.00    -0.023 A 
HETATM    6  C   UNL     1      41.519 -16.611   4.488  1.00  0.00     0.073 A 
HETATM    7  C   UNL     1      41.437 -16.155   5.782  1.00  0.00     0.088 A 
HETATM    8  N   UNL     1      40.573 -15.201   6.179  1.00  0.00    -0.357 N 
HETATM    9  C   UNL     1      39.923 -14.362   5.189  1.00  0.00     0.243 C 
HETATM   10  N   UNL     1      39.822 -15.039   3.919  1.00  0.00    -0.330 N 
HETATM   11  C   UNL     1      40.658 -16.025   3.481  1.00  0.00     0.256 C 
HETATM   12  O   UNL     1      40.653 -16.401   2.314  1.00  0.00    -0.267 OA
HETATM   13  S   UNL     1      42.515 -16.952   6.828  1.00  0.00    -0.074 SA
HETATM   14  C   UNL     1      42.771 -18.477   3.129  1.00  0.00     0.068 C 
HETATM   15  C   UNL     1      44.024 -19.353   3.309  1.00  0.00     0.240 C 
HETATM   16  H   UNL     1      40.725 -14.729   7.068  1.00  0.00     0.162 HD
HETATM   17  H   UNL     1      39.247 -14.614   3.206  1.00  0.00     0.165 HD
ENDROOT
BRANCH   9  18
HETATM   18  C   UNL     1      40.546 -13.014   5.015  1.00  0.00     0.095 A 
HETATM   19  O   UNL     1      40.400 -12.160   6.076  1.00  0.00    -0.313 OA
HETATM   20  C   UNL     1      41.020 -10.990   5.750  1.00  0.00     0.077 A 
HETATM   21  C   UNL     1      41.562 -11.084   4.485  1.00  0.00     0.037 A 
HETATM   22  C   UNL     1      41.263 -12.386   4.014  1.00  0.00     0.039 A 
BRANCH  20  23
HETATM   23  C   UNL     1      40.982  -9.908   6.770  1.00  0.00     0.240 C 
BRANCH  23  24
HETATM   24  O   UNL     1      42.076 -10.152   7.653  1.00  0.00    -0.345 OA
BRANCH  24  25
HETATM   25  C   UNL     1      41.776 -10.437   8.956  1.00  0.00     0.070 A 
HETATM   26  C   UNL     1      42.692 -10.633   9.991  1.00  0.00     0.052 A 
HETATM   27  C   UNL     1      42.248 -10.920  11.296  1.00  0.00     0.050 A 
HETATM   28  C   UNL     1      40.870 -11.010  11.546  1.00  0.00     0.016 A 
HETATM   29  C   UNL     1      39.954 -10.816  10.515  1.00  0.00     0.004 A 
HETATM   30  C   UNL     1      40.409 -10.531   9.228  1.00  0.00     0.037 A 
BRANCH  27  31
HETATM   31  C   UNL     1      43.228 -11.132  12.425  1.00  0.00     0.417 C 
HETATM   32  F   UNL     1      42.666 -11.006  13.660  1.00  0.00    -0.166 F 
HETATM   33  F   UNL     1      43.794 -12.370  12.398  1.00  0.00    -0.166 F 
HETATM   34  F   UNL     1      44.260 -10.245  12.392  1.00  0.00    -0.166 F 
ENDBRANCH  27  31
ENDBRANCH  24  25
ENDBRANCH  23  24
ENDBRANCH  20  23
ENDBRANCH   9  18
BRANCH   1  35
HETATM   35  C   UNL     1      45.079 -21.125   4.753  1.00  0.00     0.231 C 
HETATM   36  C   UNL     1      44.668 -22.386   4.016  1.00  0.00     0.034 C 
ENDBRANCH   1  35
TORSDOF 6
ENDMDL
MODEL 6
REMARK VINA RESULT:      -9.1      6.273      9.332
REMARK  6 active torsions:
REMARK  status: ('A' for Active; 'I' for Inactive)
REMARK    1  A    between atoms: C_2  and  N_3 
REMARK    2  A    between atoms: C_11  and  C_12 
REMARK    3  A    between atoms: C_14  and  C_15 
REMARK    4  A    between atoms: C_15  and  O_16 
REMARK    5  A    between atoms: O_16  and  C_17 
REMARK    6  A    between atoms: C_19  and  C_20 
ROOT
HETATM    1  N   UNL     1      40.891 -13.096  -1.271  1.00  0.00    -0.067 N 
HETATM    2  H   UNL     1      39.965 -12.728  -1.015  1.00  0.00     0.280 HD
HETATM    3  C   UNL     1      40.937 -14.527  -0.737  1.00  0.00     0.281 C 
HETATM    4  C   UNL     1      40.938 -14.522   0.753  1.00  0.00     0.018 A 
HETATM    5  C   UNL     1      41.246 -13.431   1.545  1.00  0.00    -0.023 A 
HETATM    6  C   UNL     1      41.107 -13.746   2.936  1.00  0.00     0.073 A 
HETATM    7  C   UNL     1      40.697 -15.044   3.126  1.00  0.00     0.088 A 
HETATM    8  N   UNL     1      40.425 -15.566   4.338  1.00  0.00    -0.357 N 
HETATM    9  C   UNL     1      40.884 -14.885   5.534  1.00  0.00     0.243 C 
HETATM   10  N   UNL     1      41.034 -13.469   5.302  1.00  0.00    -0.330 N 
HETATM   11  C   UNL     1      41.288 -12.890   4.092  1.00  0.00     0.256 C 
HETATM   12  O   UNL     1      41.622 -11.714   3.999  1.00  0.00    -0.267 OA
HETATM   13  S   UNL     1      40.535 -15.900   1.666  1.00  0.00    -0.074 SA
HETATM   14  C   UNL     1      41.602 -12.103   0.948  1.00  0.00     0.068 C 
HETATM   15  C   UNL     1      41.921 -12.216  -0.554  1.00  0.00     0.240 C 
HETATM   16  H   UNL     1      40.375 -16.577   4.445  1.00  0.00     0.162 HD
HETATM   17  H   UNL     1      41.192 -12.877   6.104  1.00  0.00     0.165 HD
ENDROOT
BRANCH   9  18
HETATM   18  C   UNL     1      42.132 -15.453   6.130  1.00  0.00     0.095 A 
HETATM   19  O   UNL     1      42.222 -16.819   6.107  1.00  0.00    -0.313 OA
HETATM   20  C   UNL     1      43.409 -17.162   6.684  1.00  0.00     0.077 A 
HETATM   21  C   UNL     1      44.082 -16.026   7.082  1.00  0.00     0.037 A 
HETATM   22  C   UNL     1      43.265 -14.927   6.721  1.00  0.00     0.039 A 
BRANCH  20  23
HETATM   23  C   UNL     1      43.716 -18.615   6.768  1.00  0.00     0.240 C 
BRANCH  23  24
HETATM   24  O   UNL     1      44.778 -18.853   5.844  1.00  0.00    -0.345 OA
BRANCH  24  25
HETATM   25  C   UNL     1      44.433 -19.093   4.543  1.00  0.00     0.070 A 
HETATM   26  C   UNL     1      44.354 -20.344   3.927  1.00  0.00     0.052 A 
HETATM   27  C   UNL     1      43.983 -20.453   2.573  1.00  0.00     0.050 A 
HETATM   28  C   UNL     1      43.696 -19.288   1.846  1.00  0.00     0.016 A 
HETATM   29  C   UNL     1      43.776 -18.039   2.458  1.00  0.00     0.004 A 
HETATM   30  C   UNL     1      44.143 -17.947   3.800  1.00  0.00     0.037 A 
BRANCH  27  31
HETATM   31  C   UNL     1      43.891 -21.799   1.895  1.00  0.00     0.417 C 
HETATM   32  F   UNL     1      44.405 -22.817   2.642  1.00  0.00    -0.166 F 
HETATM   33  F   UNL     1      42.607 -22.154   1.616  1.00  0.00    -0.166 F 
HETATM   34  F   UNL     1      44.558 -21.832   0.709  1.00  0.00    -0.166 F 
ENDBRANCH  27  31
ENDBRANCH  24  25
ENDBRANCH  23  24
ENDBRANCH  20  23
ENDBRANCH   9  18
BRANCH   1  35
HETATM   35  C   UNL     1      41.030 -13.009  -2.770  1.00  0.00     0.231 C 
HETATM   36  C   UNL     1      41.334 -14.369  -3.371  1.00  0.00     0.034 C 
ENDBRANCH   1  35
TORSDOF 6
ENDMDL
MODEL 7
REMARK VINA RESULT:      -9.1      8.174     11.297
REMARK  6 active torsions:
REMARK  status: ('A' for Active; 'I' for Inactive)
REMARK    1  A    between atoms: C_2  and  N_3 
REMARK    2  A    between atoms: C_11  and  C_12 
REMARK    3  A    between atoms: C_14  and  C_15 
REMARK    4  A    between atoms: C_15  and  O_16 
REMARK    5  A    between atoms: O_16  and  C_17 
REMARK    6  A    between atoms: C_19  and  C_20 
ROOT
HETATM    1  N   UNL     1      36.611 -13.345  -4.831  1.00  0.00    -0.067 N 
HETATM    2  H   UNL     1      37.385 -13.203  -5.493  1.00  0.00     0.280 HD
HETATM    3  C   UNL     1      36.815 -12.317  -3.718  1.00  0.00     0.281 C 
HETATM    4  C   UNL     1      38.038 -12.643  -2.933  1.00  0.00     0.018 A 
HETATM    5  C   UNL     1      38.678 -13.869  -2.928  1.00  0.00    -0.023 A 
HETATM    6  C   UNL     1      39.851 -13.837  -2.106  1.00  0.00     0.073 A 
HETATM    7  C   UNL     1      40.043 -12.599  -1.540  1.00  0.00     0.088 A 
HETATM    8  N   UNL     1      41.112 -12.288  -0.782  1.00  0.00    -0.357 N 
HETATM    9  C   UNL     1      41.940 -13.347  -0.237  1.00  0.00     0.243 C 
HETATM   10  N   UNL     1      41.874 -14.533  -1.056  1.00  0.00    -0.330 N 
HETATM   11  C   UNL     1      40.825 -14.881  -1.857  1.00  0.00     0.256 C 
HETATM   12  O   UNL     1      40.736 -16.000  -2.352  1.00  0.00    -0.267 OA
HETATM   13  S   UNL     1      38.809 -11.499  -1.936  1.00  0.00    -0.074 SA
HETATM   14  C   UNL     1      38.186 -15.015  -3.760  1.00  0.00     0.068 C 
HETATM   15  C   UNL     1      36.760 -14.770  -4.287  1.00  0.00     0.240 C 
HETATM   16  H   UNL     1      41.079 -11.460  -0.191  1.00  0.00     0.162 HD
HETATM   17  H   UNL     1      42.532 -15.274  -0.863  1.00  0.00     0.165 HD
ENDROOT
BRANCH   9  18
HETATM   18  C   UNL     1      41.658 -13.682   1.192  1.00  0.00     0.095 A 
HETATM   19  O   UNL     1      41.665 -15.018   1.493  1.00  0.00    -0.313 OA
HETATM   20  C   UNL     1      41.390 -15.141   2.823  1.00  0.00     0.077 A 
HETATM   21  C   UNL     1      41.204 -13.893   3.380  1.00  0.00     0.037 A 
HETATM   22  C   UNL     1      41.381 -12.954   2.334  1.00  0.00     0.039 A 
BRANCH  20  23
HETATM   23  C   UNL     1      41.346 -16.523   3.371  1.00  0.00     0.240 C 
BRANCH  23  24
HETATM   24  O   UNL     1      41.975 -17.359   2.400  1.00  0.00    -0.345 OA
BRANCH  24  25
HETATM   25  C   UNL     1      42.820 -18.329   2.863  1.00  0.00     0.070 A 
HETATM   26  C   UNL     1      43.081 -19.557   2.253  1.00  0.00     0.052 A 
HETATM   27  C   UNL     1      43.980 -20.471   2.836  1.00  0.00     0.050 A 
HETATM   28  C   UNL     1      44.611 -20.133   4.044  1.00  0.00     0.016 A 
HETATM   29  C   UNL     1      44.350 -18.909   4.655  1.00  0.00     0.004 A 
HETATM   30  C   UNL     1      43.459 -18.015   4.065  1.00  0.00     0.037 A 
BRANCH  27  31
HETATM   31  C   UNL     1      44.273 -21.801   2.186  1.00  0.00     0.417 C 
HETATM   32  F   UNL     1      43.260 -22.249   1.391  1.00  0.00    -0.166 F 
HETATM   33  F   UNL     1      45.378 -21.759   1.391  1.00  0.00    -0.166 F 
HETATM   34  F   UNL     1      44.499 -22.787   3.095  1.00  0.00    -0.166 F 
ENDBRANCH  27  31
ENDBRANCH  24  25
ENDBRANCH  23  24
ENDBRANCH  20  23
ENDBRANCH   9  18
BRANCH   1  35
HETATM   35  C   UNL     1      35.316 -13.167  -5.584  1.00  0.00     0.231 C 
HETATM   36  C   UNL     1      34.173 -12.849  -4.639  1.00  0.00     0.034 C 
ENDBRANCH   1  35
TORSDOF 6
ENDMDL
MODEL 8
REMARK VINA RESULT:      -9.0      5.664      9.261
REMARK  6 active torsions:
REMARK  status: ('A' for Active; 'I' for Inactive)
REMARK    1  A    between atoms: C_2  and  N_3 
REMARK    2  A    between atoms: C_11  and  C_12 
REMARK    3  A    between atoms: C_14  and  C_15 
REMARK    4  A    between atoms: C_15  and  O_16 
REMARK    5  A    between atoms: O_16  and  C_17 
REMARK    6  A    between atoms: C_19  and  C_20 
ROOT
HETATM    1  N   UNL     1      39.793 -10.015   3.007  1.00  0.00    -0.067 N 
HETATM    2  H   UNL     1      38.843 -10.319   3.258  1.00  0.00     0.280 HD
HETATM    3  C   UNL     1      40.121 -10.710   1.685  1.00  0.00     0.281 C 
HETATM    4  C   UNL     1      40.244 -12.181   1.893  1.00  0.00     0.018 A 
HETATM    5  C   UNL     1      40.430 -12.800   3.115  1.00  0.00    -0.023 A 
HETATM    6  C   UNL     1      40.460 -14.225   2.973  1.00  0.00     0.073 A 
HETATM    7  C   UNL     1      40.290 -14.611   1.665  1.00  0.00     0.088 A 
HETATM    8  N   UNL     1      40.209 -15.898   1.276  1.00  0.00    -0.357 N 
HETATM    9  C   UNL     1      40.645 -16.950   2.175  1.00  0.00     0.243 C 
HETATM   10  N   UNL     1      40.537 -16.535   3.553  1.00  0.00    -0.330 N 
HETATM   11  C   UNL     1      40.591 -15.245   3.995  1.00  0.00     0.256 C 
HETATM   12  O   UNL     1      40.714 -14.977   5.185  1.00  0.00    -0.267 OA
HETATM   13  S   UNL     1      40.153 -13.289   0.604  1.00  0.00    -0.074 SA
HETATM   14  C   UNL     1      40.508 -12.014   4.389  1.00  0.00     0.068 C 
HETATM   15  C   UNL     1      40.717 -10.512   4.125  1.00  0.00     0.240 C 
HETATM   16  H   UNL     1      40.338 -16.131   0.294  1.00  0.00     0.162 HD
HETATM   17  H   UNL     1      40.659 -17.240   4.265  1.00  0.00     0.165 HD
ENDROOT
BRANCH   9  18
HETATM   18  C   UNL     1      42.015 -17.478   1.893  1.00  0.00     0.095 A 
HETATM   19  O   UNL     1      42.288 -18.711   2.421  1.00  0.00    -0.313 OA
HETATM   20  C   UNL     1      43.565 -19.034   2.073  1.00  0.00     0.077 A 
HETATM   21  C   UNL     1      44.119 -18.016   1.325  1.00  0.00     0.037 A 
HETATM   22  C   UNL     1      43.121 -17.017   1.204  1.00  0.00     0.039 A 
BRANCH  20  23
HETATM   23  C   UNL     1      44.076 -20.348   2.548  1.00  0.00     0.240 C 
BRANCH  23  24
HETATM   24  O   UNL     1      45.033 -20.061   3.566  1.00  0.00    -0.345 OA
BRANCH  24  25
HETATM   25  C   UNL     1      44.570 -19.950   4.847  1.00  0.00     0.070 A 
HETATM   26  C   UNL     1      44.274 -18.762   5.519  1.00  0.00     0.052 A 
HETATM   27  C   UNL     1      43.800 -18.787   6.845  1.00  0.00     0.050 A 
HETATM   28  C   UNL     1      43.629 -20.023   7.487  1.00  0.00     0.016 A 
HETATM   29  C   UNL     1      43.925 -21.209   6.819  1.00  0.00     0.004 A 
HETATM   30  C   UNL     1      44.393 -21.168   5.507  1.00  0.00     0.037 A 
BRANCH  27  31
HETATM   31  C   UNL     1      43.474 -17.511   7.581  1.00  0.00     0.417 C 
HETATM   32  F   UNL     1      42.193 -17.087   7.389  1.00  0.00    -0.166 F 
HETATM   33  F   UNL     1      43.627 -17.633   8.929  1.00  0.00    -0.166 F 
HETATM   34  F   UNL     1      44.270 -16.473   7.204  1.00  0.00    -0.166 F 
ENDBRANCH  27  31
ENDBRANCH  24  25
ENDBRANCH  23  24
ENDBRANCH  20  23
ENDBRANCH   9  18
BRANCH   1  35
HETATM   35  C   UNL     1      39.791  -8.511   2.911  1.00  0.00     0.231 C 
HETATM   36  C   UNL     1      41.108  -7.930   3.392  1.00  0.00     0.034 C 
ENDBRANCH   1  35
TORSDOF 6
ENDMDL
MODEL 9
REMARK VINA RESULT:      -8.9      7.684     10.074
REMARK  6 active torsions:
REMARK  status: ('A' for Active; 'I' for Inactive)
REMARK    1  A    between atoms: C_2  and  N_3 
REMARK    2  A    between atoms: C_11  and  C_12 
REMARK    3  A    between atoms: C_14  and  C_15 
REMARK    4  A    between atoms: C_15  and  O_16 
REMARK    5  A    between atoms: O_16  and  C_17 
REMARK    6  A    between atoms: C_19  and  C_20 
ROOT
HETATM    1  N   UNL     1      44.211 -20.016   4.339  1.00  0.00    -0.067 N 
HETATM    2  H   UNL     1      43.347 -20.513   4.590  1.00  0.00     0.280 HD
HETATM    3  C   UNL     1      44.137 -18.661   5.042  1.00  0.00     0.281 C 
HETATM    4  C   UNL     1      43.047 -17.833   4.453  1.00  0.00     0.018 A 
HETATM    5  C   UNL     1      42.452 -18.058   3.226  1.00  0.00    -0.023 A 
HETATM    6  C   UNL     1      41.407 -17.109   2.977  1.00  0.00     0.073 A 
HETATM    7  C   UNL     1      41.260 -16.227   4.020  1.00  0.00     0.088 A 
HETATM    8  N   UNL     1      40.301 -15.282   4.063  1.00  0.00    -0.357 N 
HETATM    9  C   UNL     1      39.590 -14.923   2.851  1.00  0.00     0.243 C 
HETATM   10  N   UNL     1      39.575 -16.018   1.912  1.00  0.00    -0.330 N 
HETATM   11  C   UNL     1      40.509 -17.011   1.843  1.00  0.00     0.256 C 
HETATM   12  O   UNL     1      40.560 -17.782   0.890  1.00  0.00    -0.267 OA
HETATM   13  S   UNL     1      42.393 -16.486   5.262  1.00  0.00    -0.074 SA
HETATM   14  C   UNL     1      42.854 -19.211   2.357  1.00  0.00     0.068 C 
HETATM   15  C   UNL     1      44.183 -19.839   2.816  1.00  0.00     0.240 C 
HETATM   16  H   UNL     1      40.393 -14.509   4.719  1.00  0.00     0.162 HD
HETATM   17  H   UNL     1      38.974 -15.937   1.105  1.00  0.00     0.165 HD
ENDROOT
BRANCH   9  18
HETATM   18  C   UNL     1      40.083 -13.675   2.190  1.00  0.00     0.095 A 
HETATM   19  O   UNL     1      39.284 -13.186   1.192  1.00  0.00    -0.313 OA
HETATM   20  C   UNL     1      39.877 -12.060   0.705  1.00  0.00     0.077 A 
HETATM   21  C   UNL     1      41.056 -11.821   1.381  1.00  0.00     0.037 A 
HETATM   22  C   UNL     1      41.186 -12.856   2.340  1.00  0.00     0.039 A 
BRANCH  20  23
HETATM   23  C   UNL     1      39.172 -11.357  -0.402  1.00  0.00     0.240 C 
BRANCH  23  24
HETATM   24  O   UNL     1      40.046 -11.407  -1.528  1.00  0.00    -0.345 OA
BRANCH  24  25
HETATM   25  C   UNL     1      40.118 -12.589  -2.212  1.00  0.00     0.070 A 
HETATM   26  C   UNL     1      39.039 -13.365  -2.636  1.00  0.00     0.052 A 
HETATM   27  C   UNL     1      39.252 -14.568  -3.337  1.00  0.00     0.050 A 
HETATM   28  C   UNL     1      40.567 -14.980  -3.604  1.00  0.00     0.016 A 
HETATM   29  C   UNL     1      41.645 -14.208  -3.180  1.00  0.00     0.004 A 
HETATM   30  C   UNL     1      41.418 -13.019  -2.488  1.00  0.00     0.037 A 
BRANCH  27  31
HETATM   31  C   UNL     1      38.093 -15.416  -3.803  1.00  0.00     0.417 C 
HETATM   32  F   UNL     1      37.547 -14.987  -4.976  1.00  0.00    -0.166 F 
HETATM   33  F   UNL     1      38.448 -16.714  -4.011  1.00  0.00    -0.166 F 
HETATM   34  F   UNL     1      37.072 -15.443  -2.904  1.00  0.00    -0.166 F 
ENDBRANCH  27  31
ENDBRANCH  24  25
ENDBRANCH  23  24
ENDBRANCH  20  23
ENDBRANCH   9  18
BRANCH   1  35
HETATM   35  C   UNL     1      45.380 -20.860   4.781  1.00  0.00     0.231 C 
HETATM   36  C   UNL     1      44.969 -22.310   4.963  1.00  0.00     0.034 C 
ENDBRANCH   1  35
TORSDOF 6
ENDMDL
MODEL 10
REMARK VINA RESULT:      -8.8      7.152     10.204
REMARK  6 active torsions:
REMARK  status: ('A' for Active; 'I' for Inactive)
REMARK    1  A    between atoms: C_2  and  N_3 
REMARK    2  A    between atoms: C_11  and  C_12 
REMARK    3  A    between atoms: C_14  and  C_15 
REMARK    4  A    between atoms: C_15  and  O_16 
REMARK    5  A    between atoms: O_16  and  C_17 
REMARK    6  A    between atoms: C_19  and  C_20 
ROOT
HETATM    1  N   UNL     1      40.427 -11.474  -3.918  1.00  0.00    -0.067 N 
HETATM    2  H   UNL     1      39.788 -12.165  -4.333  1.00  0.00     0.280 HD
HETATM    3  C   UNL     1      41.502 -12.281  -3.190  1.00  0.00     0.281 C 
HETATM    4  C   UNL     1      40.912 -12.990  -2.021  1.00  0.00     0.018 A 
HETATM    5  C   UNL     1      39.699 -12.683  -1.432  1.00  0.00    -0.023 A 
HETATM    6  C   UNL     1      39.401 -13.585  -0.360  1.00  0.00     0.073 A 
HETATM    7  C   UNL     1      40.389 -14.526  -0.197  1.00  0.00     0.088 A 
HETATM    8  N   UNL     1      40.315 -15.531   0.698  1.00  0.00    -0.357 N 
HETATM    9  C   UNL     1      39.344 -15.468   1.773  1.00  0.00     0.243 C 
HETATM   10  N   UNL     1      38.208 -14.660   1.401  1.00  0.00    -0.330 N 
HETATM   11  C   UNL     1      38.226 -13.647   0.486  1.00  0.00     0.256 C 
HETATM   12  O   UNL     1      37.291 -12.861   0.378  1.00  0.00    -0.267 OA
HETATM   13  S   UNL     1      41.689 -14.305  -1.270  1.00  0.00    -0.074 SA
HETATM   14  C   UNL     1      38.831 -11.577  -1.953  1.00  0.00     0.068 C 
HETATM   15  C   UNL     1      39.596 -10.657  -2.923  1.00  0.00     0.240 C 
HETATM   16  H   UNL     1      41.162 -16.035   0.951  1.00  0.00     0.162 HD
HETATM   17  H   UNL     1      37.401 -14.678   2.007  1.00  0.00     0.165 HD
ENDROOT
BRANCH   9  18
HETATM   18  C   UNL     1      39.900 -15.016   3.085  1.00  0.00     0.095 A 
HETATM   19  O   UNL     1      40.681 -15.933   3.736  1.00  0.00    -0.313 OA
HETATM   20  C   UNL     1      41.098 -15.362   4.902  1.00  0.00     0.077 A 
HETATM   21  C   UNL     1      40.589 -14.085   5.007  1.00  0.00     0.037 A 
HETATM   22  C   UNL     1      39.823 -13.859   3.837  1.00  0.00     0.039 A 
BRANCH  20  23
HETATM   23  C   UNL     1      41.969 -16.192   5.778  1.00  0.00     0.240 C 
BRANCH  23  24
HETATM   24  O   UNL     1      43.218 -16.314   5.101  1.00  0.00    -0.345 OA
BRANCH  24  25
HETATM   25  C   UNL     1      43.632 -17.575   4.774  1.00  0.00     0.070 A 
HETATM   26  C   UNL     1      43.465 -18.205   3.539  1.00  0.00     0.052 A 
HETATM   27  C   UNL     1      43.942 -19.514   3.332  1.00  0.00     0.050 A 
HETATM   28  C   UNL     1      44.587 -20.181   4.384  1.00  0.00     0.016 A 
HETATM   29  C   UNL     1      44.754 -19.556   5.617  1.00  0.00     0.004 A 
HETATM   30  C   UNL     1      44.277 -18.259   5.807  1.00  0.00     0.037 A 
BRANCH  27  31
HETATM   31  C   UNL     1      43.770 -20.205   2.001  1.00  0.00     0.417 C 
HETATM   32  F   UNL     1      42.521 -20.717   1.815  1.00  0.00    -0.166 F 
HETATM   33  F   UNL     1      43.991 -19.371   0.948  1.00  0.00    -0.166 F 
HETATM   34  F   UNL     1      44.629 -21.249   1.841  1.00  0.00    -0.166 F 
ENDBRANCH  27  31
ENDBRANCH  24  25
ENDBRANCH  23  24
ENDBRANCH  20  23
ENDBRANCH   9  18
BRANCH   1  35
HETATM   35  C   UNL     1      40.970 -10.614  -5.031  1.00  0.00     0.231 C 
HETATM   36  C   UNL     1      42.441 -10.309  -4.818  1.00  0.00     0.034 C 
ENDBRANCH   1  35
TORSDOF 6
ENDMDL
