MODEL 1
REMARK VINA RESULT:     -10.1      0.000      0.000
REMARK  7 active torsions:
REMARK  status: ('A' for Active; 'I' for Inactive)
REMARK    1  A    between atoms: C_8  and  C_9 
REMARK    2  A    between atoms: C_9  and  C_10 
REMARK    3  A    between atoms: C_10  and  N_11 
REMARK    4  A    between atoms: C_10  and  C_19 
REMARK       I    between atoms: N_11  and  C_12 
REMARK    5  A    between atoms: C_12  and  C_13 
REMARK       I    between atoms: C_19  and  N_20 
REMARK    6  A    between atoms: N_20  and  N_21 
REMARK       I    between atoms: N_21  and  C_22 
REMARK       I    between atoms: C_22  and  N_23 
REMARK    7  A    between atoms: N_23  and  C_24 
ROOT
HETATM    1  C   UNL     1      43.763 -15.687   6.455  1.00  0.00     0.183 C 
ENDROOT
BRANCH   1   2
HETATM    2  C   UNL     1      44.931 -16.660   6.705  1.00  0.00     0.076 C 
BRANCH   2   3
HETATM    3  C   UNL     1      44.486 -18.058   7.020  1.00  0.00    -0.028 A 
HETATM    4  C   UNL     1      44.593 -19.202   6.164  1.00  0.00    -0.002 A 
HETATM    5  C   UNL     1      45.103 -19.414   4.867  1.00  0.00     0.014 A 
HETATM    6  C   UNL     1      44.049 -20.288   6.850  1.00  0.00     0.042 A 
HETATM    7  C   UNL     1      45.049 -20.695   4.304  1.00  0.00     0.001 A 
HETATM    8  C   UNL     1      44.496 -21.758   5.014  1.00  0.00     0.002 A 
HETATM    9  C   UNL     1      43.986 -21.575   6.302  1.00  0.00     0.030 A 
HETATM   10  N   UNL     1      43.641 -19.829   8.079  1.00  0.00    -0.365 N 
HETATM   11  H   UNL     1      43.220 -20.406   8.794  1.00  0.00     0.165 HD
HETATM   12  C   UNL     1      43.899 -18.489   8.194  1.00  0.00     0.096 A 
ENDBRANCH   2   3
ENDBRANCH   1   2
BRANCH   1  13
HETATM   13  N   UNL     1      43.184 -15.857   5.116  1.00  0.00    -0.343 N 
HETATM   14  C   UNL     1      42.062 -16.622   4.885  1.00  0.00     0.259 C 
HETATM   15  O   UNL     1      41.332 -16.956   5.820  1.00  0.00    -0.267 OA
HETATM   16  H   UNL     1      43.804 -15.733   4.321  1.00  0.00     0.163 HD
BRANCH  14  17
HETATM   17  C   UNL     1      41.801 -16.982   3.499  1.00  0.00     0.072 A 
HETATM   18  S   UNL     1      40.650 -16.148   2.539  1.00  0.00    -0.097 SA
HETATM   19  C   UNL     1      40.953 -17.143   1.183  1.00  0.00     0.050 A 
HETATM   20  C   UNL     1      41.920 -18.088   1.443  1.00  0.00     0.009 A 
HETATM   21  C   UNL     1      42.408 -17.995   2.778  1.00  0.00     0.025 A 
ENDBRANCH  14  17
ENDBRANCH   1  13
BRANCH   1  22
HETATM   22  C   UNL     1      44.259 -14.244   6.704  1.00  0.00     0.259 C 
HETATM   23  N   UNL     1      44.340 -13.867   8.039  1.00  0.00    -0.264 N 
HETATM   24  H   UNL     1      44.374 -14.624   8.728  1.00  0.00     0.190 HD
HETATM   25  O   UNL     1      44.694 -13.519   5.806  1.00  0.00    -0.269 OA
BRANCH  23  26
HETATM   26  N   UNL     1      45.120 -12.726   8.296  1.00  0.00    -0.249 N 
HETATM   27  C   UNL     1      44.746 -11.697   9.128  1.00  0.00     0.339 C 
HETATM   28  N   UNL     1      43.676 -11.981   9.939  1.00  0.00    -0.308 N 
HETATM   29  O   UNL     1      45.391 -10.654   9.103  1.00  0.00    -0.245 OA
HETATM   30  H   UNL     1      43.217 -12.857   9.738  1.00  0.00     0.170 HD
HETATM   31  H   UNL     1      45.805 -12.483   7.579  1.00  0.00     0.192 HD
BRANCH  28  32
HETATM   32  C   UNL     1      43.140 -11.180  10.967  1.00  0.00     0.036 A 
HETATM   33  C   UNL     1      43.912 -10.573  11.962  1.00  0.00     0.031 A 
HETATM   34  C   UNL     1      43.311  -9.811  12.970  1.00  0.00     0.026 A 
HETATM   35  C   UNL     1      41.929  -9.653  12.987  1.00  0.00     0.034 A 
HETATM   36 CL   UNL     1      41.187  -8.726  14.232  1.00  0.00    -0.084 Cl
HETATM   37  C   UNL     1      41.145 -10.247  12.001  1.00  0.00     0.026 A 
HETATM   38  C   UNL     1      41.750 -11.007  10.993  1.00  0.00     0.031 A 
ENDBRANCH  28  32
ENDBRANCH  23  26
ENDBRANCH   1  22
TORSDOF 7
ENDMDL
MODEL 2
REMARK VINA RESULT:      -9.4      2.523      4.417
REMARK  7 active torsions:
REMARK  status: ('A' for Active; 'I' for Inactive)
REMARK    1  A    between atoms: C_8  and  C_9 
REMARK    2  A    between atoms: C_9  and  C_10 
REMARK    3  A    between atoms: C_10  and  N_11 
REMARK    4  A    between atoms: C_10  and  C_19 
REMARK       I    between atoms: N_11  and  C_12 
REMARK    5  A    between atoms: C_12  and  C_13 
REMARK       I    between atoms: C_19  and  N_20 
REMARK    6  A    between atoms: N_20  and  N_21 
REMARK       I    between atoms: N_21  and  C_22 
REMARK       I    between atoms: C_22  and  N_23 
REMARK    7  A    between atoms: N_23  and  C_24 
ROOT
HETATM    1  C   UNL     1      42.614 -13.488   5.280  1.00  0.00     0.183 C 
ENDROOT
BRANCH   1   2
HETATM    2  C   UNL     1      42.316 -13.467   3.768  1.00  0.00     0.076 C 
BRANCH   2   3
HETATM    3  C   UNL     1      41.732 -14.752   3.258  1.00  0.00    -0.028 A 
HETATM    4  C   UNL     1      42.447 -15.832   2.646  1.00  0.00    -0.002 A 
HETATM    5  C   UNL     1      43.805 -16.065   2.343  1.00  0.00     0.014 A 
HETATM    6  C   UNL     1      41.515 -16.816   2.317  1.00  0.00     0.042 A 
HETATM    7  C   UNL     1      44.178 -17.263   1.722  1.00  0.00     0.001 A 
HETATM    8  C   UNL     1      43.222 -18.224   1.403  1.00  0.00     0.002 A 
HETATM    9  C   UNL     1      41.870 -18.019   1.695  1.00  0.00     0.030 A 
HETATM   10  N   UNL     1      40.284 -16.361   2.724  1.00  0.00    -0.365 N 
HETATM   11  H   UNL     1      39.421 -16.877   2.623  1.00  0.00     0.165 HD
HETATM   12  C   UNL     1      40.401 -15.120   3.292  1.00  0.00     0.096 A 
ENDBRANCH   2   3
ENDBRANCH   1   2
BRANCH   1  13
HETATM   13  N   UNL     1      42.654 -14.855   5.813  1.00  0.00    -0.343 N 
HETATM   14  C   UNL     1      43.782 -15.392   6.392  1.00  0.00     0.259 C 
HETATM   15  O   UNL     1      44.708 -14.662   6.750  1.00  0.00    -0.267 OA
HETATM   16  H   UNL     1      41.995 -15.525   5.427  1.00  0.00     0.163 HD
BRANCH  14  17
HETATM   17  C   UNL     1      43.794 -16.838   6.561  1.00  0.00     0.072 A 
HETATM   18  S   UNL     1      43.497 -17.584   8.077  1.00  0.00    -0.097 SA
HETATM   19  C   UNL     1      43.699 -19.151   7.428  1.00  0.00     0.050 A 
HETATM   20  C   UNL     1      43.978 -19.119   6.080  1.00  0.00     0.009 A 
HETATM   21  C   UNL     1      44.033 -17.785   5.581  1.00  0.00     0.025 A 
ENDBRANCH  14  17
ENDBRANCH   1  13
BRANCH   1  22
HETATM   22  C   UNL     1      41.571 -12.603   6.001  1.00  0.00     0.259 C 
HETATM   23  N   UNL     1      42.066 -11.841   7.052  1.00  0.00    -0.264 N 
HETATM   24  H   UNL     1      43.078 -11.681   7.066  1.00  0.00     0.190 HD
HETATM   25  O   UNL     1      40.415 -12.462   5.596  1.00  0.00    -0.269 OA
BRANCH  23  26
HETATM   26  N   UNL     1      41.240 -10.781   7.467  1.00  0.00    -0.249 N 
HETATM   27  C   UNL     1      41.003 -10.447   8.780  1.00  0.00     0.339 C 
HETATM   28  N   UNL     1      41.859 -11.030   9.680  1.00  0.00    -0.308 N 
HETATM   29  O   UNL     1      40.096  -9.660   9.033  1.00  0.00    -0.245 OA
HETATM   30  H   UNL     1      42.474 -11.726   9.285  1.00  0.00     0.170 HD
HETATM   31  H   UNL     1      40.523 -10.487   6.804  1.00  0.00     0.192 HD
BRANCH  28  32
HETATM   32  C   UNL     1      41.940 -10.793  11.066  1.00  0.00     0.036 A 
HETATM   33  C   UNL     1      40.947 -11.166  11.978  1.00  0.00     0.031 A 
HETATM   34  C   UNL     1      41.081 -10.877  13.341  1.00  0.00     0.026 A 
HETATM   35  C   UNL     1      42.212 -10.210  13.799  1.00  0.00     0.034 A 
HETATM   36 CL   UNL     1      42.372  -9.842  15.472  1.00  0.00    -0.084 Cl
HETATM   37  C   UNL     1      43.213  -9.835  12.906  1.00  0.00     0.026 A 
HETATM   38  C   UNL     1      43.077 -10.128  11.543  1.00  0.00     0.031 A 
ENDBRANCH  28  32
ENDBRANCH  23  26
ENDBRANCH   1  22
TORSDOF 7
ENDMDL
MODEL 3
REMARK VINA RESULT:      -9.3      2.287      2.703
REMARK  7 active torsions:
REMARK  status: ('A' for Active; 'I' for Inactive)
REMARK    1  A    between atoms: C_8  and  C_9 
REMARK    2  A    between atoms: C_9  and  C_10 
REMARK    3  A    between atoms: C_10  and  N_11 
REMARK    4  A    between atoms: C_10  and  C_19 
REMARK       I    between atoms: N_11  and  C_12 
REMARK    5  A    between atoms: C_12  and  C_13 
REMARK       I    between atoms: C_19  and  N_20 
REMARK    6  A    between atoms: N_20  and  N_21 
REMARK       I    between atoms: N_21  and  C_22 
REMARK       I    between atoms: C_22  and  N_23 
REMARK    7  A    between atoms: N_23  and  C_24 
ROOT
HETATM    1  C   UNL     1      42.570 -15.297   4.597  1.00  0.00     0.183 C 
ENDROOT
BRANCH   1   2
HETATM    2  C   UNL     1      43.244 -16.505   3.917  1.00  0.00     0.076 C 
BRANCH   2   3
HETATM    3  C   UNL     1      43.434 -17.676   4.835  1.00  0.00    -0.028 A 
HETATM    4  C   UNL     1      43.937 -18.969   4.477  1.00  0.00    -0.002 A 
HETATM    5  C   UNL     1      44.394 -19.547   3.274  1.00  0.00     0.014 A 
HETATM    6  C   UNL     1      43.938 -19.751   5.632  1.00  0.00     0.042 A 
HETATM    7  C   UNL     1      44.827 -20.878   3.269  1.00  0.00     0.001 A 
HETATM    8  C   UNL     1      44.812 -21.633   4.439  1.00  0.00     0.002 A 
HETATM    9  C   UNL     1      44.367 -21.084   5.645  1.00  0.00     0.030 A 
HETATM   10  N   UNL     1      43.469 -18.963   6.656  1.00  0.00    -0.365 N 
HETATM   11  H   UNL     1      43.375 -19.267   7.615  1.00  0.00     0.165 HD
HETATM   12  C   UNL     1      43.163 -17.713   6.189  1.00  0.00     0.096 A 
ENDBRANCH   2   3
ENDBRANCH   1   2
BRANCH   1  13
HETATM   13  N   UNL     1      41.655 -14.596   3.688  1.00  0.00    -0.343 N 
HETATM   14  C   UNL     1      40.356 -14.293   4.031  1.00  0.00     0.259 C 
HETATM   15  O   UNL     1      39.997 -14.336   5.209  1.00  0.00    -0.267 OA
HETATM   16  H   UNL     1      41.843 -14.667   2.692  1.00  0.00     0.163 HD
BRANCH  14  17
HETATM   17  C   UNL     1      39.472 -13.916   2.939  1.00  0.00     0.072 A 
HETATM   18  S   UNL     1      38.945 -15.041   1.756  1.00  0.00    -0.097 SA
HETATM   19  C   UNL     1      38.036 -13.856   0.927  1.00  0.00     0.050 A 
HETATM   20  C   UNL     1      38.116 -12.624   1.538  1.00  0.00     0.009 A 
HETATM   21  C   UNL     1      38.944 -12.659   2.697  1.00  0.00     0.025 A 
ENDBRANCH  14  17
ENDBRANCH   1  13
BRANCH   1  22
HETATM   22  C   UNL     1      43.672 -14.368   5.158  1.00  0.00     0.259 C 
HETATM   23  N   UNL     1      43.913 -14.491   6.521  1.00  0.00    -0.264 N 
HETATM   24  H   UNL     1      43.596 -15.358   6.967  1.00  0.00     0.190 HD
HETATM   25  O   UNL     1      44.391 -13.670   4.440  1.00  0.00    -0.269 OA
BRANCH  23  26
HETATM   26  N   UNL     1      45.129 -13.944   6.968  1.00  0.00    -0.249 N 
HETATM   27  C   UNL     1      45.240 -13.000   7.962  1.00  0.00     0.339 C 
HETATM   28  N   UNL     1      44.103 -12.827   8.712  1.00  0.00    -0.308 N 
HETATM   29  O   UNL     1      46.314 -12.428   8.115  1.00  0.00    -0.245 OA
HETATM   30  H   UNL     1      43.292 -13.318   8.366  1.00  0.00     0.170 HD
HETATM   31  H   UNL     1      45.903 -13.974   6.304  1.00  0.00     0.192 HD
BRANCH  28  32
HETATM   32  C   UNL     1      43.945 -12.026   9.860  1.00  0.00     0.036 A 
HETATM   33  C   UNL     1      44.226 -12.464  11.158  1.00  0.00     0.031 A 
HETATM   34  C   UNL     1      44.022 -11.623  12.258  1.00  0.00     0.026 A 
HETATM   35  C   UNL     1      43.531 -10.336  12.063  1.00  0.00     0.034 A 
HETATM   36 CL   UNL     1      43.267  -9.305  13.415  1.00  0.00    -0.084 Cl
HETATM   37  C   UNL     1      43.249  -9.882  10.777  1.00  0.00     0.026 A 
HETATM   38  C   UNL     1      43.458 -10.725   9.678  1.00  0.00     0.031 A 
ENDBRANCH  28  32
ENDBRANCH  23  26
ENDBRANCH   1  22
TORSDOF 7
ENDMDL
MODEL 4
REMARK VINA RESULT:      -9.2      1.938      2.555
REMARK  7 active torsions:
REMARK  status: ('A' for Active; 'I' for Inactive)
REMARK    1  A    between atoms: C_8  and  C_9 
REMARK    2  A    between atoms: C_9  and  C_10 
REMARK    3  A    between atoms: C_10  and  N_11 
REMARK    4  A    between atoms: C_10  and  C_19 
REMARK       I    between atoms: N_11  and  C_12 
REMARK    5  A    between atoms: C_12  and  C_13 
REMARK       I    between atoms: C_19  and  N_20 
REMARK    6  A    between atoms: N_20  and  N_21 
REMARK       I    between atoms: N_21  and  C_22 
REMARK       I    between atoms: C_22  and  N_23 
REMARK    7  A    between atoms: N_23  and  C_24 
ROOT
HETATM    1  C   UNL     1      42.156 -14.562   5.119  1.00  0.00     0.183 C 
ENDROOT
BRANCH   1   2
HETATM    2  C   UNL     1      41.892 -15.900   5.836  1.00  0.00     0.076 C 
BRANCH   2   3
HETATM    3  C   UNL     1      43.002 -16.895   5.669  1.00  0.00    -0.028 A 
HETATM    4  C   UNL     1      43.165 -17.819   4.586  1.00  0.00    -0.002 A 
HETATM    5  C   UNL     1      42.435 -18.096   3.412  1.00  0.00     0.014 A 
HETATM    6  C   UNL     1      44.321 -18.558   4.839  1.00  0.00     0.042 A 
HETATM    7  C   UNL     1      42.882 -19.096   2.541  1.00  0.00     0.001 A 
HETATM    8  C   UNL     1      44.038 -19.818   2.823  1.00  0.00     0.002 A 
HETATM    9  C   UNL     1      44.782 -19.562   3.979  1.00  0.00     0.030 A 
HETATM   10  N   UNL     1      44.850 -18.093   6.019  1.00  0.00    -0.365 N 
HETATM   11  H   UNL     1      45.700 -18.439   6.441  1.00  0.00     0.165 HD
HETATM   12  C   UNL     1      44.065 -17.093   6.528  1.00  0.00     0.096 A 
ENDBRANCH   2   3
ENDBRANCH   1   2
BRANCH   1  13
HETATM   13  N   UNL     1      42.250 -14.728   3.663  1.00  0.00    -0.343 N 
HETATM   14  C   UNL     1      41.664 -13.851   2.778  1.00  0.00     0.259 C 
HETATM   15  O   UNL     1      41.289 -12.740   3.157  1.00  0.00    -0.267 OA
HETATM   16  H   UNL     1      42.412 -15.667   3.311  1.00  0.00     0.163 HD
BRANCH  14  17
HETATM   17  C   UNL     1      41.541 -14.309   1.402  1.00  0.00     0.072 A 
HETATM   18  S   UNL     1      41.481 -13.221   0.077  1.00  0.00    -0.097 SA
HETATM   19  C   UNL     1      41.333 -14.494  -1.055  1.00  0.00     0.050 A 
HETATM   20  C   UNL     1      41.339 -15.728  -0.445  1.00  0.00     0.009 A 
HETATM   21  C   UNL     1      41.459 -15.621   0.970  1.00  0.00     0.025 A 
ENDBRANCH  14  17
ENDBRANCH   1  13
BRANCH   1  22
HETATM   22  C   UNL     1      43.427 -13.920   5.723  1.00  0.00     0.259 C 
HETATM   23  N   UNL     1      43.339 -13.584   7.068  1.00  0.00    -0.264 N 
HETATM   24  H   UNL     1      42.606 -14.052   7.611  1.00  0.00     0.190 HD
HETATM   25  O   UNL     1      44.493 -13.838   5.110  1.00  0.00    -0.269 OA
BRANCH  23  26
HETATM   26  N   UNL     1      44.568 -13.353   7.712  1.00  0.00    -0.249 N 
HETATM   27  C   UNL     1      44.736 -12.524   8.795  1.00  0.00     0.339 C 
HETATM   28  N   UNL     1      43.569 -12.149   9.412  1.00  0.00    -0.308 N 
HETATM   29  O   UNL     1      45.875 -12.218   9.133  1.00  0.00    -0.245 OA
HETATM   30  H   UNL     1      42.729 -12.422   8.924  1.00  0.00     0.170 HD
HETATM   31  H   UNL     1      45.404 -13.513   7.149  1.00  0.00     0.192 HD
BRANCH  28  32
HETATM   32  C   UNL     1      43.425 -11.408  10.602  1.00  0.00     0.036 A 
HETATM   33  C   UNL     1      43.357 -11.985  11.874  1.00  0.00     0.031 A 
HETATM   34  C   UNL     1      43.187 -11.190  13.013  1.00  0.00     0.026 A 
HETATM   35  C   UNL     1      43.082  -9.809  12.884  1.00  0.00     0.034 A 
HETATM   36 CL   UNL     1      42.861  -8.831  14.282  1.00  0.00    -0.084 Cl
HETATM   37  C   UNL     1      43.152  -9.217  11.625  1.00  0.00     0.026 A 
HETATM   38  C   UNL     1      43.324 -10.015  10.487  1.00  0.00     0.031 A 
ENDBRANCH  28  32
ENDBRANCH  23  26
ENDBRANCH   1  22
TORSDOF 7
ENDMDL
MODEL 5
REMARK VINA RESULT:      -9.1      2.439      4.972
REMARK  7 active torsions:
REMARK  status: ('A' for Active; 'I' for Inactive)
REMARK    1  A    between atoms: C_8  and  C_9 
REMARK    2  A    between atoms: C_9  and  C_10 
REMARK    3  A    between atoms: C_10  and  N_11 
REMARK    4  A    between atoms: C_10  and  C_19 
REMARK       I    between atoms: N_11  and  C_12 
REMARK    5  A    between atoms: C_12  and  C_13 
REMARK       I    between atoms: C_19  and  N_20 
REMARK    6  A    between atoms: N_20  and  N_21 
REMARK       I    between atoms: N_21  and  C_22 
REMARK       I    between atoms: C_22  and  N_23 
REMARK    7  A    between atoms: N_23  and  C_24 
ROOT
HETATM    1  C   UNL     1      42.973 -15.592   5.381  1.00  0.00     0.183 C 
ENDROOT
BRANCH   1   2
HETATM    2  C   UNL     1      41.557 -15.381   5.952  1.00  0.00     0.076 C 
BRANCH   2   3
HETATM    3  C   UNL     1      40.730 -14.416   5.155  1.00  0.00    -0.028 A 
HETATM    4  C   UNL     1      40.235 -14.611   3.825  1.00  0.00    -0.002 A 
HETATM    5  C   UNL     1      40.322 -15.661   2.888  1.00  0.00     0.014 A 
HETATM    6  C   UNL     1      39.526 -13.462   3.471  1.00  0.00     0.042 A 
HETATM    7  C   UNL     1      39.707 -15.524   1.638  1.00  0.00     0.001 A 
HETATM    8  C   UNL     1      39.010 -14.363   1.315  1.00  0.00     0.002 A 
HETATM    9  C   UNL     1      38.905 -13.309   2.226  1.00  0.00     0.030 A 
HETATM   10  N   UNL     1      39.575 -12.608   4.546  1.00  0.00    -0.365 N 
HETATM   11  H   UNL     1      39.133 -11.700   4.576  1.00  0.00     0.165 HD
HETATM   12  C   UNL     1      40.296 -13.170   5.566  1.00  0.00     0.096 A 
ENDBRANCH   2   3
ENDBRANCH   1   2
BRANCH   1  13
HETATM   13  N   UNL     1      43.512 -16.914   5.724  1.00  0.00    -0.343 N 
HETATM   14  C   UNL     1      43.840 -17.851   4.770  1.00  0.00     0.259 C 
HETATM   15  O   UNL     1      43.971 -17.520   3.590  1.00  0.00    -0.267 OA
HETATM   16  H   UNL     1      43.294 -17.281   6.646  1.00  0.00     0.163 HD
BRANCH  14  17
HETATM   17  C   UNL     1      44.032 -19.213   5.243  1.00  0.00     0.072 A 
HETATM   18  S   UNL     1      44.815 -20.410   4.295  1.00  0.00    -0.097 SA
HETATM   19  C   UNL     1      44.612 -21.603   5.502  1.00  0.00     0.050 A 
HETATM   20  C   UNL     1      43.971 -21.106   6.615  1.00  0.00     0.009 A 
HETATM   21  C   UNL     1      43.637 -19.729   6.465  1.00  0.00     0.025 A 
ENDBRANCH  14  17
ENDBRANCH   1  13
BRANCH   1  22
HETATM   22  C   UNL     1      43.880 -14.439   5.871  1.00  0.00     0.259 C 
HETATM   23  N   UNL     1      44.165 -14.446   7.231  1.00  0.00    -0.264 N 
HETATM   24  H   UNL     1      44.032 -15.335   7.723  1.00  0.00     0.190 HD
HETATM   25  O   UNL     1      44.437 -13.651   5.104  1.00  0.00    -0.269 OA
BRANCH  23  26
HETATM   26  N   UNL     1      45.258 -13.652   7.621  1.00  0.00    -0.249 N 
HETATM   27  C   UNL     1      45.162 -12.527   8.406  1.00  0.00     0.339 C 
HETATM   28  N   UNL     1      43.956 -12.378   9.044  1.00  0.00    -0.308 N 
HETATM   29  O   UNL     1      46.136 -11.785   8.495  1.00  0.00    -0.245 OA
HETATM   30  H   UNL     1      43.247 -13.039   8.762  1.00  0.00     0.170 HD
HETATM   31  H   UNL     1      46.080 -13.697   7.019  1.00  0.00     0.192 HD
BRANCH  28  32
HETATM   32  C   UNL     1      43.601 -11.401   9.994  1.00  0.00     0.036 A 
HETATM   33  C   UNL     1      44.172 -11.311  11.268  1.00  0.00     0.031 A 
HETATM   34  C   UNL     1      43.753 -10.329  12.173  1.00  0.00     0.026 A 
HETATM   35  C   UNL     1      42.756  -9.430  11.807  1.00  0.00     0.034 A 
HETATM   36 CL   UNL     1      42.232  -8.231  12.923  1.00  0.00    -0.084 Cl
HETATM   37  C   UNL     1      42.180  -9.502  10.541  1.00  0.00     0.026 A 
HETATM   38  C   UNL     1      42.603 -10.485   9.637  1.00  0.00     0.031 A 
ENDBRANCH  28  32
ENDBRANCH  23  26
ENDBRANCH   1  22
TORSDOF 7
ENDMDL
MODEL 6
REMARK VINA RESULT:      -9.1      6.130     10.032
REMARK  7 active torsions:
REMARK  status: ('A' for Active; 'I' for Inactive)
REMARK    1  A    between atoms: C_8  and  C_9 
REMARK    2  A    between atoms: C_9  and  C_10 
REMARK    3  A    between atoms: C_10  and  N_11 
REMARK    4  A    between atoms: C_10  and  C_19 
REMARK       I    between atoms: N_11  and  C_12 
REMARK    5  A    between atoms: C_12  and  C_13 
REMARK       I    between atoms: C_19  and  N_20 
REMARK    6  A    between atoms: N_20  and  N_21 
REMARK       I    between atoms: N_21  and  C_22 
REMARK       I    between atoms: C_22  and  N_23 
REMARK    7  A    between atoms: N_23  and  C_24 
ROOT
HETATM    1  C   UNL     1      42.079 -15.878   2.375  1.00  0.00     0.183 C 
ENDROOT
BRANCH   1   2
HETATM    2  C   UNL     1      41.590 -17.106   3.166  1.00  0.00     0.076 C 
BRANCH   2   3
HETATM    3  C   UNL     1      42.706 -17.930   3.738  1.00  0.00    -0.028 A 
HETATM    4  C   UNL     1      43.244 -19.138   3.188  1.00  0.00    -0.002 A 
HETATM    5  C   UNL     1      42.965 -19.904   2.037  1.00  0.00     0.014 A 
HETATM    6  C   UNL     1      44.256 -19.573   4.046  1.00  0.00     0.042 A 
HETATM    7  C   UNL     1      43.699 -21.070   1.789  1.00  0.00     0.001 A 
HETATM    8  C   UNL     1      44.700 -21.478   2.667  1.00  0.00     0.002 A 
HETATM    9  C   UNL     1      44.998 -20.736   3.813  1.00  0.00     0.030 A 
HETATM   10  N   UNL     1      44.340 -18.659   5.069  1.00  0.00    -0.365 N 
HETATM   11  H   UNL     1      45.000 -18.714   5.831  1.00  0.00     0.165 HD
HETATM   12  C   UNL     1      43.413 -17.666   4.895  1.00  0.00     0.096 A 
ENDBRANCH   2   3
ENDBRANCH   1   2
BRANCH   1  13
HETATM   13  N   UNL     1      41.224 -14.705   2.597  1.00  0.00    -0.343 N 
HETATM   14  C   UNL     1      41.735 -13.448   2.828  1.00  0.00     0.259 C 
HETATM   15  O   UNL     1      42.913 -13.197   2.570  1.00  0.00    -0.267 OA
HETATM   16  H   UNL     1      40.288 -14.873   2.954  1.00  0.00     0.163 HD
BRANCH  14  17
HETATM   17  C   UNL     1      40.807 -12.463   3.365  1.00  0.00     0.072 A 
HETATM   18  S   UNL     1      41.275 -11.316   4.552  1.00  0.00    -0.097 SA
HETATM   19  C   UNL     1      39.712 -10.630   4.610  1.00  0.00     0.050 A 
HETATM   20  C   UNL     1      38.845 -11.247   3.737  1.00  0.00     0.009 A 
HETATM   21  C   UNL     1      39.476 -12.304   3.019  1.00  0.00     0.025 A 
ENDBRANCH  14  17
ENDBRANCH   1  13
BRANCH   1  22
HETATM   22  C   UNL     1      42.180 -16.260   0.880  1.00  0.00     0.259 C 
HETATM   23  N   UNL     1      41.283 -15.609   0.040  1.00  0.00    -0.264 N 
HETATM   24  H   UNL     1      40.868 -14.742   0.396  1.00  0.00     0.190 HD
HETATM   25  O   UNL     1      43.077 -16.975   0.428  1.00  0.00    -0.269 OA
BRANCH  23  26
HETATM   26  N   UNL     1      41.597 -15.659  -1.329  1.00  0.00    -0.249 N 
HETATM   27  C   UNL     1      40.713 -15.371  -2.342  1.00  0.00     0.339 C 
HETATM   28  N   UNL     1      39.565 -14.739  -1.934  1.00  0.00    -0.308 N 
HETATM   29  O   UNL     1      41.020 -15.665  -3.494  1.00  0.00    -0.245 OA
HETATM   30  H   UNL     1      39.453 -14.676  -0.933  1.00  0.00     0.170 HD
HETATM   31  H   UNL     1      42.377 -16.265  -1.587  1.00  0.00     0.192 HD
BRANCH  28  32
HETATM   32  C   UNL     1      38.536 -14.219  -2.743  1.00  0.00     0.036 A 
HETATM   33  C   UNL     1      38.286 -12.853  -2.900  1.00  0.00     0.031 A 
HETATM   34  C   UNL     1      37.228 -12.405  -3.701  1.00  0.00     0.026 A 
HETATM   35  C   UNL     1      36.413 -13.328  -4.349  1.00  0.00     0.034 A 
HETATM   36 CL   UNL     1      35.105 -12.780  -5.323  1.00  0.00    -0.084 Cl
HETATM   37  C   UNL     1      36.650 -14.692  -4.207  1.00  0.00     0.026 A 
HETATM   38  C   UNL     1      37.711 -15.137  -3.407  1.00  0.00     0.031 A 
ENDBRANCH  28  32
ENDBRANCH  23  26
ENDBRANCH   1  22
TORSDOF 7
ENDMDL
MODEL 7
REMARK VINA RESULT:      -8.8      2.130      2.441
REMARK  7 active torsions:
REMARK  status: ('A' for Active; 'I' for Inactive)
REMARK    1  A    between atoms: C_8  and  C_9 
REMARK    2  A    between atoms: C_9  and  C_10 
REMARK    3  A    between atoms: C_10  and  N_11 
REMARK    4  A    between atoms: C_10  and  C_19 
REMARK       I    between atoms: N_11  and  C_12 
REMARK    5  A    between atoms: C_12  and  C_13 
REMARK       I    between atoms: C_19  and  N_20 
REMARK    6  A    between atoms: N_20  and  N_21 
REMARK       I    between atoms: N_21  and  C_22 
REMARK       I    between atoms: C_22  and  N_23 
REMARK    7  A    between atoms: N_23  and  C_24 
ROOT
HETATM    1  C   UNL     1      41.428 -14.797   5.484  1.00  0.00     0.183 C 
ENDROOT
BRANCH   1   2
HETATM    2  C   UNL     1      42.906 -15.054   5.838  1.00  0.00     0.076 C 
BRANCH   2   3
HETATM    3  C   UNL     1      43.152 -16.414   6.422  1.00  0.00    -0.028 A 
HETATM    4  C   UNL     1      43.580 -17.583   5.712  1.00  0.00    -0.002 A 
HETATM    5  C   UNL     1      43.899 -17.853   4.365  1.00  0.00     0.014 A 
HETATM    6  C   UNL     1      43.672 -18.622   6.638  1.00  0.00     0.042 A 
HETATM    7  C   UNL     1      44.292 -19.145   3.995  1.00  0.00     0.001 A 
HETATM    8  C   UNL     1      44.370 -20.161   4.944  1.00  0.00     0.002 A 
HETATM    9  C   UNL     1      44.062 -19.919   6.285  1.00  0.00     0.030 A 
HETATM   10  N   UNL     1      43.329 -18.105   7.864  1.00  0.00    -0.365 N 
HETATM   11  H   UNL     1      43.320 -18.632   8.726  1.00  0.00     0.165 HD
HETATM   12  C   UNL     1      43.014 -16.777   7.747  1.00  0.00     0.096 A 
ENDBRANCH   2   3
ENDBRANCH   1   2
BRANCH   1  13
HETATM   13  N   UNL     1      41.198 -14.829   4.034  1.00  0.00    -0.343 N 
HETATM   14  C   UNL     1      40.962 -15.998   3.346  1.00  0.00     0.259 C 
HETATM   15  O   UNL     1      40.645 -17.024   3.951  1.00  0.00    -0.267 OA
HETATM   16  H   UNL     1      41.580 -14.064   3.485  1.00  0.00     0.163 HD
BRANCH  14  17
HETATM   17  C   UNL     1      41.091 -15.932   1.898  1.00  0.00     0.072 A 
HETATM   18  S   UNL     1      40.728 -14.509   1.010  1.00  0.00    -0.097 SA
HETATM   19  C   UNL     1      41.109 -15.254  -0.480  1.00  0.00     0.050 A 
HETATM   20  C   UNL     1      41.518 -16.558  -0.314  1.00  0.00     0.009 A 
HETATM   21  C   UNL     1      41.508 -16.949   1.056  1.00  0.00     0.025 A 
ENDBRANCH  14  17
ENDBRANCH   1  13
BRANCH   1  22
HETATM   22  C   UNL     1      40.992 -13.457   6.122  1.00  0.00     0.259 C 
HETATM   23  N   UNL     1      42.024 -12.571   6.403  1.00  0.00    -0.264 N 
HETATM   24  H   UNL     1      42.907 -12.721   5.904  1.00  0.00     0.190 HD
HETATM   25  O   UNL     1      39.811 -13.125   6.243  1.00  0.00    -0.269 OA
BRANCH  23  26
HETATM   26  N   UNL     1      41.630 -11.240   6.628  1.00  0.00    -0.249 N 
HETATM   27  C   UNL     1      41.565 -10.646   7.866  1.00  0.00     0.339 C 
HETATM   28  N   UNL     1      42.196 -11.342   8.867  1.00  0.00    -0.308 N 
HETATM   29  O   UNL     1      40.995  -9.564   7.972  1.00  0.00    -0.245 OA
HETATM   30  H   UNL     1      42.519 -12.261   8.600  1.00  0.00     0.170 HD
HETATM   31  H   UNL     1      41.037 -10.823   5.910  1.00  0.00     0.192 HD
BRANCH  28  32
HETATM   32  C   UNL     1      42.399 -10.937  10.200  1.00  0.00     0.036 A 
HETATM   33  C   UNL     1      43.616 -10.450  10.689  1.00  0.00     0.031 A 
HETATM   34  C   UNL     1      43.754 -10.089  12.034  1.00  0.00     0.026 A 
HETATM   35  C   UNL     1      42.673 -10.216  12.899  1.00  0.00     0.034 A 
HETATM   36 CL   UNL     1      42.846  -9.785  14.556  1.00  0.00    -0.084 Cl
HETATM   37  C   UNL     1      41.454 -10.696  12.430  1.00  0.00     0.026 A 
HETATM   38  C   UNL     1      41.317 -11.054  11.082  1.00  0.00     0.031 A 
ENDBRANCH  28  32
ENDBRANCH  23  26
ENDBRANCH   1  22
TORSDOF 7
ENDMDL
MODEL 8
REMARK VINA RESULT:      -8.8      6.787     10.332
REMARK  7 active torsions:
REMARK  status: ('A' for Active; 'I' for Inactive)
REMARK    1  A    between atoms: C_8  and  C_9 
REMARK    2  A    between atoms: C_9  and  C_10 
REMARK    3  A    between atoms: C_10  and  N_11 
REMARK    4  A    between atoms: C_10  and  C_19 
REMARK       I    between atoms: N_11  and  C_12 
REMARK    5  A    between atoms: C_12  and  C_13 
REMARK       I    between atoms: C_19  and  N_20 
REMARK    6  A    between atoms: N_20  and  N_21 
REMARK       I    between atoms: N_21  and  C_22 
REMARK       I    between atoms: C_22  and  N_23 
REMARK    7  A    between atoms: N_23  and  C_24 
ROOT
HETATM    1  C   UNL     1      40.813 -14.605   2.202  1.00  0.00     0.183 C 
ENDROOT
BRANCH   1   2
HETATM    2  C   UNL     1      40.324 -16.048   2.432  1.00  0.00     0.076 C 
BRANCH   2   3
HETATM    3  C   UNL     1      41.184 -16.825   3.384  1.00  0.00    -0.028 A 
HETATM    4  C   UNL     1      42.183 -17.792   3.039  1.00  0.00    -0.002 A 
HETATM    5  C   UNL     1      42.677 -18.303   1.820  1.00  0.00     0.014 A 
HETATM    6  C   UNL     1      42.728 -18.273   4.230  1.00  0.00     0.042 A 
HETATM    7  C   UNL     1      43.687 -19.272   1.837  1.00  0.00     0.001 A 
HETATM    8  C   UNL     1      44.207 -19.734   3.043  1.00  0.00     0.002 A 
HETATM    9  C   UNL     1      43.737 -19.242   4.265  1.00  0.00     0.030 A 
HETATM   10  N   UNL     1      42.097 -17.615   5.259  1.00  0.00    -0.365 N 
HETATM   11  H   UNL     1      42.302 -17.756   6.238  1.00  0.00     0.165 HD
HETATM   12  C   UNL     1      41.166 -16.742   4.763  1.00  0.00     0.096 A 
ENDBRANCH   2   3
ENDBRANCH   1   2
BRANCH   1  13
HETATM   13  N   UNL     1      39.714 -13.634   2.282  1.00  0.00    -0.343 N 
HETATM   14  C   UNL     1      38.653 -13.641   1.404  1.00  0.00     0.259 C 
HETATM   15  O   UNL     1      38.431 -14.629   0.703  1.00  0.00    -0.267 OA
HETATM   16  H   UNL     1      39.912 -12.743   2.728  1.00  0.00     0.163 HD
BRANCH  14  17
HETATM   17  C   UNL     1      37.830 -12.441   1.378  1.00  0.00     0.072 A 
HETATM   18  S   UNL     1      38.112 -11.115   2.429  1.00  0.00    -0.097 SA
HETATM   19  C   UNL     1      36.798 -10.232   1.786  1.00  0.00     0.050 A 
HETATM   20  C   UNL     1      36.156 -10.921   0.782  1.00  0.00     0.009 A 
HETATM   21  C   UNL     1      36.752 -12.194   0.547  1.00  0.00     0.025 A 
ENDBRANCH  14  17
ENDBRANCH   1  13
BRANCH   1  22
HETATM   22  C   UNL     1      41.557 -14.545   0.848  1.00  0.00     0.259 C 
HETATM   23  N   UNL     1      41.268 -15.579  -0.034  1.00  0.00    -0.264 N 
HETATM   24  H   UNL     1      40.399 -16.096   0.133  1.00  0.00     0.190 HD
HETATM   25  O   UNL     1      42.244 -13.581   0.502  1.00  0.00    -0.269 OA
BRANCH  23  26
HETATM   26  N   UNL     1      41.634 -15.349  -1.372  1.00  0.00    -0.249 N 
HETATM   27  C   UNL     1      40.746 -15.075  -2.386  1.00  0.00     0.339 C 
HETATM   28  N   UNL     1      39.483 -14.743  -1.963  1.00  0.00    -0.308 N 
HETATM   29  O   UNL     1      41.144 -15.117  -3.546  1.00  0.00    -0.245 OA
HETATM   30  H   UNL     1      39.326 -14.864  -0.973  1.00  0.00     0.170 HD
HETATM   31  H   UNL     1      42.525 -15.748  -1.667  1.00  0.00     0.192 HD
BRANCH  28  32
HETATM   32  C   UNL     1      38.401 -14.304  -2.750  1.00  0.00     0.036 A 
HETATM   33  C   UNL     1      37.601 -15.156  -3.517  1.00  0.00     0.031 A 
HETATM   34  C   UNL     1      36.556 -14.648  -4.298  1.00  0.00     0.026 A 
HETATM   35  C   UNL     1      36.307 -13.279  -4.314  1.00  0.00     0.034 A 
HETATM   36 CL   UNL     1      35.031 -12.652  -5.283  1.00  0.00    -0.084 Cl
HETATM   37  C   UNL     1      37.091 -12.417  -3.554  1.00  0.00     0.026 A 
HETATM   38  C   UNL     1      38.135 -12.928  -2.772  1.00  0.00     0.031 A 
ENDBRANCH  28  32
ENDBRANCH  23  26
ENDBRANCH   1  22
TORSDOF 7
ENDMDL
MODEL 9
REMARK VINA RESULT:      -8.7      2.931      3.856
REMARK  7 active torsions:
REMARK  status: ('A' for Active; 'I' for Inactive)
REMARK    1  A    between atoms: C_8  and  C_9 
REMARK    2  A    between atoms: C_9  and  C_10 
REMARK    3  A    between atoms: C_10  and  N_11 
REMARK    4  A    between atoms: C_10  and  C_19 
REMARK       I    between atoms: N_11  and  C_12 
REMARK    5  A    between atoms: C_12  and  C_13 
REMARK       I    between atoms: C_19  and  N_20 
REMARK    6  A    between atoms: N_20  and  N_21 
REMARK       I    between atoms: N_21  and  C_22 
REMARK       I    between atoms: C_22  and  N_23 
REMARK    7  A    between atoms: N_23  and  C_24 
ROOT
HETATM    1  C   UNL     1      40.447 -14.712   5.315  1.00  0.00     0.183 C 
ENDROOT
BRANCH   1   2
HETATM    2  C   UNL     1      41.948 -15.017   5.484  1.00  0.00     0.076 C 
BRANCH   2   3
HETATM    3  C   UNL     1      42.309 -16.435   5.154  1.00  0.00    -0.028 A 
HETATM    4  C   UNL     1      42.917 -16.903   3.944  1.00  0.00    -0.002 A 
HETATM    5  C   UNL     1      43.358 -16.276   2.760  1.00  0.00     0.014 A 
HETATM    6  C   UNL     1      43.065 -18.285   4.059  1.00  0.00     0.042 A 
HETATM    7  C   UNL     1      43.922 -17.050   1.739  1.00  0.00     0.001 A 
HETATM    8  C   UNL     1      44.052 -18.429   1.883  1.00  0.00     0.002 A 
HETATM    9  C   UNL     1      43.626 -19.074   3.047  1.00  0.00     0.030 A 
HETATM   10  N   UNL     1      42.581 -18.644   5.294  1.00  0.00    -0.365 N 
HETATM   11  H   UNL     1      42.574 -19.588   5.653  1.00  0.00     0.165 HD
HETATM   12  C   UNL     1      42.123 -17.540   5.963  1.00  0.00     0.096 A 
ENDBRANCH   2   3
ENDBRANCH   1   2
BRANCH   1  13
HETATM   13  N   UNL     1      40.019 -14.817   3.915  1.00  0.00    -0.343 N 
HETATM   14  C   UNL     1      40.431 -13.931   2.945  1.00  0.00     0.259 C 
HETATM   15  O   UNL     1      41.397 -13.193   3.145  1.00  0.00    -0.267 OA
HETATM   16  H   UNL     1      39.143 -15.296   3.731  1.00  0.00     0.163 HD
BRANCH  14  17
HETATM   17  C   UNL     1      39.678 -13.942   1.700  1.00  0.00     0.072 A 
HETATM   18  S   UNL     1      40.444 -13.887   0.166  1.00  0.00    -0.097 SA
HETATM   19  C   UNL     1      38.950 -13.921  -0.663  1.00  0.00     0.050 A 
HETATM   20  C   UNL     1      37.882 -13.984   0.203  1.00  0.00     0.009 A 
HETATM   21  C   UNL     1      38.302 -13.996   1.565  1.00  0.00     0.025 A 
ENDBRANCH  14  17
ENDBRANCH   1  13
BRANCH   1  22
HETATM   22  C   UNL     1      40.155 -13.318   5.918  1.00  0.00     0.259 C 
HETATM   23  N   UNL     1      41.277 -12.556   6.221  1.00  0.00    -0.264 N 
HETATM   24  H   UNL     1      42.151 -12.820   5.754  1.00  0.00     0.190 HD
HETATM   25  O   UNL     1      39.019 -12.844   5.995  1.00  0.00    -0.269 OA
BRANCH  23  26
HETATM   26  N   UNL     1      41.039 -11.183   6.412  1.00  0.00    -0.249 N 
HETATM   27  C   UNL     1      41.137 -10.537   7.621  1.00  0.00     0.339 C 
HETATM   28  N   UNL     1      41.775 -11.256   8.602  1.00  0.00    -0.308 N 
HETATM   29  O   UNL     1      40.689  -9.399   7.720  1.00  0.00    -0.245 OA
HETATM   30  H   UNL     1      41.981 -12.213   8.354  1.00  0.00     0.170 HD
HETATM   31  H   UNL     1      40.433 -10.735   5.724  1.00  0.00     0.192 HD
BRANCH  28  32
HETATM   32  C   UNL     1      42.127 -10.822   9.894  1.00  0.00     0.036 A 
HETATM   33  C   UNL     1      41.202 -10.599  10.919  1.00  0.00     0.031 A 
HETATM   34  C   UNL     1      41.619 -10.143  12.174  1.00  0.00     0.026 A 
HETATM   35  C   UNL     1      42.969  -9.905  12.411  1.00  0.00     0.034 A 
HETATM   36 CL   UNL     1      43.482  -9.332  13.950  1.00  0.00    -0.084 Cl
HETATM   37  C   UNL     1      43.905 -10.125  11.403  1.00  0.00     0.026 A 
HETATM   38  C   UNL     1      43.484 -10.584  10.149  1.00  0.00     0.031 A 
ENDBRANCH  28  32
ENDBRANCH  23  26
ENDBRANCH   1  22
TORSDOF 7
ENDMDL
MODEL 10
REMARK VINA RESULT:      -8.7      5.645      9.451
REMARK  7 active torsions:
REMARK  status: ('A' for Active; 'I' for Inactive)
REMARK    1  A    between atoms: C_8  and  C_9 
REMARK    2  A    between atoms: C_9  and  C_10 
REMARK    3  A    between atoms: C_10  and  N_11 
REMARK    4  A    between atoms: C_10  and  C_19 
REMARK       I    between atoms: N_11  and  C_12 
REMARK    5  A    between atoms: C_12  and  C_13 
REMARK       I    between atoms: C_19  and  N_20 
REMARK    6  A    between atoms: N_20  and  N_21 
REMARK       I    between atoms: N_21  and  C_22 
REMARK       I    between atoms: C_22  and  N_23 
REMARK    7  A    between atoms: N_23  and  C_24 
ROOT
HETATM    1  C   UNL     1      41.660 -13.188   2.988  1.00  0.00     0.183 C 
ENDROOT
BRANCH   1   2
HETATM    2  C   UNL     1      40.311 -13.412   3.697  1.00  0.00     0.076 C 
BRANCH   2   3
HETATM    3  C   UNL     1      39.267 -12.399   3.327  1.00  0.00    -0.028 A 
HETATM    4  C   UNL     1      38.465 -12.395   2.140  1.00  0.00    -0.002 A 
HETATM    5  C   UNL     1      38.364 -13.244   1.018  1.00  0.00     0.014 A 
HETATM    6  C   UNL     1      37.638 -11.273   2.199  1.00  0.00     0.042 A 
HETATM    7  C   UNL     1      37.450 -12.941   0.002  1.00  0.00     0.001 A 
HETATM    8  C   UNL     1      36.642 -11.810   0.090  1.00  0.00     0.002 A 
HETATM    9  C   UNL     1      36.720 -10.954   1.192  1.00  0.00     0.030 A 
HETATM   10  N   UNL     1      37.914 -10.627   3.380  1.00  0.00    -0.365 N 
HETATM   11  H   UNL     1      37.452  -9.785   3.694  1.00  0.00     0.165 HD
HETATM   12  C   UNL     1      38.893 -11.295   4.068  1.00  0.00     0.096 A 
ENDBRANCH   2   3
ENDBRANCH   1   2
BRANCH   1  13
HETATM   13  N   UNL     1      41.713 -13.861   1.684  1.00  0.00    -0.343 N 
HETATM   14  C   UNL     1      41.991 -13.189   0.514  1.00  0.00     0.259 C 
HETATM   15  O   UNL     1      42.491 -12.064   0.545  1.00  0.00    -0.267 OA
HETATM   16  H   UNL     1      41.185 -14.723   1.583  1.00  0.00     0.163 HD
BRANCH  14  17
HETATM   17  C   UNL     1      41.678 -13.891  -0.722  1.00  0.00     0.072 A 
HETATM   18  S   UNL     1      41.959 -13.196  -2.265  1.00  0.00    -0.097 SA
HETATM   19  C   UNL     1      41.350 -14.571  -3.076  1.00  0.00     0.050 A 
HETATM   20  C   UNL     1      40.947 -15.551  -2.198  1.00  0.00     0.009 A 
HETATM   21  C   UNL     1      41.137 -15.159  -0.841  1.00  0.00     0.025 A 
ENDBRANCH  14  17
ENDBRANCH   1  13
BRANCH   1  22
HETATM   22  C   UNL     1      42.797 -13.643   3.933  1.00  0.00     0.259 C 
HETATM   23  N   UNL     1      42.380 -14.215   5.129  1.00  0.00    -0.264 N 
HETATM   24  H   UNL     1      41.419 -14.569   5.158  1.00  0.00     0.190 HD
HETATM   25  O   UNL     1      43.985 -13.639   3.603  1.00  0.00    -0.269 OA
BRANCH  23  26
HETATM   26  N   UNL     1      43.360 -14.954   5.815  1.00  0.00    -0.249 N 
HETATM   27  C   UNL     1      43.678 -16.264   5.547  1.00  0.00     0.339 C 
HETATM   28  N   UNL     1      43.183 -16.738   4.357  1.00  0.00    -0.308 N 
HETATM   29  O   UNL     1      44.377 -16.877   6.347  1.00  0.00    -0.245 OA
HETATM   30  H   UNL     1      42.546 -16.112   3.888  1.00  0.00     0.170 HD
HETATM   31  H   UNL     1      43.581 -14.634   6.759  1.00  0.00     0.192 HD
BRANCH  28  32
HETATM   32  C   UNL     1      43.434 -17.988   3.760  1.00  0.00     0.036 A 
HETATM   33  C   UNL     1      44.242 -18.976   4.332  1.00  0.00     0.031 A 
HETATM   34  C   UNL     1      44.469 -20.188   3.670  1.00  0.00     0.026 A 
HETATM   35  C   UNL     1      43.888 -20.417   2.427  1.00  0.00     0.034 A 
HETATM   36 CL   UNL     1      44.178 -21.901   1.606  1.00  0.00    -0.084 Cl
HETATM   37  C   UNL     1      43.079 -19.446   1.843  1.00  0.00     0.026 A 
HETATM   38  C   UNL     1      42.851 -18.235   2.510  1.00  0.00     0.031 A 
ENDBRANCH  28  32
ENDBRANCH  23  26
ENDBRANCH   1  22
TORSDOF 7
ENDMDL
