MODEL 1
REMARK VINA RESULT:      -9.3      0.000      0.000
REMARK  5 active torsions:
REMARK  status: ('A' for Active; 'I' for Inactive)
REMARK    1  A    between atoms: C_6  and  C_7 
REMARK    2  A    between atoms: C_7  and  N_8 
REMARK    3  A    between atoms: C_17  and  C_18 
REMARK    4  A    between atoms: C_18  and  N_19 
REMARK    5  A    between atoms: C_22  and  C_23 
REMARK       I    between atoms: C_23  and  N_24 
ROOT
HETATM    1  N   UNL     1      43.587 -15.595   4.378  1.00  0.00    -0.061 N 
HETATM    2  H   UNL     1      44.515 -16.030   4.330  1.00  0.00     0.280 HD
HETATM    3  C   UNL     1      43.592 -14.472   3.352  1.00  0.00     0.276 C 
HETATM    4  C   UNL     1      42.215 -13.913   3.101  1.00  0.00     0.002 A 
HETATM    5  C   UNL     1      41.569 -13.220   4.124  1.00  0.00     0.076 A 
HETATM    6  O   UNL     1      42.198 -13.027   5.322  1.00  0.00    -0.349 OA
HETATM    7  C   UNL     1      42.220 -14.249   6.083  1.00  0.00     0.203 C 
HETATM    8  C   UNL     1      43.486 -15.071   5.807  1.00  0.00     0.262 C 
HETATM    9  C   UNL     1      41.496 -14.206   1.927  1.00  0.00     0.020 A 
HETATM   10  C   UNL     1      40.145 -13.823   1.783  1.00  0.00    -0.032 A 
HETATM   11  C   UNL     1      39.549 -13.084   2.817  1.00  0.00     0.011 A 
HETATM   12  C   UNL     1      40.266 -12.761   3.972  1.00  0.00     0.038 A 
ENDROOT
BRANCH  10  13
HETATM   13  C   UNL     1      39.341 -14.366   0.619  1.00  0.00     0.273 C 
BRANCH  13  14
HETATM   14  N   UNL     1      39.803 -14.018  -0.769  1.00  0.00    -0.066 N 
HETATM   15  H   UNL     1      40.338 -13.130  -0.706  1.00  0.00     0.280 HD
HETATM   16  C   UNL     1      40.779 -15.022  -1.350  1.00  0.00     0.249 C 
HETATM   17  C   UNL     1      41.300 -14.541  -2.707  1.00  0.00     0.103 C 
HETATM   18  C   UNL     1      40.142 -14.244  -3.663  1.00  0.00     0.017 C 
HETATM   19  C   UNL     1      39.119 -13.289  -3.047  1.00  0.00     0.029 C 
HETATM   20  C   UNL     1      38.630 -13.763  -1.687  1.00  0.00     0.235 C 
BRANCH  17  21
HETATM   21  C   UNL     1      42.155 -13.304  -2.499  1.00  0.00     0.221 C 
HETATM   22  N   UNL     1      42.662 -12.727  -3.616  1.00  0.00    -0.370 N 
HETATM   23  H   UNL     1      42.569 -13.107  -4.551  1.00  0.00     0.159 HD
HETATM   24  H   UNL     1      43.229 -11.890  -3.522  1.00  0.00     0.159 HD
HETATM   25  O   UNL     1      42.304 -12.813  -1.381  1.00  0.00    -0.273 OA
ENDBRANCH  17  21
ENDBRANCH  13  14
ENDBRANCH  10  13
BRANCH   1  26
HETATM   26  C   UNL     1      42.605 -16.677   4.000  1.00  0.00     0.274 C 
BRANCH  26  27
HETATM   27  C   UNL     1      43.160 -17.937   3.403  1.00  0.00    -0.026 A 
HETATM   28  C   UNL     1      43.906 -18.786   4.247  1.00  0.00     0.016 A 
HETATM   29  C   UNL     1      44.350 -20.046   3.827  1.00  0.00    -0.056 A 
HETATM   30  C   UNL     1      44.025 -20.481   2.534  1.00  0.00    -0.056 A 
HETATM   31  C   UNL     1      45.081 -20.928   4.804  1.00  0.00     0.049 C 
HETATM   32  C   UNL     1      44.412 -21.852   2.045  1.00  0.00     0.049 C 
HETATM   33  C   UNL     1      43.330 -19.617   1.673  1.00  0.00     0.014 A 
HETATM   34  C   UNL     1      42.879 -18.353   2.090  1.00  0.00    -0.053 A 
HETATM   35  C   UNL     1      42.113 -17.513   1.105  1.00  0.00     0.049 C 
ENDBRANCH  26  27
ENDBRANCH   1  26
TORSDOF 5
ENDMDL
MODEL 2
REMARK VINA RESULT:      -9.1      1.538      2.104
REMARK  5 active torsions:
REMARK  status: ('A' for Active; 'I' for Inactive)
REMARK    1  A    between atoms: C_6  and  C_7 
REMARK    2  A    between atoms: C_7  and  N_8 
REMARK    3  A    between atoms: C_17  and  C_18 
REMARK    4  A    between atoms: C_18  and  N_19 
REMARK    5  A    between atoms: C_22  and  C_23 
REMARK       I    between atoms: C_23  and  N_24 
ROOT
HETATM    1  N   UNL     1      43.034 -15.671   5.030  1.00  0.00    -0.061 N 
HETATM    2  H   UNL     1      43.903 -16.078   5.393  1.00  0.00     0.280 HD
HETATM    3  C   UNL     1      43.297 -14.180   4.872  1.00  0.00     0.276 C 
HETATM    4  C   UNL     1      42.214 -13.483   4.090  1.00  0.00     0.002 A 
HETATM    5  C   UNL     1      40.937 -13.383   4.641  1.00  0.00     0.076 A 
HETATM    6  O   UNL     1      40.691 -13.885   5.889  1.00  0.00    -0.349 OA
HETATM    7  C   UNL     1      40.627 -15.322   5.851  1.00  0.00     0.203 C 
HETATM    8  C   UNL     1      41.998 -15.962   6.110  1.00  0.00     0.262 C 
HETATM    9  C   UNL     1      42.405 -13.072   2.757  1.00  0.00     0.020 A 
HETATM   10  C   UNL     1      41.333 -12.582   1.982  1.00  0.00    -0.032 A 
HETATM   11  C   UNL     1      40.075 -12.451   2.593  1.00  0.00     0.011 A 
HETATM   12  C   UNL     1      39.884 -12.827   3.925  1.00  0.00     0.038 A 
ENDROOT
BRANCH  10  13
HETATM   13  C   UNL     1      41.525 -12.384   0.492  1.00  0.00     0.273 C 
BRANCH  13  14
HETATM   14  N   UNL     1      40.887 -13.385  -0.431  1.00  0.00    -0.066 N 
HETATM   15  H   UNL     1      39.966 -13.642  -0.026  1.00  0.00     0.280 HD
HETATM   16  C   UNL     1      40.570 -12.825  -1.803  1.00  0.00     0.249 C 
HETATM   17  C   UNL     1      39.814 -13.858  -2.643  1.00  0.00     0.103 C 
HETATM   18  C   UNL     1      40.594 -15.172  -2.725  1.00  0.00     0.017 C 
HETATM   19  C   UNL     1      40.980 -15.698  -1.342  1.00  0.00     0.029 C 
HETATM   20  C   UNL     1      41.705 -14.654  -0.506  1.00  0.00     0.235 C 
BRANCH  17  21
HETATM   21  C   UNL     1      38.443 -14.084  -2.033  1.00  0.00     0.221 C 
HETATM   22  N   UNL     1      37.651 -14.994  -2.651  1.00  0.00    -0.370 N 
HETATM   23  H   UNL     1      37.884 -15.463  -3.519  1.00  0.00     0.159 HD
HETATM   24  H   UNL     1      36.730 -15.185  -2.268  1.00  0.00     0.159 HD
HETATM   25  O   UNL     1      38.111 -13.530  -0.986  1.00  0.00    -0.273 OA
ENDBRANCH  17  21
ENDBRANCH  13  14
ENDBRANCH  10  13
BRANCH   1  26
HETATM   26  C   UNL     1      42.797 -16.329   3.693  1.00  0.00     0.274 C 
BRANCH  26  27
HETATM   27  C   UNL     1      43.414 -17.679   3.467  1.00  0.00    -0.026 A 
HETATM   28  C   UNL     1      43.689 -18.469   4.603  1.00  0.00     0.016 A 
HETATM   29  C   UNL     1      44.135 -19.791   4.495  1.00  0.00    -0.056 A 
HETATM   30  C   UNL     1      44.296 -20.350   3.218  1.00  0.00    -0.056 A 
HETATM   31  C   UNL     1      44.341 -20.599   5.749  1.00  0.00     0.049 C 
HETATM   32  C   UNL     1      44.706 -21.787   3.034  1.00  0.00     0.049 C 
HETATM   33  C   UNL     1      44.076 -19.549   2.086  1.00  0.00     0.014 A 
HETATM   34  C   UNL     1      43.624 -18.222   2.188  1.00  0.00    -0.053 A 
HETATM   35  C   UNL     1      43.385 -17.455   0.916  1.00  0.00     0.049 C 
ENDBRANCH  26  27
ENDBRANCH   1  26
TORSDOF 5
ENDMDL
MODEL 3
REMARK VINA RESULT:      -8.8      1.348      1.630
REMARK  5 active torsions:
REMARK  status: ('A' for Active; 'I' for Inactive)
REMARK    1  A    between atoms: C_6  and  C_7 
REMARK    2  A    between atoms: C_7  and  N_8 
REMARK    3  A    between atoms: C_17  and  C_18 
REMARK    4  A    between atoms: C_18  and  N_19 
REMARK    5  A    between atoms: C_22  and  C_23 
REMARK       I    between atoms: C_23  and  N_24 
ROOT
HETATM    1  N   UNL     1      43.123 -14.954   4.205  1.00  0.00    -0.061 N 
HETATM    2  H   UNL     1      44.058 -15.377   4.177  1.00  0.00     0.280 HD
HETATM    3  C   UNL     1      43.112 -13.878   3.130  1.00  0.00     0.276 C 
HETATM    4  C   UNL     1      41.727 -13.352   2.855  1.00  0.00     0.002 A 
HETATM    5  C   UNL     1      41.070 -12.623   3.845  1.00  0.00     0.076 A 
HETATM    6  O   UNL     1      41.696 -12.368   5.034  1.00  0.00    -0.349 OA
HETATM    7  C   UNL     1      41.736 -13.553   5.848  1.00  0.00     0.203 C 
HETATM    8  C   UNL     1      43.014 -14.369   5.609  1.00  0.00     0.262 C 
HETATM    9  C   UNL     1      41.012 -13.707   1.695  1.00  0.00     0.020 A 
HETATM   10  C   UNL     1      39.656 -13.352   1.534  1.00  0.00    -0.032 A 
HETATM   11  C   UNL     1      39.048 -12.575   2.535  1.00  0.00     0.011 A 
HETATM   12  C   UNL     1      39.760 -12.191   3.673  1.00  0.00     0.038 A 
ENDROOT
BRANCH  10  13
HETATM   13  C   UNL     1      38.860 -13.958   0.396  1.00  0.00     0.273 C 
BRANCH  13  14
HETATM   14  N   UNL     1      39.473 -13.924  -0.976  1.00  0.00    -0.066 N 
HETATM   15  H   UNL     1      40.169 -14.693  -1.028  1.00  0.00     0.280 HD
HETATM   16  C   UNL     1      38.482 -14.217  -2.087  1.00  0.00     0.249 C 
HETATM   17  C   UNL     1      39.197 -14.288  -3.438  1.00  0.00     0.103 C 
HETATM   18  C   UNL     1      39.996 -13.008  -3.702  1.00  0.00     0.017 C 
HETATM   19  C   UNL     1      40.940 -12.672  -2.548  1.00  0.00     0.029 C 
HETATM   20  C   UNL     1      40.224 -12.633  -1.206  1.00  0.00     0.235 C 
BRANCH  17  21
HETATM   21  C   UNL     1      40.109 -15.501  -3.454  1.00  0.00     0.221 C 
HETATM   22  N   UNL     1      39.500 -16.711  -3.521  1.00  0.00    -0.370 N 
HETATM   23  H   UNL     1      38.497 -16.852  -3.486  1.00  0.00     0.159 HD
HETATM   24  H   UNL     1      40.074 -17.549  -3.547  1.00  0.00     0.159 HD
HETATM   25  O   UNL     1      41.332 -15.379  -3.488  1.00  0.00    -0.273 OA
ENDBRANCH  17  21
ENDBRANCH  13  14
ENDBRANCH  10  13
BRANCH   1  26
HETATM   26  C   UNL     1      42.158 -16.066   3.876  1.00  0.00     0.274 C 
BRANCH  26  27
HETATM   27  C   UNL     1      42.731 -17.343   3.334  1.00  0.00    -0.026 A 
HETATM   28  C   UNL     1      43.658 -18.036   4.140  1.00  0.00     0.016 A 
HETATM   29  C   UNL     1      44.146 -19.300   3.788  1.00  0.00    -0.056 A 
HETATM   30  C   UNL     1      43.684 -19.900   2.607  1.00  0.00    -0.056 A 
HETATM   31  C   UNL     1      45.080 -20.014   4.730  1.00  0.00     0.049 C 
HETATM   32  C   UNL     1      44.116 -21.287   2.207  1.00  0.00     0.049 C 
HETATM   33  C   UNL     1      42.804 -19.190   1.776  1.00  0.00     0.014 A 
HETATM   34  C   UNL     1      42.307 -17.923   2.126  1.00  0.00    -0.053 A 
HETATM   35  C   UNL     1      41.342 -17.255   1.185  1.00  0.00     0.049 C 
ENDBRANCH  26  27
ENDBRANCH   1  26
TORSDOF 5
ENDMDL
MODEL 4
REMARK VINA RESULT:      -8.8      2.940      6.493
REMARK  5 active torsions:
REMARK  status: ('A' for Active; 'I' for Inactive)
REMARK    1  A    between atoms: C_6  and  C_7 
REMARK    2  A    between atoms: C_7  and  N_8 
REMARK    3  A    between atoms: C_17  and  C_18 
REMARK    4  A    between atoms: C_18  and  N_19 
REMARK    5  A    between atoms: C_22  and  C_23 
REMARK       I    between atoms: C_23  and  N_24 
ROOT
HETATM    1  N   UNL     1      41.414 -16.822   1.333  1.00  0.00    -0.061 N 
HETATM    2  H   UNL     1      41.206 -17.824   1.256  1.00  0.00     0.280 HD
HETATM    3  C   UNL     1      40.309 -16.224   2.191  1.00  0.00     0.276 C 
HETATM    4  C   UNL     1      40.617 -14.816   2.629  1.00  0.00     0.002 A 
HETATM    5  C   UNL     1      40.667 -13.804   1.672  1.00  0.00     0.076 A 
HETATM    6  O   UNL     1      40.407 -14.091   0.361  1.00  0.00    -0.349 OA
HETATM    7  C   UNL     1      41.516 -14.790  -0.233  1.00  0.00     0.203 C 
HETATM    8  C   UNL     1      41.368 -16.312  -0.104  1.00  0.00     0.262 C 
HETATM    9  C   UNL     1      41.013 -14.516   3.947  1.00  0.00     0.020 A 
HETATM   10  C   UNL     1      41.466 -13.226   4.298  1.00  0.00    -0.032 A 
HETATM   11  C   UNL     1      41.454 -12.225   3.314  1.00  0.00     0.011 A 
HETATM   12  C   UNL     1      41.032 -12.507   2.012  1.00  0.00     0.038 A 
ENDROOT
BRANCH  10  13
HETATM   13  C   UNL     1      42.111 -13.011   5.653  1.00  0.00     0.273 C 
BRANCH  13  14
HETATM   14  N   UNL     1      41.436 -12.058   6.600  1.00  0.00    -0.066 N 
HETATM   15  H   UNL     1      41.899 -12.156   7.525  1.00  0.00     0.280 HD
HETATM   16  C   UNL     1      41.619 -10.601   6.223  1.00  0.00     0.249 C 
HETATM   17  C   UNL     1      41.015  -9.689   7.294  1.00  0.00     0.103 C 
HETATM   18  C   UNL     1      39.545 -10.039   7.544  1.00  0.00     0.017 C 
HETATM   19  C   UNL     1      39.352 -11.524   7.850  1.00  0.00     0.029 C 
HETATM   20  C   UNL     1      39.982 -12.420   6.794  1.00  0.00     0.235 C 
BRANCH  17  21
HETATM   21  C   UNL     1      41.823  -9.823   8.572  1.00  0.00     0.221 C 
HETATM   22  N   UNL     1      41.290  -9.259   9.683  1.00  0.00    -0.370 N 
HETATM   23  H   UNL     1      40.444  -8.703   9.696  1.00  0.00     0.159 HD
HETATM   24  H   UNL     1      41.793  -9.337  10.563  1.00  0.00     0.159 HD
HETATM   25  O   UNL     1      42.862 -10.481   8.603  1.00  0.00    -0.273 OA
ENDBRANCH  17  21
ENDBRANCH  13  14
ENDBRANCH  10  13
BRANCH   1  26
HETATM   26  C   UNL     1      42.753 -16.731   2.023  1.00  0.00     0.274 C 
BRANCH  26  27
HETATM   27  C   UNL     1      43.229 -17.941   2.772  1.00  0.00    -0.026 A 
HETATM   28  C   UNL     1      43.356 -19.147   2.051  1.00  0.00     0.016 A 
HETATM   29  C   UNL     1      43.920 -20.295   2.619  1.00  0.00    -0.056 A 
HETATM   30  C   UNL     1      44.387 -20.236   3.941  1.00  0.00    -0.056 A 
HETATM   31  C   UNL     1      44.090 -21.526   1.769  1.00  0.00     0.049 C 
HETATM   32  C   UNL     1      45.065 -21.415   4.589  1.00  0.00     0.049 C 
HETATM   33  C   UNL     1      44.212 -19.055   4.679  1.00  0.00     0.014 A 
HETATM   34  C   UNL     1      43.651 -17.898   4.112  1.00  0.00    -0.053 A 
HETATM   35  C   UNL     1      43.535 -16.670   4.974  1.00  0.00     0.049 C 
ENDBRANCH  26  27
ENDBRANCH   1  26
TORSDOF 5
ENDMDL
MODEL 5
REMARK VINA RESULT:      -8.6      1.615      2.722
REMARK  5 active torsions:
REMARK  status: ('A' for Active; 'I' for Inactive)
REMARK    1  A    between atoms: C_6  and  C_7 
REMARK    2  A    between atoms: C_7  and  N_8 
REMARK    3  A    between atoms: C_17  and  C_18 
REMARK    4  A    between atoms: C_18  and  N_19 
REMARK    5  A    between atoms: C_22  and  C_23 
REMARK       I    between atoms: C_23  and  N_24 
ROOT
HETATM    1  N   UNL     1      43.495 -14.674   5.222  1.00  0.00    -0.061 N 
HETATM    2  H   UNL     1      44.372 -15.097   5.543  1.00  0.00     0.280 HD
HETATM    3  C   UNL     1      43.778 -14.110   3.837  1.00  0.00     0.276 C 
HETATM    4  C   UNL     1      42.521 -13.701   3.113  1.00  0.00     0.002 A 
HETATM    5  C   UNL     1      41.779 -12.625   3.597  1.00  0.00     0.076 A 
HETATM    6  O   UNL     1      42.213 -11.936   4.696  1.00  0.00    -0.349 OA
HETATM    7  C   UNL     1      41.992 -12.704   5.893  1.00  0.00     0.203 C 
HETATM    8  C   UNL     1      43.203 -13.579   6.242  1.00  0.00     0.262 C 
HETATM    9  C   UNL     1      41.986 -14.468   2.060  1.00  0.00     0.020 A 
HETATM   10  C   UNL     1      40.720 -14.171   1.510  1.00  0.00    -0.032 A 
HETATM   11  C   UNL     1      40.030 -13.049   1.995  1.00  0.00     0.011 A 
HETATM   12  C   UNL     1      40.569 -12.263   3.017  1.00  0.00     0.038 A 
ENDROOT
BRANCH  10  13
HETATM   13  C   UNL     1      40.077 -15.158   0.557  1.00  0.00     0.273 C 
BRANCH  13  14
HETATM   14  N   UNL     1      40.100 -14.826  -0.909  1.00  0.00    -0.066 N 
HETATM   15  H   UNL     1      39.964 -15.712  -1.433  1.00  0.00     0.280 HD
HETATM   16  C   UNL     1      38.954 -13.934  -1.344  1.00  0.00     0.249 C 
HETATM   17  C   UNL     1      38.971 -13.740  -2.862  1.00  0.00     0.103 C 
HETATM   18  C   UNL     1      40.326 -13.204  -3.330  1.00  0.00     0.017 C 
HETATM   19  C   UNL     1      41.488 -14.062  -2.828  1.00  0.00     0.029 C 
HETATM   20  C   UNL     1      41.444 -14.272  -1.322  1.00  0.00     0.235 C 
BRANCH  17  21
HETATM   21  C   UNL     1      38.657 -15.064  -3.534  1.00  0.00     0.221 C 
HETATM   22  N   UNL     1      37.463 -15.628  -3.227  1.00  0.00    -0.370 N 
HETATM   23  H   UNL     1      36.817 -15.264  -2.535  1.00  0.00     0.159 HD
HETATM   24  H   UNL     1      37.207 -16.508  -3.664  1.00  0.00     0.159 HD
HETATM   25  O   UNL     1      39.414 -15.549  -4.373  1.00  0.00    -0.273 OA
ENDBRANCH  17  21
ENDBRANCH  13  14
ENDBRANCH  10  13
BRANCH   1  26
HETATM   26  C   UNL     1      42.494 -15.801   5.159  1.00  0.00     0.274 C 
BRANCH  26  27
HETATM   27  C   UNL     1      43.031 -17.200   5.073  1.00  0.00    -0.026 A 
HETATM   28  C   UNL     1      43.107 -17.792   3.795  1.00  0.00     0.016 A 
HETATM   29  C   UNL     1      43.717 -19.036   3.589  1.00  0.00    -0.056 A 
HETATM   30  C   UNL     1      44.283 -19.701   4.686  1.00  0.00    -0.056 A 
HETATM   31  C   UNL     1      43.825 -19.576   2.188  1.00  0.00     0.049 C 
HETATM   32  C   UNL     1      45.013 -21.009   4.522  1.00  0.00     0.049 C 
HETATM   33  C   UNL     1      44.160 -19.141   5.968  1.00  0.00     0.014 A 
HETATM   34  C   UNL     1      43.553 -17.892   6.179  1.00  0.00    -0.053 A 
HETATM   35  C   UNL     1      43.499 -17.358   7.585  1.00  0.00     0.049 C 
ENDBRANCH  26  27
ENDBRANCH   1  26
TORSDOF 5
ENDMDL
MODEL 6
REMARK VINA RESULT:      -8.4      2.374      6.034
REMARK  5 active torsions:
REMARK  status: ('A' for Active; 'I' for Inactive)
REMARK    1  A    between atoms: C_6  and  C_7 
REMARK    2  A    between atoms: C_7  and  N_8 
REMARK    3  A    between atoms: C_17  and  C_18 
REMARK    4  A    between atoms: C_18  and  N_19 
REMARK    5  A    between atoms: C_22  and  C_23 
REMARK       I    between atoms: C_23  and  N_24 
ROOT
HETATM    1  N   UNL     1      43.280 -16.888   6.402  1.00  0.00    -0.061 N 
HETATM    2  H   UNL     1      42.908 -16.484   7.269  1.00  0.00     0.280 HD
HETATM    3  C   UNL     1      42.143 -17.687   5.784  1.00  0.00     0.276 C 
HETATM    4  C   UNL     1      42.440 -18.115   4.370  1.00  0.00     0.002 A 
HETATM    5  C   UNL     1      43.456 -19.042   4.142  1.00  0.00     0.076 A 
HETATM    6  O   UNL     1      44.145 -19.574   5.197  1.00  0.00    -0.349 OA
HETATM    7  C   UNL     1      45.065 -18.608   5.737  1.00  0.00     0.203 C 
HETATM    8  C   UNL     1      44.429 -17.779   6.861  1.00  0.00     0.262 C 
HETATM    9  C   UNL     1      41.837 -17.492   3.261  1.00  0.00     0.020 A 
HETATM   10  C   UNL     1      42.253 -17.780   1.944  1.00  0.00    -0.032 A 
HETATM   11  C   UNL     1      43.246 -18.756   1.758  1.00  0.00     0.011 A 
HETATM   12  C   UNL     1      43.827 -19.403   2.852  1.00  0.00     0.038 A 
ENDROOT
BRANCH  10  13
HETATM   13  C   UNL     1      41.755 -16.916   0.803  1.00  0.00     0.273 C 
BRANCH  13  14
HETATM   14  N   UNL     1      41.265 -15.535   1.139  1.00  0.00    -0.066 N 
HETATM   15  H   UNL     1      41.742 -15.237   2.012  1.00  0.00     0.280 HD
HETATM   16  C   UNL     1      41.649 -14.491   0.108  1.00  0.00     0.249 C 
HETATM   17  C   UNL     1      41.227 -13.095   0.575  1.00  0.00     0.103 C 
HETATM   18  C   UNL     1      39.732 -13.058   0.904  1.00  0.00     0.017 C 
HETATM   19  C   UNL     1      39.332 -14.159   1.886  1.00  0.00     0.029 C 
HETATM   20  C   UNL     1      39.782 -15.537   1.426  1.00  0.00     0.235 C 
BRANCH  17  21
HETATM   21  C   UNL     1      42.053 -12.708   1.789  1.00  0.00     0.221 C 
HETATM   22  N   UNL     1      41.707 -11.554   2.409  1.00  0.00    -0.370 N 
HETATM   23  H   UNL     1      40.998 -10.912   2.075  1.00  0.00     0.159 HD
HETATM   24  H   UNL     1      42.226 -11.264   3.233  1.00  0.00     0.159 HD
HETATM   25  O   UNL     1      42.931 -13.451   2.225  1.00  0.00    -0.273 OA
ENDBRANCH  17  21
ENDBRANCH  13  14
ENDBRANCH  10  13
BRANCH   1  26
HETATM   26  C   UNL     1      43.661 -15.716   5.532  1.00  0.00     0.274 C 
BRANCH  26  27
HETATM   27  C   UNL     1      43.068 -14.379   5.872  1.00  0.00    -0.026 A 
HETATM   28  C   UNL     1      41.783 -14.088   5.369  1.00  0.00     0.016 A 
HETATM   29  C   UNL     1      41.086 -12.932   5.739  1.00  0.00    -0.056 A 
HETATM   30  C   UNL     1      41.680 -12.046   6.650  1.00  0.00    -0.056 A 
HETATM   31  C   UNL     1      39.689 -12.720   5.219  1.00  0.00     0.049 C 
HETATM   32  C   UNL     1      40.957 -10.819   7.141  1.00  0.00     0.049 C 
HETATM   33  C   UNL     1      42.982 -12.304   7.109  1.00  0.00     0.014 A 
HETATM   34  C   UNL     1      43.684 -13.466   6.745  1.00  0.00    -0.053 A 
HETATM   35  C   UNL     1      45.061 -13.671   7.316  1.00  0.00     0.049 C 
ENDBRANCH  26  27
ENDBRANCH   1  26
TORSDOF 5
ENDMDL
MODEL 7
REMARK VINA RESULT:      -8.1      3.468      6.785
REMARK  5 active torsions:
REMARK  status: ('A' for Active; 'I' for Inactive)
REMARK    1  A    between atoms: C_6  and  C_7 
REMARK    2  A    between atoms: C_7  and  N_8 
REMARK    3  A    between atoms: C_17  and  C_18 
REMARK    4  A    between atoms: C_18  and  N_19 
REMARK    5  A    between atoms: C_22  and  C_23 
REMARK       I    between atoms: C_23  and  N_24 
ROOT
HETATM    1  N   UNL     1      41.493 -15.717   1.490  1.00  0.00    -0.061 N 
HETATM    2  H   UNL     1      41.675 -16.684   1.201  1.00  0.00     0.280 HD
HETATM    3  C   UNL     1      40.110 -15.716   2.125  1.00  0.00     0.276 C 
HETATM    4  C   UNL     1      39.809 -14.430   2.850  1.00  0.00     0.002 A 
HETATM    5  C   UNL     1      39.670 -13.254   2.115  1.00  0.00     0.076 A 
HETATM    6  O   UNL     1      39.775 -13.284   0.752  1.00  0.00    -0.349 OA
HETATM    7  C   UNL     1      41.150 -13.440   0.355  1.00  0.00     0.203 C 
HETATM    8  C   UNL     1      41.533 -14.918   0.192  1.00  0.00     0.262 C 
HETATM    9  C   UNL     1      39.822 -14.347   4.256  1.00  0.00     0.020 A 
HETATM   10  C   UNL     1      39.713 -13.105   4.916  1.00  0.00    -0.032 A 
HETATM   11  C   UNL     1      39.525 -11.951   4.137  1.00  0.00     0.011 A 
HETATM   12  C   UNL     1      39.478 -12.029   2.743  1.00  0.00     0.038 A 
ENDROOT
BRANCH  10  13
HETATM   13  C   UNL     1      39.977 -13.032   6.406  1.00  0.00     0.273 C 
BRANCH  13  14
HETATM   14  N   UNL     1      40.181 -11.670   7.011  1.00  0.00    -0.066 N 
HETATM   15  H   UNL     1      39.797 -10.972   6.346  1.00  0.00     0.280 HD
HETATM   16  C   UNL     1      39.403 -11.457   8.295  1.00  0.00     0.249 C 
HETATM   17  C   UNL     1      39.560 -10.015   8.784  1.00  0.00     0.103 C 
HETATM   18  C   UNL     1      41.038  -9.648   8.939  1.00  0.00     0.017 C 
HETATM   19  C   UNL     1      41.838  -9.934   7.668  1.00  0.00     0.029 C 
HETATM   20  C   UNL     1      41.651 -11.361   7.175  1.00  0.00     0.235 C 
BRANCH  17  21
HETATM   21  C   UNL     1      38.876  -9.082   7.802  1.00  0.00     0.221 C 
HETATM   22  N   UNL     1      38.852  -7.768   8.136  1.00  0.00    -0.370 N 
HETATM   23  H   UNL     1      39.189  -7.393   9.015  1.00  0.00     0.159 HD
HETATM   24  H   UNL     1      38.415  -7.107   7.501  1.00  0.00     0.159 HD
HETATM   25  O   UNL     1      38.444  -9.493   6.727  1.00  0.00    -0.273 OA
ENDBRANCH  17  21
ENDBRANCH  13  14
ENDBRANCH  10  13
BRANCH   1  26
HETATM   26  C   UNL     1      42.560 -15.383   2.504  1.00  0.00     0.274 C 
BRANCH  26  27
HETATM   27  C   UNL     1      43.070 -16.501   3.366  1.00  0.00    -0.026 A 
HETATM   28  C   UNL     1      42.824 -16.421   4.752  1.00  0.00     0.016 A 
HETATM   29  C   UNL     1      43.136 -17.472   5.623  1.00  0.00    -0.056 A 
HETATM   30  C   UNL     1      43.694 -18.645   5.094  1.00  0.00    -0.056 A 
HETATM   31  C   UNL     1      42.781 -17.346   7.081  1.00  0.00     0.049 C 
HETATM   32  C   UNL     1      43.989 -19.838   5.966  1.00  0.00     0.049 C 
HETATM   33  C   UNL     1      43.992 -18.707   3.724  1.00  0.00     0.014 A 
HETATM   34  C   UNL     1      43.677 -17.657   2.845  1.00  0.00    -0.053 A 
HETATM   35  C   UNL     1      44.004 -17.831   1.386  1.00  0.00     0.049 C 
ENDBRANCH  26  27
ENDBRANCH   1  26
TORSDOF 5
ENDMDL
MODEL 8
REMARK VINA RESULT:      -7.8      2.376      6.471
REMARK  5 active torsions:
REMARK  status: ('A' for Active; 'I' for Inactive)
REMARK    1  A    between atoms: C_6  and  C_7 
REMARK    2  A    between atoms: C_7  and  N_8 
REMARK    3  A    between atoms: C_17  and  C_18 
REMARK    4  A    between atoms: C_18  and  N_19 
REMARK    5  A    between atoms: C_22  and  C_23 
REMARK       I    between atoms: C_23  and  N_24 
ROOT
HETATM    1  N   UNL     1      42.928 -17.011   1.461  1.00  0.00    -0.061 N 
HETATM    2  H   UNL     1      43.241 -16.785   0.510  1.00  0.00     0.280 HD
HETATM    3  C   UNL     1      43.602 -16.003   2.379  1.00  0.00     0.276 C 
HETATM    4  C   UNL     1      43.032 -16.021   3.774  1.00  0.00     0.002 A 
HETATM    5  C   UNL     1      43.226 -17.149   4.571  1.00  0.00     0.076 A 
HETATM    6  O   UNL     1      43.954 -18.204   4.095  1.00  0.00    -0.349 OA
HETATM    7  C   UNL     1      43.192 -18.946   3.125  1.00  0.00     0.203 C 
HETATM    8  C   UNL     1      43.426 -18.432   1.698  1.00  0.00     0.262 C 
HETATM    9  C   UNL     1      42.174 -15.007   4.241  1.00  0.00     0.020 A 
HETATM   10  C   UNL     1      41.509 -15.125   5.480  1.00  0.00    -0.032 A 
HETATM   11  C   UNL     1      41.773 -16.255   6.272  1.00  0.00     0.011 A 
HETATM   12  C   UNL     1      42.648 -17.250   5.830  1.00  0.00     0.038 A 
ENDROOT
BRANCH  10  13
HETATM   13  C   UNL     1      40.415 -14.138   5.832  1.00  0.00     0.273 C 
BRANCH  13  14
HETATM   14  N   UNL     1      40.579 -12.720   5.358  1.00  0.00    -0.066 N 
HETATM   15  H   UNL     1      41.346 -12.711   4.658  1.00  0.00     0.280 HD
HETATM   16  C   UNL     1      39.367 -12.188   4.617  1.00  0.00     0.249 C 
HETATM   17  C   UNL     1      39.651 -10.791   4.058  1.00  0.00     0.103 C 
HETATM   18  C   UNL     1      40.111  -9.842   5.167  1.00  0.00     0.017 C 
HETATM   19  C   UNL     1      41.284 -10.413   5.963  1.00  0.00     0.029 C 
HETATM   20  C   UNL     1      41.002 -11.812   6.489  1.00  0.00     0.235 C 
BRANCH  17  21
HETATM   21  C   UNL     1      40.706 -10.897   2.972  1.00  0.00     0.221 C 
HETATM   22  N   UNL     1      41.174  -9.728   2.470  1.00  0.00    -0.370 N 
HETATM   23  H   UNL     1      40.816  -8.813   2.718  1.00  0.00     0.159 HD
HETATM   24  H   UNL     1      41.890  -9.754   1.750  1.00  0.00     0.159 HD
HETATM   25  O   UNL     1      41.163 -11.987   2.632  1.00  0.00    -0.273 OA
ENDBRANCH  17  21
ENDBRANCH  13  14
ENDBRANCH  10  13
BRANCH   1  26
HETATM   26  C   UNL     1      41.430 -16.828   1.455  1.00  0.00     0.274 C 
BRANCH  26  27
HETATM   27  C   UNL     1      40.865 -15.768   0.555  1.00  0.00    -0.026 A 
HETATM   28  C   UNL     1      41.355 -15.704  -0.766  1.00  0.00     0.016 A 
HETATM   29  C   UNL     1      40.800 -14.846  -1.723  1.00  0.00    -0.056 A 
HETATM   30  C   UNL     1      39.712 -14.039  -1.357  1.00  0.00    -0.056 A 
HETATM   31  C   UNL     1      41.326 -14.881  -3.133  1.00  0.00     0.049 C 
HETATM   32  C   UNL     1      39.026 -13.144  -2.356  1.00  0.00     0.049 C 
HETATM   33  C   UNL     1      39.258 -14.058  -0.029  1.00  0.00     0.014 A 
HETATM   34  C   UNL     1      39.809 -14.922   0.934  1.00  0.00    -0.053 A 
HETATM   35  C   UNL     1      39.232 -14.895   2.323  1.00  0.00     0.049 C 
ENDBRANCH  26  27
ENDBRANCH   1  26
TORSDOF 5
ENDMDL
MODEL 9
REMARK VINA RESULT:      -7.8      2.208      7.206
REMARK  5 active torsions:
REMARK  status: ('A' for Active; 'I' for Inactive)
REMARK    1  A    between atoms: C_6  and  C_7 
REMARK    2  A    between atoms: C_7  and  N_8 
REMARK    3  A    between atoms: C_17  and  C_18 
REMARK    4  A    between atoms: C_18  and  N_19 
REMARK    5  A    between atoms: C_22  and  C_23 
REMARK       I    between atoms: C_23  and  N_24 
ROOT
HETATM    1  N   UNL     1      39.084 -14.585   0.366  1.00  0.00    -0.061 N 
HETATM    2  H   UNL     1      38.583 -15.190  -0.294  1.00  0.00     0.280 HD
HETATM    3  C   UNL     1      38.878 -15.197   1.743  1.00  0.00     0.276 C 
HETATM    4  C   UNL     1      39.777 -14.587   2.787  1.00  0.00     0.002 A 
HETATM    5  C   UNL     1      39.586 -13.255   3.151  1.00  0.00     0.076 A 
HETATM    6  O   UNL     1      38.572 -12.532   2.588  1.00  0.00    -0.349 OA
HETATM    7  C   UNL     1      38.899 -12.176   1.232  1.00  0.00     0.203 C 
HETATM    8  C   UNL     1      38.404 -13.227   0.230  1.00  0.00     0.262 C 
HETATM    9  C   UNL     1      40.904 -15.267   3.288  1.00  0.00     0.020 A 
HETATM   10  C   UNL     1      41.834 -14.620   4.129  1.00  0.00    -0.032 A 
HETATM   11  C   UNL     1      41.576 -13.293   4.511  1.00  0.00     0.011 A 
HETATM   12  C   UNL     1      40.443 -12.622   4.044  1.00  0.00     0.038 A 
ENDROOT
BRANCH  10  13
HETATM   13  C   UNL     1      43.149 -15.303   4.444  1.00  0.00     0.273 C 
BRANCH  13  14
HETATM   14  N   UNL     1      43.494 -16.541   3.665  1.00  0.00    -0.066 N 
HETATM   15  H   UNL     1      44.399 -16.898   4.028  1.00  0.00     0.280 HD
HETATM   16  C   UNL     1      42.513 -17.679   3.873  1.00  0.00     0.249 C 
HETATM   17  C   UNL     1      42.993 -18.940   3.151  1.00  0.00     0.103 C 
HETATM   18  C   UNL     1      43.242 -18.660   1.667  1.00  0.00     0.017 C 
HETATM   19  C   UNL     1      44.171 -17.465   1.456  1.00  0.00     0.029 C 
HETATM   20  C   UNL     1      43.701 -16.225   2.201  1.00  0.00     0.235 C 
BRANCH  17  21
HETATM   21  C   UNL     1      44.258 -19.444   3.821  1.00  0.00     0.221 C 
HETATM   22  N   UNL     1      44.900 -20.466   3.205  1.00  0.00    -0.370 N 
HETATM   23  H   UNL     1      44.554 -20.952   2.386  1.00  0.00     0.159 HD
HETATM   24  H   UNL     1      45.759 -20.825   3.613  1.00  0.00     0.159 HD
HETATM   25  O   UNL     1      44.712 -18.892   4.822  1.00  0.00    -0.273 OA
ENDBRANCH  17  21
ENDBRANCH  13  14
ENDBRANCH  10  13
BRANCH   1  26
HETATM   26  C   UNL     1      40.535 -14.640  -0.045  1.00  0.00     0.274 C 
BRANCH  26  27
HETATM   27  C   UNL     1      40.966 -13.763  -1.185  1.00  0.00    -0.026 A 
HETATM   28  C   UNL     1      41.748 -12.630  -0.876  1.00  0.00     0.016 A 
HETATM   29  C   UNL     1      42.314 -11.826  -1.872  1.00  0.00    -0.056 A 
HETATM   30  C   UNL     1      42.110 -12.171  -3.217  1.00  0.00    -0.056 A 
HETATM   31  C   UNL     1      43.196 -10.674  -1.472  1.00  0.00     0.049 C 
HETATM   32  C   UNL     1      42.747 -11.388  -4.335  1.00  0.00     0.049 C 
HETATM   33  C   UNL     1      41.286 -13.265  -3.528  1.00  0.00     0.014 A 
HETATM   34  C   UNL     1      40.720 -14.078  -2.532  1.00  0.00    -0.053 A 
HETATM   35  C   UNL     1      39.879 -15.248  -2.965  1.00  0.00     0.049 C 
ENDBRANCH  26  27
ENDBRANCH   1  26
TORSDOF 5
ENDMDL
MODEL 10
REMARK VINA RESULT:      -7.8      2.377      8.202
REMARK  5 active torsions:
REMARK  status: ('A' for Active; 'I' for Inactive)
REMARK    1  A    between atoms: C_6  and  C_7 
REMARK    2  A    between atoms: C_7  and  N_8 
REMARK    3  A    between atoms: C_17  and  C_18 
REMARK    4  A    between atoms: C_18  and  N_19 
REMARK    5  A    between atoms: C_22  and  C_23 
REMARK       I    between atoms: C_23  and  N_24 
ROOT
HETATM    1  N   UNL     1      40.814 -12.587   1.743  1.00  0.00    -0.061 N 
HETATM    2  H   UNL     1      40.984 -11.620   2.042  1.00  0.00     0.280 HD
HETATM    3  C   UNL     1      42.172 -13.272   1.728  1.00  0.00     0.276 C 
HETATM    4  C   UNL     1      42.063 -14.767   1.579  1.00  0.00     0.002 A 
HETATM    5  C   UNL     1      41.582 -15.296   0.382  1.00  0.00     0.076 A 
HETATM    6  O   UNL     1      41.249 -14.461  -0.648  1.00  0.00    -0.349 OA
HETATM    7  C   UNL     1      40.004 -13.793  -0.373  1.00  0.00     0.203 C 
HETATM    8  C   UNL     1      40.220 -12.454   0.345  1.00  0.00     0.262 C 
HETATM    9  C   UNL     1      42.277 -15.641   2.663  1.00  0.00     0.020 A 
HETATM   10  C   UNL     1      42.001 -17.021   2.554  1.00  0.00    -0.032 A 
HETATM   11  C   UNL     1      41.565 -17.518   1.315  1.00  0.00     0.011 A 
HETATM   12  C   UNL     1      41.382 -16.662   0.226  1.00  0.00     0.038 A 
ENDROOT
BRANCH  10  13
HETATM   13  C   UNL     1      42.009 -17.878   3.804  1.00  0.00     0.273 C 
BRANCH  13  14
HETATM   14  N   UNL     1      42.941 -17.481   4.914  1.00  0.00    -0.066 N 
HETATM   15  H   UNL     1      43.373 -16.574   4.651  1.00  0.00     0.280 HD
HETATM   16  C   UNL     1      42.234 -17.210   6.228  1.00  0.00     0.249 C 
HETATM   17  C   UNL     1      43.225 -16.692   7.274  1.00  0.00     0.103 C 
HETATM   18  C   UNL     1      44.399 -17.661   7.441  1.00  0.00     0.017 C 
HETATM   19  C   UNL     1      45.064 -17.993   6.106  1.00  0.00     0.029 C 
HETATM   20  C   UNL     1      44.066 -18.478   5.066  1.00  0.00     0.235 C 
BRANCH  17  21
HETATM   21  C   UNL     1      43.717 -15.320   6.853  1.00  0.00     0.221 C 
HETATM   22  N   UNL     1      44.197 -14.523   7.839  1.00  0.00    -0.370 N 
HETATM   23  H   UNL     1      44.177 -14.755   8.826  1.00  0.00     0.159 HD
HETATM   24  H   UNL     1      44.549 -13.601   7.599  1.00  0.00     0.159 HD
HETATM   25  O   UNL     1      43.752 -14.991   5.669  1.00  0.00    -0.273 OA
ENDBRANCH  17  21
ENDBRANCH  13  14
ENDBRANCH  10  13
BRANCH   1  26
HETATM   26  C   UNL     1      39.909 -13.189   2.790  1.00  0.00     0.274 C 
BRANCH  26  27
HETATM   27  C   UNL     1      39.921 -12.566   4.156  1.00  0.00    -0.026 A 
HETATM   28  C   UNL     1      39.839 -11.160   4.233  1.00  0.00     0.016 A 
HETATM   29  C   UNL     1      39.705 -10.491   5.455  1.00  0.00    -0.056 A 
HETATM   30  C   UNL     1      39.634 -11.246   6.635  1.00  0.00    -0.056 A 
HETATM   31  C   UNL     1      39.551  -8.993   5.458  1.00  0.00     0.049 C 
HETATM   32  C   UNL     1      39.422 -10.592   7.976  1.00  0.00     0.049 C 
HETATM   33  C   UNL     1      39.772 -12.641   6.568  1.00  0.00     0.014 A 
HETATM   34  C   UNL     1      39.902 -13.318   5.343  1.00  0.00    -0.053 A 
HETATM   35  C   UNL     1      40.009 -14.819   5.370  1.00  0.00     0.049 C 
ENDBRANCH  26  27
ENDBRANCH   1  26
TORSDOF 5
ENDMDL
