MODEL 1
REMARK VINA RESULT:      -8.5      0.000      0.000
REMARK  6 active torsions:
REMARK  status: ('A' for Active; 'I' for Inactive)
REMARK    1  A    between atoms: C_9  and  C_10 
REMARK    2  A    between atoms: C_10  and  S_11 
REMARK    3  A    between atoms: S_11  and  C_12 
REMARK    4  A    between atoms: C_12  and  C_13 
REMARK       I    between atoms: C_13  and  N_14 
REMARK    5  A    between atoms: N_14  and  N_15 
REMARK       I    between atoms: N_15  and  C_16 
REMARK    6  A    between atoms: C_16  and  C_17 
ROOT
HETATM    1  C   UNL     1      43.684 -13.433   6.487  1.00  0.00     0.245 C 
HETATM    2  N   UNL     1      44.527 -13.422   7.579  1.00  0.00    -0.267 N 
HETATM    3  O   UNL     1      42.584 -12.877   6.500  1.00  0.00    -0.271 OA
HETATM    4  H   UNL     1      45.300 -14.090   7.634  1.00  0.00     0.190 HD
ENDROOT
BRANCH   1   5
HETATM    5  C   UNL     1      44.256 -14.062   5.228  1.00  0.00     0.178 C 
BRANCH   5   6
HETATM    6  S   UNL     1      43.038 -14.139   3.876  1.00  0.00    -0.154 SA
BRANCH   6   7
HETATM    7  C   UNL     1      42.041 -15.535   4.493  1.00  0.00     0.135 C 
BRANCH   7   8
HETATM    8  C   UNL     1      42.613 -16.830   4.032  1.00  0.00     0.062 A 
HETATM    9  C   UNL     1      42.354 -17.532   2.870  1.00  0.00     0.126 A 
HETATM   10  N   UNL     1      43.103 -18.678   2.951  1.00  0.00    -0.315 N 
HETATM   11  C   UNL     1      43.189 -19.745   2.061  1.00  0.00     0.105 A 
HETATM   12  C   UNL     1      43.807 -18.612   4.146  1.00  0.00     0.134 A 
HETATM   13  C   UNL     1      43.993 -20.787   2.350  1.00  0.00    -0.046 A 
HETATM   14  C   UNL     1      44.151 -21.986   1.471  1.00  0.00     0.049 C 
HETATM   15  C   UNL     1      44.753 -20.745   3.601  1.00  0.00     0.012 A 
HETATM   16  C   UNL     1      44.662 -19.706   4.454  1.00  0.00     0.051 A 
HETATM   17  N   UNL     1      43.536 -17.504   4.804  1.00  0.00    -0.233 NA
ENDBRANCH   7   8
ENDBRANCH   6   7
ENDBRANCH   5   6
ENDBRANCH   1   5
BRANCH   2  18
HETATM   18  N   UNL     1      44.027 -12.940   8.794  1.00  0.00    -0.262 N 
HETATM   19  C   UNL     1      44.618 -11.837   9.372  1.00  0.00     0.286 C 
HETATM   20  O   UNL     1      45.567 -11.255   8.849  1.00  0.00    -0.264 OA
HETATM   21  H   UNL     1      43.297 -13.489   9.239  1.00  0.00     0.190 HD
BRANCH  19  22
HETATM   22  C   UNL     1      44.045 -11.406  10.628  1.00  0.00     0.103 A 
HETATM   23  N   UNL     1      43.277 -12.262  11.395  1.00  0.00    -0.360 N 
HETATM   24  H   UNL     1      43.071 -13.219  11.128  1.00  0.00     0.165 HD
HETATM   25  C   UNL     1      42.863 -11.639  12.541  1.00  0.00     0.107 A 
HETATM   26  C   UNL     1      43.368 -10.365  12.508  1.00  0.00     0.028 A 
HETATM   27 BR   UNL     1      43.146  -9.032  13.803  1.00  0.00    -0.050 Br
HETATM   28  C   UNL     1      44.105 -10.203  11.318  1.00  0.00     0.055 A 
ENDBRANCH  19  22
ENDBRANCH   2  18
TORSDOF 6
ENDMDL
MODEL 2
REMARK VINA RESULT:      -8.1      1.887      2.134
REMARK  6 active torsions:
REMARK  status: ('A' for Active; 'I' for Inactive)
REMARK    1  A    between atoms: C_9  and  C_10 
REMARK    2  A    between atoms: C_10  and  S_11 
REMARK    3  A    between atoms: S_11  and  C_12 
REMARK    4  A    between atoms: C_12  and  C_13 
REMARK       I    between atoms: C_13  and  N_14 
REMARK    5  A    between atoms: N_14  and  N_15 
REMARK       I    between atoms: N_15  and  C_16 
REMARK    6  A    between atoms: C_16  and  C_17 
ROOT
HETATM    1  C   UNL     1      44.464 -13.295   7.619  1.00  0.00     0.245 C 
HETATM    2  N   UNL     1      43.381 -12.452   7.755  1.00  0.00    -0.267 N 
HETATM    3  O   UNL     1      45.171 -13.615   8.577  1.00  0.00    -0.271 OA
HETATM    4  H   UNL     1      42.975 -12.005   6.928  1.00  0.00     0.190 HD
ENDROOT
BRANCH   1   5
HETATM    5  C   UNL     1      44.647 -13.905   6.240  1.00  0.00     0.178 C 
BRANCH   5   6
HETATM    6  S   UNL     1      43.297 -15.046   5.803  1.00  0.00    -0.154 SA
BRANCH   6   7
HETATM    7  C   UNL     1      43.867 -16.506   6.735  1.00  0.00     0.135 C 
BRANCH   7   8
HETATM    8  C   UNL     1      44.030 -17.675   5.828  1.00  0.00     0.062 A 
HETATM    9  C   UNL     1      43.753 -17.775   4.477  1.00  0.00     0.126 A 
HETATM   10  N   UNL     1      44.036 -19.072   4.134  1.00  0.00    -0.315 N 
HETATM   11  C   UNL     1      43.904 -19.711   2.904  1.00  0.00     0.105 A 
HETATM   12  C   UNL     1      44.499 -19.699   5.283  1.00  0.00     0.134 A 
HETATM   13  C   UNL     1      44.237 -21.012   2.794  1.00  0.00    -0.046 A 
HETATM   14  C   UNL     1      44.124 -21.796   1.525  1.00  0.00     0.049 C 
HETATM   15  C   UNL     1      44.733 -21.701   3.987  1.00  0.00     0.012 A 
HETATM   16  C   UNL     1      44.857 -21.071   5.172  1.00  0.00     0.051 A 
HETATM   17  N   UNL     1      44.514 -18.873   6.309  1.00  0.00    -0.233 NA
ENDBRANCH   7   8
ENDBRANCH   6   7
ENDBRANCH   5   6
ENDBRANCH   1   5
BRANCH   2  18
HETATM   18  N   UNL     1      43.210 -11.786   8.974  1.00  0.00    -0.262 N 
HETATM   19  C   UNL     1      42.629 -10.536   8.980  1.00  0.00     0.286 C 
HETATM   20  O   UNL     1      42.247  -9.988   7.947  1.00  0.00    -0.264 OA
HETATM   21  H   UNL     1      43.607 -12.230   9.797  1.00  0.00     0.190 HD
BRANCH  19  22
HETATM   22  C   UNL     1      42.493  -9.915  10.280  1.00  0.00     0.103 A 
HETATM   23  N   UNL     1      41.669  -8.821  10.466  1.00  0.00    -0.360 N 
HETATM   24  H   UNL     1      41.127  -8.396   9.721  1.00  0.00     0.165 HD
HETATM   25  C   UNL     1      41.690  -8.423  11.775  1.00  0.00     0.107 A 
HETATM   26  C   UNL     1      42.541  -9.269  12.437  1.00  0.00     0.028 A 
HETATM   27 BR   UNL     1      42.976  -9.231  14.257  1.00  0.00    -0.050 Br
HETATM   28  C   UNL     1      43.053 -10.205  11.516  1.00  0.00     0.055 A 
ENDBRANCH  19  22
ENDBRANCH   2  18
TORSDOF 6
ENDMDL
MODEL 3
REMARK VINA RESULT:      -8.1      5.246      7.794
REMARK  6 active torsions:
REMARK  status: ('A' for Active; 'I' for Inactive)
REMARK    1  A    between atoms: C_9  and  C_10 
REMARK    2  A    between atoms: C_10  and  S_11 
REMARK    3  A    between atoms: S_11  and  C_12 
REMARK    4  A    between atoms: C_12  and  C_13 
REMARK       I    between atoms: C_13  and  N_14 
REMARK    5  A    between atoms: N_14  and  N_15 
REMARK       I    between atoms: N_15  and  C_16 
REMARK    6  A    between atoms: C_16  and  C_17 
ROOT
HETATM    1  C   UNL     1      43.162 -13.856   4.522  1.00  0.00     0.245 C 
HETATM    2  N   UNL     1      41.956 -14.097   3.897  1.00  0.00    -0.267 N 
HETATM    3  O   UNL     1      44.155 -13.465   3.905  1.00  0.00    -0.271 OA
HETATM    4  H   UNL     1      41.238 -14.654   4.369  1.00  0.00     0.190 HD
ENDROOT
BRANCH   1   5
HETATM    5  C   UNL     1      43.147 -13.978   6.036  1.00  0.00     0.178 C 
BRANCH   5   6
HETATM    6  S   UNL     1      44.373 -15.179   6.646  1.00  0.00    -0.154 SA
BRANCH   6   7
HETATM    7  C   UNL     1      43.258 -16.601   6.889  1.00  0.00     0.135 C 
BRANCH   7   8
HETATM    8  C   UNL     1      43.377 -17.558   5.756  1.00  0.00     0.062 A 
HETATM    9  C   UNL     1      44.053 -18.763   5.700  1.00  0.00     0.126 A 
HETATM   10  N   UNL     1      43.885 -19.226   4.420  1.00  0.00    -0.315 N 
HETATM   11  C   UNL     1      44.384 -20.380   3.823  1.00  0.00     0.105 A 
HETATM   12  C   UNL     1      43.091 -18.297   3.759  1.00  0.00     0.134 A 
HETATM   13  C   UNL     1      44.097 -20.637   2.532  1.00  0.00    -0.046 A 
HETATM   14  C   UNL     1      44.590 -21.839   1.791  1.00  0.00     0.049 C 
HETATM   15  C   UNL     1      43.258 -19.679   1.808  1.00  0.00     0.012 A 
HETATM   16  C   UNL     1      42.780 -18.565   2.397  1.00  0.00     0.051 A 
HETATM   17  N   UNL     1      42.765 -17.294   4.548  1.00  0.00    -0.233 NA
ENDBRANCH   7   8
ENDBRANCH   6   7
ENDBRANCH   5   6
ENDBRANCH   1   5
BRANCH   2  18
HETATM   18  N   UNL     1      41.924 -14.091   2.498  1.00  0.00    -0.262 N 
HETATM   19  C   UNL     1      41.140 -15.015   1.841  1.00  0.00     0.286 C 
HETATM   20  O   UNL     1      40.460 -15.843   2.445  1.00  0.00    -0.264 OA
HETATM   21  H   UNL     1      42.556 -13.449   2.028  1.00  0.00     0.190 HD
BRANCH  19  22
HETATM   22  C   UNL     1      41.166 -14.944   0.396  1.00  0.00     0.103 A 
HETATM   23  N   UNL     1      40.879 -16.052  -0.379  1.00  0.00    -0.360 N 
HETATM   24  H   UNL     1      40.642 -16.959   0.008  1.00  0.00     0.165 HD
HETATM   25  C   UNL     1      40.949 -15.737  -1.709  1.00  0.00     0.107 A 
HETATM   26  C   UNL     1      41.291 -14.413  -1.789  1.00  0.00     0.028 A 
HETATM   27 BR   UNL     1      41.532 -13.405  -3.348  1.00  0.00    -0.050 Br
HETATM   28  C   UNL     1      41.433 -13.903  -0.483  1.00  0.00     0.055 A 
ENDBRANCH  19  22
ENDBRANCH   2  18
TORSDOF 6
ENDMDL
MODEL 4
REMARK VINA RESULT:      -8.0      1.364      1.376
REMARK  6 active torsions:
REMARK  status: ('A' for Active; 'I' for Inactive)
REMARK    1  A    between atoms: C_9  and  C_10 
REMARK    2  A    between atoms: C_10  and  S_11 
REMARK    3  A    between atoms: S_11  and  C_12 
REMARK    4  A    between atoms: C_12  and  C_13 
REMARK       I    between atoms: C_13  and  N_14 
REMARK    5  A    between atoms: N_14  and  N_15 
REMARK       I    between atoms: N_15  and  C_16 
REMARK    6  A    between atoms: C_16  and  C_17 
ROOT
HETATM    1  C   UNL     1      41.537 -12.151   6.198  1.00  0.00     0.245 C 
HETATM    2  N   UNL     1      42.559 -11.745   7.031  1.00  0.00    -0.267 N 
HETATM    3  O   UNL     1      40.353 -12.097   6.535  1.00  0.00    -0.271 OA
HETATM    4  H   UNL     1      43.521 -12.033   6.837  1.00  0.00     0.190 HD
ENDROOT
BRANCH   1   5
HETATM    5  C   UNL     1      41.960 -12.544   4.792  1.00  0.00     0.178 C 
BRANCH   5   6
HETATM    6  S   UNL     1      43.139 -13.931   4.785  1.00  0.00    -0.154 SA
BRANCH   6   7
HETATM    7  C   UNL     1      41.944 -15.299   4.947  1.00  0.00     0.135 C 
BRANCH   7   8
HETATM    8  C   UNL     1      42.530 -16.568   4.433  1.00  0.00     0.062 A 
HETATM    9  C   UNL     1      42.252 -17.244   3.260  1.00  0.00     0.126 A 
HETATM   10  N   UNL     1      43.028 -18.374   3.288  1.00  0.00    -0.315 N 
HETATM   11  C   UNL     1      43.110 -19.415   2.367  1.00  0.00     0.105 A 
HETATM   12  C   UNL     1      43.765 -18.325   4.463  1.00  0.00     0.134 A 
HETATM   13  C   UNL     1      43.945 -20.446   2.603  1.00  0.00    -0.046 A 
HETATM   14  C   UNL     1      44.103 -21.617   1.687  1.00  0.00     0.049 C 
HETATM   15  C   UNL     1      44.741 -20.421   3.832  1.00  0.00     0.012 A 
HETATM   16  C   UNL     1      44.652 -19.408   4.716  1.00  0.00     0.051 A 
HETATM   17  N   UNL     1      43.489 -17.241   5.159  1.00  0.00    -0.233 NA
ENDBRANCH   7   8
ENDBRANCH   6   7
ENDBRANCH   5   6
ENDBRANCH   1   5
BRANCH   2  18
HETATM   18  N   UNL     1      42.248 -11.459   8.365  1.00  0.00    -0.262 N 
HETATM   19  C   UNL     1      43.266 -11.137   9.237  1.00  0.00     0.286 C 
HETATM   20  O   UNL     1      44.442 -11.086   8.878  1.00  0.00    -0.264 OA
HETATM   21  H   UNL     1      41.281 -11.587   8.648  1.00  0.00     0.190 HD
BRANCH  19  22
HETATM   22  C   UNL     1      42.862 -10.859  10.598  1.00  0.00     0.103 A 
HETATM   23  N   UNL     1      41.760 -11.479  11.157  1.00  0.00    -0.360 N 
HETATM   24  H   UNL     1      41.181 -12.146  10.658  1.00  0.00     0.165 HD
HETATM   25  C   UNL     1      41.588 -11.072  12.452  1.00  0.00     0.107 A 
HETATM   26  C   UNL     1      42.588 -10.177  12.727  1.00  0.00     0.028 A 
HETATM   27 BR   UNL     1      42.883  -9.280  14.343  1.00  0.00    -0.050 Br
HETATM   28  C   UNL     1      43.390 -10.030  11.578  1.00  0.00     0.055 A 
ENDBRANCH  19  22
ENDBRANCH   2  18
TORSDOF 6
ENDMDL
MODEL 5
REMARK VINA RESULT:      -8.0      1.640      1.663
REMARK  6 active torsions:
REMARK  status: ('A' for Active; 'I' for Inactive)
REMARK    1  A    between atoms: C_9  and  C_10 
REMARK    2  A    between atoms: C_10  and  S_11 
REMARK    3  A    between atoms: S_11  and  C_12 
REMARK    4  A    between atoms: C_12  and  C_13 
REMARK       I    between atoms: C_13  and  N_14 
REMARK    5  A    between atoms: N_14  and  N_15 
REMARK       I    between atoms: N_15  and  C_16 
REMARK    6  A    between atoms: C_16  and  C_17 
ROOT
HETATM    1  C   UNL     1      42.348 -12.619   5.782  1.00  0.00     0.245 C 
HETATM    2  N   UNL     1      41.628 -11.769   6.597  1.00  0.00    -0.267 N 
HETATM    3  O   UNL     1      43.128 -13.459   6.236  1.00  0.00    -0.271 OA
HETATM    4  H   UNL     1      41.195 -10.930   6.203  1.00  0.00     0.190 HD
ENDROOT
BRANCH   1   5
HETATM    5  C   UNL     1      42.017 -12.538   4.301  1.00  0.00     0.178 C 
BRANCH   5   6
HETATM    6  S   UNL     1      42.937 -13.764   3.319  1.00  0.00    -0.154 SA
BRANCH   6   7
HETATM    7  C   UNL     1      41.680 -15.085   3.295  1.00  0.00     0.135 C 
BRANCH   7   8
HETATM    8  C   UNL     1      42.327 -16.420   3.161  1.00  0.00     0.062 A 
HETATM    9  C   UNL     1      42.231 -17.334   2.129  1.00  0.00     0.126 A 
HETATM   10  N   UNL     1      42.981 -18.415   2.517  1.00  0.00    -0.315 N 
HETATM   11  C   UNL     1      43.198 -19.624   1.862  1.00  0.00     0.105 A 
HETATM   12  C   UNL     1      43.524 -18.100   3.756  1.00  0.00     0.134 A 
HETATM   13  C   UNL     1      43.974 -20.561   2.440  1.00  0.00    -0.046 A 
HETATM   14  C   UNL     1      44.263 -21.896   1.829  1.00  0.00     0.049 C 
HETATM   15  C   UNL     1      44.566 -20.259   3.745  1.00  0.00     0.012 A 
HETATM   16  C   UNL     1      44.349 -19.084   4.368  1.00  0.00     0.051 A 
HETATM   17  N   UNL     1      43.153 -16.901   4.154  1.00  0.00    -0.233 NA
ENDBRANCH   7   8
ENDBRANCH   6   7
ENDBRANCH   5   6
ENDBRANCH   1   5
BRANCH   2  18
HETATM   18  N   UNL     1      41.949 -11.729   7.958  1.00  0.00    -0.262 N 
HETATM   19  C   UNL     1      42.218 -10.513   8.549  1.00  0.00     0.286 C 
HETATM   20  O   UNL     1      42.176  -9.458   7.918  1.00  0.00    -0.264 OA
HETATM   21  H   UNL     1      42.053 -12.623   8.431  1.00  0.00     0.190 HD
BRANCH  19  22
HETATM   22  C   UNL     1      42.545 -10.559   9.957  1.00  0.00     0.103 A 
HETATM   23  N   UNL     1      42.936 -11.739  10.562  1.00  0.00    -0.360 N 
HETATM   24  H   UNL     1      43.012 -12.622  10.068  1.00  0.00     0.165 HD
HETATM   25  C   UNL     1      43.210 -11.531  11.886  1.00  0.00     0.107 A 
HETATM   26  C   UNL     1      42.987 -10.202  12.137  1.00  0.00     0.028 A 
HETATM   27 BR   UNL     1      43.195  -9.314  13.771  1.00  0.00    -0.050 Br
HETATM   28  C   UNL     1      42.568  -9.582  10.943  1.00  0.00     0.055 A 
ENDBRANCH  19  22
ENDBRANCH   2  18
TORSDOF 6
ENDMDL
MODEL 6
REMARK VINA RESULT:      -7.8      3.514      4.101
REMARK  6 active torsions:
REMARK  status: ('A' for Active; 'I' for Inactive)
REMARK    1  A    between atoms: C_9  and  C_10 
REMARK    2  A    between atoms: C_10  and  S_11 
REMARK    3  A    between atoms: S_11  and  C_12 
REMARK    4  A    between atoms: C_12  and  C_13 
REMARK       I    between atoms: C_13  and  N_14 
REMARK    5  A    between atoms: N_14  and  N_15 
REMARK       I    between atoms: N_15  and  C_16 
REMARK    6  A    between atoms: C_16  and  C_17 
ROOT
HETATM    1  C   UNL     1      41.116 -15.373   5.066  1.00  0.00     0.245 C 
HETATM    2  N   UNL     1      39.934 -14.971   5.653  1.00  0.00    -0.267 N 
HETATM    3  O   UNL     1      42.216 -15.005   5.486  1.00  0.00    -0.271 OA
HETATM    4  H   UNL     1      39.051 -15.075   5.146  1.00  0.00     0.190 HD
ENDROOT
BRANCH   1   5
HETATM    5  C   UNL     1      40.977 -16.400   3.956  1.00  0.00     0.178 C 
BRANCH   5   6
HETATM    6  S   UNL     1      41.381 -15.710   2.320  1.00  0.00    -0.154 SA
BRANCH   6   7
HETATM    7  C   UNL     1      43.187 -15.954   2.365  1.00  0.00     0.135 C 
BRANCH   7   8
HETATM    8  C   UNL     1      43.517 -17.356   2.743  1.00  0.00     0.062 A 
HETATM    9  C   UNL     1      43.975 -17.847   3.951  1.00  0.00     0.126 A 
HETATM   10  N   UNL     1      44.162 -19.193   3.760  1.00  0.00    -0.315 N 
HETATM   11  C   UNL     1      44.640 -20.155   4.645  1.00  0.00     0.105 A 
HETATM   12  C   UNL     1      43.784 -19.467   2.452  1.00  0.00     0.134 A 
HETATM   13  C   UNL     1      44.753 -21.434   4.237  1.00  0.00    -0.046 A 
HETATM   14  C   UNL     1      45.263 -22.543   5.101  1.00  0.00     0.049 C 
HETATM   15  C   UNL     1      44.358 -21.758   2.864  1.00  0.00     0.012 A 
HETATM   16  C   UNL     1      43.896 -20.817   2.017  1.00  0.00     0.051 A 
HETATM   17  N   UNL     1      43.382 -18.379   1.829  1.00  0.00    -0.233 NA
ENDBRANCH   7   8
ENDBRANCH   6   7
ENDBRANCH   5   6
ENDBRANCH   1   5
BRANCH   2  18
HETATM   18  N   UNL     1      39.986 -13.960   6.618  1.00  0.00    -0.262 N 
HETATM   19  C   UNL     1      39.441 -12.727   6.330  1.00  0.00     0.286 C 
HETATM   20  O   UNL     1      38.902 -12.488   5.250  1.00  0.00    -0.264 OA
HETATM   21  H   UNL     1      40.508 -14.162   7.467  1.00  0.00     0.190 HD
BRANCH  19  22
HETATM   22  C   UNL     1      39.540 -11.736   7.379  1.00  0.00     0.103 A 
HETATM   23  N   UNL     1      39.191 -12.038   8.682  1.00  0.00    -0.360 N 
HETATM   24  H   UNL     1      38.849 -12.948   8.973  1.00  0.00     0.165 HD
HETATM   25  C   UNL     1      39.385 -10.953   9.493  1.00  0.00     0.107 A 
HETATM   26  C   UNL     1      39.860  -9.941   8.701  1.00  0.00     0.028 A 
HETATM   27 BR   UNL     1      40.320  -8.209   9.242  1.00  0.00    -0.050 Br
HETATM   28  C   UNL     1      39.960 -10.413   7.377  1.00  0.00     0.055 A 
ENDBRANCH  19  22
ENDBRANCH   2  18
TORSDOF 6
ENDMDL
MODEL 7
REMARK VINA RESULT:      -7.7      4.181     10.252
REMARK  6 active torsions:
REMARK  status: ('A' for Active; 'I' for Inactive)
REMARK    1  A    between atoms: C_9  and  C_10 
REMARK    2  A    between atoms: C_10  and  S_11 
REMARK    3  A    between atoms: S_11  and  C_12 
REMARK    4  A    between atoms: C_12  and  C_13 
REMARK       I    between atoms: C_13  and  N_14 
REMARK    5  A    between atoms: N_14  and  N_15 
REMARK       I    between atoms: N_15  and  C_16 
REMARK    6  A    between atoms: C_16  and  C_17 
ROOT
HETATM    1  C   UNL     1      42.848 -13.545   4.203  1.00  0.00     0.245 C 
HETATM    2  N   UNL     1      42.270 -14.705   4.675  1.00  0.00    -0.267 N 
HETATM    3  O   UNL     1      43.828 -13.556   3.456  1.00  0.00    -0.271 OA
HETATM    4  H   UNL     1      41.637 -14.671   5.478  1.00  0.00     0.190 HD
ENDROOT
BRANCH   1   5
HETATM    5  C   UNL     1      42.117 -12.261   4.559  1.00  0.00     0.178 C 
BRANCH   5   6
HETATM    6  S   UNL     1      41.147 -12.419   6.092  1.00  0.00    -0.154 SA
BRANCH   6   7
HETATM    7  C   UNL     1      41.282 -10.696   6.673  1.00  0.00     0.135 C 
BRANCH   7   8
HETATM    8  C   UNL     1      41.724 -10.656   8.095  1.00  0.00     0.062 A 
HETATM    9  C   UNL     1      40.957 -10.616   9.244  1.00  0.00     0.126 A 
HETATM   10  N   UNL     1      41.848 -10.545  10.285  1.00  0.00    -0.315 N 
HETATM   11  C   UNL     1      41.606 -10.452  11.653  1.00  0.00     0.105 A 
HETATM   12  C   UNL     1      43.119 -10.575   9.726  1.00  0.00     0.134 A 
HETATM   13  C   UNL     1      42.646 -10.385  12.507  1.00  0.00    -0.046 A 
HETATM   14  C   UNL     1      42.499 -10.273  13.991  1.00  0.00     0.049 C 
HETATM   15  C   UNL     1      44.000 -10.418  11.949  1.00  0.00     0.012 A 
HETATM   16  C   UNL     1      44.221 -10.509  10.623  1.00  0.00     0.051 A 
HETATM   17  N   UNL     1      43.066 -10.653   8.413  1.00  0.00    -0.233 NA
ENDBRANCH   7   8
ENDBRANCH   6   7
ENDBRANCH   5   6
ENDBRANCH   1   5
BRANCH   2  18
HETATM   18  N   UNL     1      42.943 -15.913   4.460  1.00  0.00    -0.262 N 
HETATM   19  C   UNL     1      42.287 -16.943   3.821  1.00  0.00     0.286 C 
HETATM   20  O   UNL     1      41.127 -16.833   3.426  1.00  0.00    -0.264 OA
HETATM   21  H   UNL     1      43.870 -16.000   4.868  1.00  0.00     0.190 HD
BRANCH  19  22
HETATM   22  C   UNL     1      43.051 -18.158   3.642  1.00  0.00     0.103 A 
HETATM   23  N   UNL     1      43.990 -18.556   4.575  1.00  0.00    -0.360 N 
HETATM   24  H   UNL     1      44.198 -18.031   5.418  1.00  0.00     0.165 HD
HETATM   25  C   UNL     1      44.568 -19.738   4.199  1.00  0.00     0.107 A 
HETATM   26  C   UNL     1      43.996 -20.102   3.008  1.00  0.00     0.028 A 
HETATM   27 BR   UNL     1      44.373 -21.633   2.000  1.00  0.00    -0.050 Br
HETATM   28  C   UNL     1      43.049 -19.124   2.645  1.00  0.00     0.055 A 
ENDBRANCH  19  22
ENDBRANCH   2  18
TORSDOF 6
ENDMDL
MODEL 8
REMARK VINA RESULT:      -7.5      1.759      2.399
REMARK  6 active torsions:
REMARK  status: ('A' for Active; 'I' for Inactive)
REMARK    1  A    between atoms: C_9  and  C_10 
REMARK    2  A    between atoms: C_10  and  S_11 
REMARK    3  A    between atoms: S_11  and  C_12 
REMARK    4  A    between atoms: C_12  and  C_13 
REMARK       I    between atoms: C_13  and  N_14 
REMARK    5  A    between atoms: N_14  and  N_15 
REMARK       I    between atoms: N_15  and  C_16 
REMARK    6  A    between atoms: C_16  and  C_17 
ROOT
HETATM    1  C   UNL     1      45.061 -13.019   8.174  1.00  0.00     0.245 C 
HETATM    2  N   UNL     1      43.817 -12.487   8.444  1.00  0.00    -0.267 N 
HETATM    3  O   UNL     1      45.970 -13.019   9.007  1.00  0.00    -0.271 OA
HETATM    4  H   UNL     1      43.178 -12.269   7.675  1.00  0.00     0.190 HD
ENDROOT
BRANCH   1   5
HETATM    5  C   UNL     1      45.193 -13.722   6.833  1.00  0.00     0.178 C 
BRANCH   5   6
HETATM    6  S   UNL     1      43.673 -13.603   5.837  1.00  0.00    -0.154 SA
BRANCH   6   7
HETATM    7  C   UNL     1      42.911 -15.187   6.323  1.00  0.00     0.135 C 
BRANCH   7   8
HETATM    8  C   UNL     1      43.113 -16.212   5.262  1.00  0.00     0.062 A 
HETATM    9  C   UNL     1      43.165 -17.588   5.378  1.00  0.00     0.126 A 
HETATM   10  N   UNL     1      43.415 -18.060   4.115  1.00  0.00    -0.315 N 
HETATM   11  C   UNL     1      43.593 -19.370   3.678  1.00  0.00     0.105 A 
HETATM   12  C   UNL     1      43.478 -16.953   3.279  1.00  0.00     0.134 A 
HETATM   13  C   UNL     1      43.841 -19.607   2.375  1.00  0.00    -0.046 A 
HETATM   14  C   UNL     1      44.058 -20.972   1.803  1.00  0.00     0.049 C 
HETATM   15  C   UNL     1      43.909 -18.461   1.466  1.00  0.00     0.012 A 
HETATM   16  C   UNL     1      43.734 -17.197   1.901  1.00  0.00     0.051 A 
HETATM   17  N   UNL     1      43.287 -15.834   3.947  1.00  0.00    -0.233 NA
ENDBRANCH   7   8
ENDBRANCH   6   7
ENDBRANCH   5   6
ENDBRANCH   1   5
BRANCH   2  18
HETATM   18  N   UNL     1      43.656 -11.748   9.621  1.00  0.00    -0.262 N 
HETATM   19  C   UNL     1      42.523 -10.981   9.782  1.00  0.00     0.286 C 
HETATM   20  O   UNL     1      41.641 -10.929   8.925  1.00  0.00    -0.264 OA
HETATM   21  H   UNL     1      44.436 -11.749  10.273  1.00  0.00     0.190 HD
BRANCH  19  22
HETATM   22  C   UNL     1      42.435 -10.245  11.024  1.00  0.00     0.103 A 
HETATM   23  N   UNL     1      42.189  -8.885  11.034  1.00  0.00    -0.360 N 
HETATM   24  H   UNL     1      42.063  -8.334  10.192  1.00  0.00     0.165 HD
HETATM   25  C   UNL     1      42.132  -8.417  12.319  1.00  0.00     0.107 A 
HETATM   26  C   UNL     1      42.349  -9.489  13.145  1.00  0.00     0.028 A 
HETATM   27 BR   UNL     1      42.384  -9.479  15.016  1.00  0.00    -0.050 Br
HETATM   28  C   UNL     1      42.543 -10.638  12.352  1.00  0.00     0.055 A 
ENDBRANCH  19  22
ENDBRANCH   2  18
TORSDOF 6
ENDMDL
MODEL 9
REMARK VINA RESULT:      -7.5      2.084      2.711
REMARK  6 active torsions:
REMARK  status: ('A' for Active; 'I' for Inactive)
REMARK    1  A    between atoms: C_9  and  C_10 
REMARK    2  A    between atoms: C_10  and  S_11 
REMARK    3  A    between atoms: S_11  and  C_12 
REMARK    4  A    between atoms: C_12  and  C_13 
REMARK       I    between atoms: C_13  and  N_14 
REMARK    5  A    between atoms: N_14  and  N_15 
REMARK       I    between atoms: N_15  and  C_16 
REMARK    6  A    between atoms: C_16  and  C_17 
ROOT
HETATM    1  C   UNL     1      41.093 -11.346   6.382  1.00  0.00     0.245 C 
HETATM    2  N   UNL     1      42.139 -11.486   7.270  1.00  0.00    -0.267 N 
HETATM    3  O   UNL     1      39.994 -10.906   6.725  1.00  0.00    -0.271 OA
HETATM    4  H   UNL     1      42.938 -12.079   7.029  1.00  0.00     0.190 HD
ENDROOT
BRANCH   1   5
HETATM    5  C   UNL     1      41.427 -11.643   4.929  1.00  0.00     0.178 C 
BRANCH   5   6
HETATM    6  S   UNL     1      40.186 -12.717   4.140  1.00  0.00    -0.154 SA
BRANCH   6   7
HETATM    7  C   UNL     1      40.287 -14.131   5.288  1.00  0.00     0.135 C 
BRANCH   7   8
HETATM    8  C   UNL     1      40.957 -15.288   4.634  1.00  0.00     0.062 A 
HETATM    9  C   UNL     1      41.930 -16.131   5.139  1.00  0.00     0.126 A 
HETATM   10  N   UNL     1      42.237 -16.998   4.121  1.00  0.00    -0.315 N 
HETATM   11  C   UNL     1      43.174 -18.027   4.088  1.00  0.00     0.105 A 
HETATM   12  C   UNL     1      41.419 -16.664   3.050  1.00  0.00     0.134 A 
HETATM   13  C   UNL     1      43.317 -18.758   2.964  1.00  0.00    -0.046 A 
HETATM   14  C   UNL     1      44.298 -19.877   2.817  1.00  0.00     0.049 C 
HETATM   15  C   UNL     1      42.465 -18.434   1.818  1.00  0.00     0.012 A 
HETATM   16  C   UNL     1      41.561 -17.436   1.863  1.00  0.00     0.051 A 
HETATM   17  N   UNL     1      40.634 -15.648   3.342  1.00  0.00    -0.233 NA
ENDBRANCH   7   8
ENDBRANCH   6   7
ENDBRANCH   5   6
ENDBRANCH   1   5
BRANCH   2  18
HETATM   18  N   UNL     1      41.875 -11.316   8.634  1.00  0.00    -0.262 N 
HETATM   19  C   UNL     1      42.896 -10.921   9.471  1.00  0.00     0.286 C 
HETATM   20  O   UNL     1      44.034 -10.705   9.056  1.00  0.00    -0.264 OA
HETATM   21  H   UNL     1      40.948 -11.579   8.957  1.00  0.00     0.190 HD
BRANCH  19  22
HETATM   22  C   UNL     1      42.542 -10.773  10.865  1.00  0.00     0.103 A 
HETATM   23  N   UNL     1      41.520 -11.517  11.426  1.00  0.00    -0.360 N 
HETATM   24  H   UNL     1      40.970 -12.192  10.906  1.00  0.00     0.165 HD
HETATM   25  C   UNL     1      41.384 -11.217  12.755  1.00  0.00     0.107 A 
HETATM   26  C   UNL     1      42.325 -10.266  13.049  1.00  0.00     0.028 A 
HETATM   27 BR   UNL     1      42.632  -9.463  14.712  1.00  0.00    -0.050 Br
HETATM   28  C   UNL     1      43.054  -9.975  11.879  1.00  0.00     0.055 A 
ENDBRANCH  19  22
ENDBRANCH   2  18
TORSDOF 6
ENDMDL
MODEL 10
REMARK VINA RESULT:      -7.5      6.243      9.118
REMARK  6 active torsions:
REMARK  status: ('A' for Active; 'I' for Inactive)
REMARK    1  A    between atoms: C_9  and  C_10 
REMARK    2  A    between atoms: C_10  and  S_11 
REMARK    3  A    between atoms: S_11  and  C_12 
REMARK    4  A    between atoms: C_12  and  C_13 
REMARK       I    between atoms: C_13  and  N_14 
REMARK    5  A    between atoms: N_14  and  N_15 
REMARK       I    between atoms: N_15  and  C_16 
REMARK    6  A    between atoms: C_16  and  C_17 
ROOT
HETATM    1  C   UNL     1      40.247 -14.986   2.814  1.00  0.00     0.245 C 
HETATM    2  N   UNL     1      40.067 -13.937   1.936  1.00  0.00    -0.267 N 
HETATM    3  O   UNL     1      40.036 -16.156   2.491  1.00  0.00    -0.271 OA
HETATM    4  H   UNL     1      40.000 -12.979   2.292  1.00  0.00     0.190 HD
ENDROOT
BRANCH   1   5
HETATM    5  C   UNL     1      40.847 -14.614   4.160  1.00  0.00     0.178 C 
BRANCH   5   6
HETATM    6  S   UNL     1      42.657 -14.426   4.083  1.00  0.00    -0.154 SA
BRANCH   6   7
HETATM    7  C   UNL     1      43.108 -15.655   5.352  1.00  0.00     0.135 C 
BRANCH   7   8
HETATM    8  C   UNL     1      43.443 -16.961   4.719  1.00  0.00     0.062 A 
HETATM    9  C   UNL     1      43.128 -17.423   3.455  1.00  0.00     0.126 A 
HETATM   10  N   UNL     1      43.631 -18.697   3.388  1.00  0.00    -0.315 N 
HETATM   11  C   UNL     1      43.563 -19.622   2.350  1.00  0.00     0.105 A 
HETATM   12  C   UNL     1      44.255 -18.946   4.603  1.00  0.00     0.134 A 
HETATM   13  C   UNL     1      44.127 -20.836   2.505  1.00  0.00    -0.046 A 
HETATM   14  C   UNL     1      44.103 -21.906   1.459  1.00  0.00     0.049 C 
HETATM   15  C   UNL     1      44.797 -21.128   3.774  1.00  0.00     0.012 A 
HETATM   16  C   UNL     1      44.857 -20.224   4.771  1.00  0.00     0.051 A 
HETATM   17  N   UNL     1      44.164 -17.911   5.412  1.00  0.00    -0.233 NA
ENDBRANCH   7   8
ENDBRANCH   6   7
ENDBRANCH   5   6
ENDBRANCH   1   5
BRANCH   2  18
HETATM   18  N   UNL     1      39.434 -14.198   0.716  1.00  0.00    -0.262 N 
HETATM   19  C   UNL     1      40.180 -14.189  -0.442  1.00  0.00     0.286 C 
HETATM   20  O   UNL     1      41.390 -13.967  -0.438  1.00  0.00    -0.264 OA
HETATM   21  H   UNL     1      38.423 -14.298   0.737  1.00  0.00     0.190 HD
BRANCH  19  22
HETATM   22  C   UNL     1      39.450 -14.463  -1.661  1.00  0.00     0.103 A 
HETATM   23  N   UNL     1      39.953 -15.326  -2.616  1.00  0.00    -0.360 N 
HETATM   24  H   UNL     1      40.843 -15.804  -2.525  1.00  0.00     0.165 HD
HETATM   25  C   UNL     1      39.081 -15.440  -3.665  1.00  0.00     0.107 A 
HETATM   26  C   UNL     1      38.007 -14.638  -3.382  1.00  0.00     0.028 A 
HETATM   27 BR   UNL     1      36.484 -14.380  -4.438  1.00  0.00    -0.050 Br
HETATM   28  C   UNL     1      38.224 -14.018  -2.135  1.00  0.00     0.055 A 
ENDBRANCH  19  22
ENDBRANCH   2  18
TORSDOF 6
ENDMDL
