MODEL 1
REMARK VINA RESULT:      -9.4      0.000      0.000
REMARK  6 active torsions:
REMARK  status: ('A' for Active; 'I' for Inactive)
REMARK    1  A    between atoms: C_2  and  N_3 
REMARK    2  A    between atoms: C_11  and  C_12 
REMARK    3  A    between atoms: C_14  and  C_15 
REMARK    4  A    between atoms: C_15  and  O_16 
REMARK    5  A    between atoms: O_16  and  C_17 
REMARK    6  A    between atoms: C_25  and  O_26 
ROOT
HETATM    1  N   UNL     1      40.331 -12.219   4.016  1.00  0.00    -0.067 N 
HETATM    2  H   UNL     1      40.238 -12.847   3.207  1.00  0.00     0.280 HD
HETATM    3  C   UNL     1      41.811 -12.237   4.400  1.00  0.00     0.281 C 
HETATM    4  C   UNL     1      42.187 -13.539   5.017  1.00  0.00     0.018 A 
HETATM    5  C   UNL     1      41.298 -14.489   5.486  1.00  0.00    -0.023 A 
HETATM    6  C   UNL     1      41.988 -15.608   6.054  1.00  0.00     0.073 A 
HETATM    7  C   UNL     1      43.352 -15.450   5.994  1.00  0.00     0.088 A 
HETATM    8  N   UNL     1      44.223 -16.354   6.486  1.00  0.00    -0.358 N 
HETATM    9  C   UNL     1      43.766 -17.711   6.725  1.00  0.00     0.219 C 
HETATM   10  N   UNL     1      42.384 -17.694   7.139  1.00  0.00    -0.332 N 
HETATM   11  C   UNL     1      41.453 -16.805   6.676  1.00  0.00     0.256 C 
HETATM   12  O   UNL     1      40.250 -17.009   6.796  1.00  0.00    -0.267 OA
HETATM   13  S   UNL     1      43.811 -13.989   5.257  1.00  0.00    -0.074 SA
HETATM   14  C   UNL     1      39.817 -14.293   5.375  1.00  0.00     0.068 C 
HETATM   15  C   UNL     1      39.464 -12.816   5.132  1.00  0.00     0.240 C 
HETATM   16  H   UNL     1      45.206 -16.270   6.245  1.00  0.00     0.162 HD
HETATM   17  H   UNL     1      42.004 -18.543   7.532  1.00  0.00     0.165 HD
ENDROOT
BRANCH   9  18
HETATM   18  C   UNL     1      44.051 -18.598   5.521  1.00  0.00    -0.016 A 
HETATM   19  C   UNL     1      43.773 -18.113   4.229  1.00  0.00     0.023 A 
HETATM   20  C   UNL     1      44.024 -18.882   3.073  1.00  0.00    -0.000 A 
HETATM   21  C   UNL     1      44.574 -20.165   3.212  1.00  0.00     0.076 A 
HETATM   22  C   UNL     1      44.853 -20.659   4.489  1.00  0.00     0.038 A 
HETATM   23  C   UNL     1      44.594 -19.886   5.628  1.00  0.00     0.014 A 
BRANCH  20  24
HETATM   24  C   UNL     1      43.671 -18.313   1.714  1.00  0.00     0.217 C 
BRANCH  24  25
HETATM   25  O   UNL     1      42.263 -18.461   1.499  1.00  0.00    -0.347 OA
BRANCH  25  26
HETATM   26  C   UNL     1      41.526 -17.311   1.424  1.00  0.00     0.070 A 
HETATM   27  C   UNL     1      41.812 -16.506   0.316  1.00  0.00     0.063 A 
HETATM   28  C   UNL     1      41.128 -15.305   0.124  1.00  0.00     0.075 A 
HETATM   29 CL   UNL     1      41.495 -14.331  -1.249  1.00  0.00    -0.081 Cl
HETATM   30  C   UNL     1      40.160 -14.904   1.040  1.00  0.00     0.138 A 
HETATM   31  F   UNL     1      39.491 -13.754   0.877  1.00  0.00    -0.204 F 
HETATM   32  C   UNL     1      39.871 -15.694   2.148  1.00  0.00     0.047 A 
HETATM   33  C   UNL     1      40.555 -16.899   2.343  1.00  0.00     0.040 A 
ENDBRANCH  25  26
ENDBRANCH  24  25
ENDBRANCH  20  24
BRANCH  21  34
HETATM   34  O   UNL     1      44.775 -20.873   2.058  1.00  0.00    -0.355 OA
HETATM   35  C   UNL     1      43.789 -21.837   1.710  1.00  0.00     0.210 C 
ENDBRANCH  21  34
ENDBRANCH   9  18
BRANCH   1  36
HETATM   36  C   UNL     1      39.837 -10.853   3.609  1.00  0.00     0.231 C 
HETATM   37  C   UNL     1      38.325 -10.769   3.691  1.00  0.00     0.034 C 
ENDBRANCH   1  36
TORSDOF 6
ENDMDL
MODEL 2
REMARK VINA RESULT:      -8.8      4.023      6.763
REMARK  6 active torsions:
REMARK  status: ('A' for Active; 'I' for Inactive)
REMARK    1  A    between atoms: C_2  and  N_3 
REMARK    2  A    between atoms: C_11  and  C_12 
REMARK    3  A    between atoms: C_14  and  C_15 
REMARK    4  A    between atoms: C_15  and  O_16 
REMARK    5  A    between atoms: O_16  and  C_17 
REMARK    6  A    between atoms: C_25  and  O_26 
ROOT
HETATM    1  N   UNL     1      42.262 -11.100  -2.452  1.00  0.00    -0.067 N 
HETATM    2  H   UNL     1      43.132 -11.173  -1.908  1.00  0.00     0.280 HD
HETATM    3  C   UNL     1      41.163 -10.750  -1.448  1.00  0.00     0.281 C 
HETATM    4  C   UNL     1      40.847 -11.914  -0.575  1.00  0.00     0.018 A 
HETATM    5  C   UNL     1      41.231 -13.221  -0.814  1.00  0.00    -0.023 A 
HETATM    6  C   UNL     1      40.730 -14.101   0.200  1.00  0.00     0.073 A 
HETATM    7  C   UNL     1      39.993 -13.425   1.142  1.00  0.00     0.088 A 
HETATM    8  N   UNL     1      39.392 -14.033   2.186  1.00  0.00    -0.358 N 
HETATM    9  C   UNL     1      39.840 -15.356   2.580  1.00  0.00     0.219 C 
HETATM   10  N   UNL     1      40.257 -16.098   1.415  1.00  0.00    -0.332 N 
HETATM   11  C   UNL     1      40.872 -15.540   0.328  1.00  0.00     0.256 C 
HETATM   12  O   UNL     1      41.487 -16.220  -0.486  1.00  0.00    -0.267 OA
HETATM   13  S   UNL     1      39.906 -11.756   0.834  1.00  0.00    -0.074 SA
HETATM   14  C   UNL     1      42.064 -13.584  -2.004  1.00  0.00     0.068 C 
HETATM   15  C   UNL     1      42.022 -12.481  -3.075  1.00  0.00     0.240 C 
HETATM   16  H   UNL     1      39.025 -13.462   2.942  1.00  0.00     0.162 HD
HETATM   17  H   UNL     1      40.397 -17.092   1.520  1.00  0.00     0.165 HD
ENDROOT
BRANCH   9  18
HETATM   18  C   UNL     1      40.892 -15.266   3.678  1.00  0.00    -0.016 A 
HETATM   19  C   UNL     1      41.482 -16.449   4.163  1.00  0.00     0.023 A 
HETATM   20  C   UNL     1      42.468 -16.431   5.171  1.00  0.00    -0.000 A 
HETATM   21  C   UNL     1      42.882 -15.200   5.701  1.00  0.00     0.076 A 
HETATM   22  C   UNL     1      42.303 -14.019   5.229  1.00  0.00     0.038 A 
HETATM   23  C   UNL     1      41.321 -14.052   4.232  1.00  0.00     0.014 A 
BRANCH  20  24
HETATM   24  C   UNL     1      43.039 -17.742   5.672  1.00  0.00     0.217 C 
BRANCH  24  25
HETATM   25  O   UNL     1      44.239 -18.035   4.947  1.00  0.00    -0.347 OA
BRANCH  25  26
HETATM   26  C   UNL     1      44.157 -19.001   3.982  1.00  0.00     0.070 A 
HETATM   27  C   UNL     1      44.501 -20.287   4.414  1.00  0.00     0.063 A 
HETATM   28  C   UNL     1      44.460 -21.362   3.526  1.00  0.00     0.075 A 
HETATM   29 CL   UNL     1      44.884 -22.936   4.080  1.00  0.00    -0.081 Cl
HETATM   30  C   UNL     1      44.077 -21.154   2.204  1.00  0.00     0.138 A 
HETATM   31  F   UNL     1      44.030 -22.171   1.332  1.00  0.00    -0.204 F 
HETATM   32  C   UNL     1      43.738 -19.880   1.762  1.00  0.00     0.047 A 
HETATM   33  C   UNL     1      43.779 -18.800   2.650  1.00  0.00     0.040 A 
ENDBRANCH  25  26
ENDBRANCH  24  25
ENDBRANCH  20  24
BRANCH  21  34
HETATM   34  O   UNL     1      43.827 -15.246   6.691  1.00  0.00    -0.355 OA
HETATM   35  C   UNL     1      44.679 -14.115   6.826  1.00  0.00     0.210 C 
ENDBRANCH  21  34
ENDBRANCH   9  18
BRANCH   1  36
HETATM   36  C   UNL     1      42.458 -10.046  -3.512  1.00  0.00     0.231 C 
HETATM   37  C   UNL     1      42.453 -10.657  -4.901  1.00  0.00     0.034 C 
ENDBRANCH   1  36
TORSDOF 6
ENDMDL
MODEL 3
REMARK VINA RESULT:      -8.4      3.570      7.279
REMARK  6 active torsions:
REMARK  status: ('A' for Active; 'I' for Inactive)
REMARK    1  A    between atoms: C_2  and  N_3 
REMARK    2  A    between atoms: C_11  and  C_12 
REMARK    3  A    between atoms: C_14  and  C_15 
REMARK    4  A    between atoms: C_15  and  O_16 
REMARK    5  A    between atoms: O_16  and  C_17 
REMARK    6  A    between atoms: C_25  and  O_26 
ROOT
HETATM    1  N   UNL     1      44.262 -19.470   3.013  1.00  0.00    -0.067 N 
HETATM    2  H   UNL     1      44.889 -18.682   2.804  1.00  0.00     0.280 HD
HETATM    3  C   UNL     1      43.098 -19.358   2.028  1.00  0.00     0.281 C 
HETATM    4  C   UNL     1      42.218 -18.206   2.368  1.00  0.00     0.018 A 
HETATM    5  C   UNL     1      42.231 -17.516   3.567  1.00  0.00    -0.023 A 
HETATM    6  C   UNL     1      41.232 -16.489   3.582  1.00  0.00     0.073 A 
HETATM    7  C   UNL     1      40.516 -16.456   2.410  1.00  0.00     0.088 A 
HETATM    8  N   UNL     1      39.503 -15.594   2.187  1.00  0.00    -0.358 N 
HETATM    9  C   UNL     1      39.400 -14.403   3.010  1.00  0.00     0.219 C 
HETATM   10  N   UNL     1      39.863 -14.692   4.347  1.00  0.00    -0.332 N 
HETATM   11  C   UNL     1      40.886 -15.553   4.637  1.00  0.00     0.256 C 
HETATM   12  O   UNL     1      41.455 -15.537   5.722  1.00  0.00    -0.267 OA
HETATM   13  S   UNL     1      41.033 -17.628   1.292  1.00  0.00    -0.074 SA
HETATM   14  C   UNL     1      43.197 -17.864   4.656  1.00  0.00     0.068 C 
HETATM   15  C   UNL     1      43.784 -19.272   4.458  1.00  0.00     0.240 C 
HETATM   16  H   UNL     1      39.142 -15.494   1.243  1.00  0.00     0.162 HD
HETATM   17  H   UNL     1      39.657 -14.017   5.068  1.00  0.00     0.165 HD
ENDROOT
BRANCH   9  18
HETATM   18  C   UNL     1      40.097 -13.224   2.345  1.00  0.00    -0.016 A 
HETATM   19  C   UNL     1      40.694 -13.402   1.082  1.00  0.00     0.023 A 
HETATM   20  C   UNL     1      41.345 -12.347   0.410  1.00  0.00    -0.000 A 
HETATM   21  C   UNL     1      41.393 -11.080   1.010  1.00  0.00     0.076 A 
HETATM   22  C   UNL     1      40.807 -10.891   2.264  1.00  0.00     0.038 A 
HETATM   23  C   UNL     1      40.168 -11.949   2.922  1.00  0.00     0.014 A 
BRANCH  20  24
HETATM   24  C   UNL     1      41.996 -12.614  -0.932  1.00  0.00     0.217 C 
BRANCH  24  25
HETATM   25  O   UNL     1      41.020 -12.439  -1.965  1.00  0.00    -0.347 OA
BRANCH  25  26
HETATM   26  C   UNL     1      40.492 -13.576  -2.515  1.00  0.00     0.070 A 
HETATM   27  C   UNL     1      39.183 -13.440  -2.989  1.00  0.00     0.063 A 
HETATM   28  C   UNL     1      38.529 -14.526  -3.573  1.00  0.00     0.075 A 
HETATM   29 CL   UNL     1      36.919 -14.335  -4.151  1.00  0.00    -0.081 Cl
HETATM   30  C   UNL     1      39.182 -15.750  -3.681  1.00  0.00     0.138 A 
HETATM   31  F   UNL     1      38.576 -16.808  -4.237  1.00  0.00    -0.204 F 
HETATM   32  C   UNL     1      40.482 -15.898  -3.209  1.00  0.00     0.047 A 
HETATM   33  C   UNL     1      41.139 -14.811  -2.623  1.00  0.00     0.040 A 
ENDBRANCH  25  26
ENDBRANCH  24  25
ENDBRANCH  20  24
BRANCH  21  34
HETATM   34  O   UNL     1      42.058 -10.101   0.322  1.00  0.00    -0.355 OA
HETATM   35  C   UNL     1      41.276  -9.034  -0.203  1.00  0.00     0.210 C 
ENDBRANCH  21  34
ENDBRANCH   9  18
BRANCH   1  36
HETATM   36  C   UNL     1      45.048 -20.748   2.866  1.00  0.00     0.231 C 
HETATM   37  C   UNL     1      44.304 -21.753   2.006  1.00  0.00     0.034 C 
ENDBRANCH   1  36
TORSDOF 6
ENDMDL
MODEL 4
REMARK VINA RESULT:      -8.0      3.649      7.388
REMARK  6 active torsions:
REMARK  status: ('A' for Active; 'I' for Inactive)
REMARK    1  A    between atoms: C_2  and  N_3 
REMARK    2  A    between atoms: C_11  and  C_12 
REMARK    3  A    between atoms: C_14  and  C_15 
REMARK    4  A    between atoms: C_15  and  O_16 
REMARK    5  A    between atoms: O_16  and  C_17 
REMARK    6  A    between atoms: C_25  and  O_26 
ROOT
HETATM    1  N   UNL     1      43.638 -18.022   5.367  1.00  0.00    -0.067 N 
HETATM    2  H   UNL     1      43.757 -17.036   5.633  1.00  0.00     0.280 HD
HETATM    3  C   UNL     1      44.230 -18.156   3.964  1.00  0.00     0.281 C 
HETATM    4  C   UNL     1      43.365 -17.490   2.952  1.00  0.00     0.018 A 
HETATM    5  C   UNL     1      42.059 -17.084   3.158  1.00  0.00    -0.023 A 
HETATM    6  C   UNL     1      41.501 -16.513   1.969  1.00  0.00     0.073 A 
HETATM    7  C   UNL     1      42.400 -16.521   0.929  1.00  0.00     0.088 A 
HETATM    8  N   UNL     1      42.106 -16.062  -0.305  1.00  0.00    -0.358 N 
HETATM    9  C   UNL     1      40.973 -15.170  -0.470  1.00  0.00     0.219 C 
HETATM   10  N   UNL     1      39.936 -15.518   0.470  1.00  0.00    -0.332 N 
HETATM   11  C   UNL     1      40.169 -15.986   1.734  1.00  0.00     0.256 C 
HETATM   12  O   UNL     1      39.300 -15.971   2.600  1.00  0.00    -0.267 OA
HETATM   13  S   UNL     1      43.900 -17.190   1.364  1.00  0.00    -0.074 SA
HETATM   14  C   UNL     1      41.390 -17.257   4.487  1.00  0.00     0.068 C 
HETATM   15  C   UNL     1      42.127 -18.290   5.356  1.00  0.00     0.240 C 
HETATM   16  H   UNL     1      42.861 -15.922  -0.969  1.00  0.00     0.162 HD
HETATM   17  H   UNL     1      39.021 -15.114   0.327  1.00  0.00     0.165 HD
ENDROOT
BRANCH   9  18
HETATM   18  C   UNL     1      41.417 -13.714  -0.405  1.00  0.00    -0.016 A 
HETATM   19  C   UNL     1      40.876 -12.874   0.587  1.00  0.00     0.023 A 
HETATM   20  C   UNL     1      41.255 -11.521   0.706  1.00  0.00    -0.000 A 
HETATM   21  C   UNL     1      42.203 -10.996  -0.184  1.00  0.00     0.076 A 
HETATM   22  C   UNL     1      42.745 -11.818  -1.175  1.00  0.00     0.038 A 
HETATM   23  C   UNL     1      42.357 -13.159  -1.284  1.00  0.00     0.014 A 
BRANCH  20  24
HETATM   24  C   UNL     1      40.610 -10.663   1.776  1.00  0.00     0.217 C 
BRANCH  24  25
HETATM   25  O   UNL     1      41.366 -10.783   2.986  1.00  0.00    -0.347 OA
BRANCH  25  26
HETATM   26  C   UNL     1      41.017 -11.798   3.835  1.00  0.00     0.070 A 
HETATM   27  C   UNL     1      42.095 -12.525   4.350  1.00  0.00     0.063 A 
HETATM   28  C   UNL     1      41.874 -13.587   5.227  1.00  0.00     0.075 A 
HETATM   29 CL   UNL     1      43.217 -14.465   5.851  1.00  0.00    -0.081 Cl
HETATM   30  C   UNL     1      40.574 -13.926   5.589  1.00  0.00     0.138 A 
HETATM   31  F   UNL     1      40.335 -14.942   6.430  1.00  0.00    -0.204 F 
HETATM   32  C   UNL     1      39.493 -13.213   5.079  1.00  0.00     0.047 A 
HETATM   33  C   UNL     1      39.713 -12.149   4.199  1.00  0.00     0.040 A 
ENDBRANCH  25  26
ENDBRANCH  24  25
ENDBRANCH  20  24
BRANCH  21  34
HETATM   34  O   UNL     1      42.514  -9.671  -0.035  1.00  0.00    -0.355 OA
HETATM   35  C   UNL     1      43.625  -9.179  -0.776  1.00  0.00     0.210 C 
ENDBRANCH  21  34
ENDBRANCH   9  18
BRANCH   1  36
HETATM   36  C   UNL     1      44.339 -18.874   6.395  1.00  0.00     0.231 C 
HETATM   37  C   UNL     1      43.804 -20.294   6.387  1.00  0.00     0.034 C 
ENDBRANCH   1  36
TORSDOF 6
ENDMDL
MODEL 5
REMARK VINA RESULT:      -7.9      5.567      8.519
REMARK  6 active torsions:
REMARK  status: ('A' for Active; 'I' for Inactive)
REMARK    1  A    between atoms: C_2  and  N_3 
REMARK    2  A    between atoms: C_11  and  C_12 
REMARK    3  A    between atoms: C_14  and  C_15 
REMARK    4  A    between atoms: C_15  and  O_16 
REMARK    5  A    between atoms: O_16  and  C_17 
REMARK    6  A    between atoms: C_25  and  O_26 
ROOT
HETATM    1  N   UNL     1      37.008 -10.237  -4.249  1.00  0.00    -0.067 N 
HETATM    2  H   UNL     1      37.275  -9.833  -3.342  1.00  0.00     0.280 HD
HETATM    3  C   UNL     1      36.585 -11.678  -3.964  1.00  0.00     0.281 C 
HETATM    4  C   UNL     1      37.763 -12.523  -3.621  1.00  0.00     0.018 A 
HETATM    5  C   UNL     1      39.085 -12.177  -3.832  1.00  0.00    -0.023 A 
HETATM    6  C   UNL     1      39.967 -13.229  -3.425  1.00  0.00     0.073 A 
HETATM    7  C   UNL     1      39.276 -14.312  -2.936  1.00  0.00     0.088 A 
HETATM    8  N   UNL     1      39.878 -15.442  -2.512  1.00  0.00    -0.358 N 
HETATM    9  C   UNL     1      41.288 -15.401  -2.171  1.00  0.00     0.219 C 
HETATM   10  N   UNL     1      41.970 -14.461  -3.028  1.00  0.00    -0.332 N 
HETATM   11  C   UNL     1      41.415 -13.299  -3.490  1.00  0.00     0.256 C 
HETATM   12  O   UNL     1      42.103 -12.389  -3.940  1.00  0.00    -0.267 OA
HETATM   13  S   UNL     1      37.593 -14.077  -2.949  1.00  0.00    -0.074 SA
HETATM   14  C   UNL     1      39.459 -10.850  -4.418  1.00  0.00     0.068 C 
HETATM   15  C   UNL     1      38.264 -10.194  -5.129  1.00  0.00     0.240 C 
HETATM   16  H   UNL     1      39.333 -16.124  -1.992  1.00  0.00     0.162 HD
HETATM   17  H   UNL     1      42.979 -14.484  -3.037  1.00  0.00     0.165 HD
ENDROOT
BRANCH   9  18
HETATM   18  C   UNL     1      41.478 -15.146  -0.682  1.00  0.00    -0.016 A 
HETATM   19  C   UNL     1      41.555 -16.242   0.198  1.00  0.00     0.023 A 
HETATM   20  C   UNL     1      41.741 -16.072   1.586  1.00  0.00    -0.000 A 
HETATM   21  C   UNL     1      41.861 -14.774   2.106  1.00  0.00     0.076 A 
HETATM   22  C   UNL     1      41.784 -13.678   1.243  1.00  0.00     0.038 A 
HETATM   23  C   UNL     1      41.595 -13.862  -0.132  1.00  0.00     0.014 A 
BRANCH  20  24
HETATM   24  C   UNL     1      41.783 -17.292   2.483  1.00  0.00     0.217 C 
BRANCH  24  25
HETATM   25  O   UNL     1      42.304 -18.399   1.739  1.00  0.00    -0.347 OA
BRANCH  25  26
HETATM   26  C   UNL     1      43.114 -19.271   2.414  1.00  0.00     0.070 A 
HETATM   27  C   UNL     1      43.472 -18.856   3.701  1.00  0.00     0.063 A 
HETATM   28  C   UNL     1      44.296 -19.655   4.495  1.00  0.00     0.075 A 
HETATM   29 CL   UNL     1      44.722 -19.125   6.077  1.00  0.00    -0.081 Cl
HETATM   30  C   UNL     1      44.766 -20.869   4.002  1.00  0.00     0.138 A 
HETATM   31  F   UNL     1      45.559 -21.654   4.744  1.00  0.00    -0.204 F 
HETATM   32  C   UNL     1      44.420 -21.289   2.722  1.00  0.00     0.047 A 
HETATM   33  C   UNL     1      43.594 -20.490   1.924  1.00  0.00     0.040 A 
ENDBRANCH  25  26
ENDBRANCH  24  25
ENDBRANCH  20  24
BRANCH  21  34
HETATM   34  O   UNL     1      42.017 -14.670   3.462  1.00  0.00    -0.355 OA
HETATM   35  C   UNL     1      43.067 -13.831   3.931  1.00  0.00     0.210 C 
ENDBRANCH  21  34
ENDBRANCH   9  18
BRANCH   1  36
HETATM   36  C   UNL     1      35.901  -9.395  -4.831  1.00  0.00     0.231 C 
HETATM   37  C   UNL     1      34.910 -10.247  -5.602  1.00  0.00     0.034 C 
ENDBRANCH   1  36
TORSDOF 6
ENDMDL
MODEL 6
REMARK VINA RESULT:      -7.9      2.888      6.587
REMARK  6 active torsions:
REMARK  status: ('A' for Active; 'I' for Inactive)
REMARK    1  A    between atoms: C_2  and  N_3 
REMARK    2  A    between atoms: C_11  and  C_12 
REMARK    3  A    between atoms: C_14  and  C_15 
REMARK    4  A    between atoms: C_15  and  O_16 
REMARK    5  A    between atoms: O_16  and  C_17 
REMARK    6  A    between atoms: C_25  and  O_26 
ROOT
HETATM    1  N   UNL     1      43.968 -19.168   5.746  1.00  0.00    -0.067 N 
HETATM    2  H   UNL     1      44.054 -18.945   4.746  1.00  0.00     0.280 HD
HETATM    3  C   UNL     1      42.509 -18.903   6.116  1.00  0.00     0.281 C 
HETATM    4  C   UNL     1      42.218 -17.443   6.132  1.00  0.00     0.018 A 
HETATM    5  C   UNL     1      43.168 -16.438   6.138  1.00  0.00    -0.023 A 
HETATM    6  C   UNL     1      42.553 -15.146   6.194  1.00  0.00     0.073 A 
HETATM    7  C   UNL     1      41.182 -15.234   6.234  1.00  0.00     0.088 A 
HETATM    8  N   UNL     1      40.374 -14.157   6.316  1.00  0.00    -0.358 N 
HETATM    9  C   UNL     1      40.901 -12.855   5.950  1.00  0.00     0.219 C 
HETATM   10  N   UNL     1      42.298 -12.777   6.304  1.00  0.00    -0.332 N 
HETATM   11  C   UNL     1      43.168 -13.831   6.241  1.00  0.00     0.256 C 
HETATM   12  O   UNL     1      44.383 -13.667   6.240  1.00  0.00    -0.267 OA
HETATM   13  S   UNL     1      40.628 -16.840   6.193  1.00  0.00    -0.074 SA
HETATM   14  C   UNL     1      44.632 -16.749   6.090  1.00  0.00     0.068 C 
HETATM   15  C   UNL     1      44.909 -18.209   6.487  1.00  0.00     0.240 C 
HETATM   16  H   UNL     1      39.379 -14.277   6.153  1.00  0.00     0.162 HD
HETATM   17  H   UNL     1      42.732 -11.865   6.293  1.00  0.00     0.165 HD
ENDROOT
BRANCH   9  18
HETATM   18  C   UNL     1      40.605 -12.542   4.490  1.00  0.00    -0.016 A 
HETATM   19  C   UNL     1      39.808 -13.433   3.744  1.00  0.00     0.023 A 
HETATM   20  C   UNL     1      39.490 -13.194   2.391  1.00  0.00    -0.000 A 
HETATM   21  C   UNL     1      39.972 -12.032   1.770  1.00  0.00     0.076 A 
HETATM   22  C   UNL     1      40.765 -11.141   2.498  1.00  0.00     0.038 A 
HETATM   23  C   UNL     1      41.077 -11.394   3.840  1.00  0.00     0.014 A 
BRANCH  20  24
HETATM   24  C   UNL     1      38.655 -14.208   1.636  1.00  0.00     0.217 C 
BRANCH  24  25
HETATM   25  O   UNL     1      39.050 -15.525   2.035  1.00  0.00    -0.347 OA
BRANCH  25  26
HETATM   26  C   UNL     1      40.233 -15.995   1.531  1.00  0.00     0.070 A 
HETATM   27  C   UNL     1      40.777 -17.076   2.233  1.00  0.00     0.063 A 
HETATM   28  C   UNL     1      41.981 -17.648   1.821  1.00  0.00     0.075 A 
HETATM   29 CL   UNL     1      42.630 -18.980   2.697  1.00  0.00    -0.081 Cl
HETATM   30  C   UNL     1      42.645 -17.138   0.709  1.00  0.00     0.138 A 
HETATM   31  F   UNL     1      43.803 -17.670   0.294  1.00  0.00    -0.204 F 
HETATM   32  C   UNL     1      42.116 -16.060   0.007  1.00  0.00     0.047 A 
HETATM   33  C   UNL     1      40.909 -15.485   0.418  1.00  0.00     0.040 A 
ENDBRANCH  25  26
ENDBRANCH  24  25
ENDBRANCH  20  24
BRANCH  21  34
HETATM   34  O   UNL     1      39.649 -11.864   0.450  1.00  0.00    -0.355 OA
HETATM   35  C   UNL     1      40.718 -11.896  -0.487  1.00  0.00     0.210 C 
ENDBRANCH  21  34
ENDBRANCH   9  18
BRANCH   1  36
HETATM   36  C   UNL     1      44.382 -20.605   5.944  1.00  0.00     0.231 C 
HETATM   37  C   UNL     1      45.045 -21.162   4.698  1.00  0.00     0.034 C 
ENDBRANCH   1  36
TORSDOF 6
ENDMDL
MODEL 7
REMARK VINA RESULT:      -7.7      5.244      8.270
REMARK  6 active torsions:
REMARK  status: ('A' for Active; 'I' for Inactive)
REMARK    1  A    between atoms: C_2  and  N_3 
REMARK    2  A    between atoms: C_11  and  C_12 
REMARK    3  A    between atoms: C_14  and  C_15 
REMARK    4  A    between atoms: C_15  and  O_16 
REMARK    5  A    between atoms: O_16  and  C_17 
REMARK    6  A    between atoms: C_25  and  O_26 
ROOT
HETATM    1  N   UNL     1      35.849 -13.437  -4.278  1.00  0.00    -0.067 N 
HETATM    2  H   UNL     1      35.474 -13.518  -3.323  1.00  0.00     0.280 HD
HETATM    3  C   UNL     1      36.909 -14.530  -4.412  1.00  0.00     0.281 C 
HETATM    4  C   UNL     1      38.120 -14.202  -3.610  1.00  0.00     0.018 A 
HETATM    5  C   UNL     1      38.413 -12.961  -3.074  1.00  0.00    -0.023 A 
HETATM    6  C   UNL     1      39.673 -12.977  -2.393  1.00  0.00     0.073 A 
HETATM    7  C   UNL     1      40.269 -14.214  -2.451  1.00  0.00     0.088 A 
HETATM    8  N   UNL     1      41.474 -14.480  -1.906  1.00  0.00    -0.358 N 
HETATM    9  C   UNL     1      41.997 -13.586  -0.889  1.00  0.00     0.219 C 
HETATM   10  N   UNL     1      41.578 -12.233  -1.165  1.00  0.00    -0.332 N 
HETATM   11  C   UNL     1      40.370 -11.899  -1.714  1.00  0.00     0.256 C 
HETATM   12  O   UNL     1      39.921 -10.760  -1.644  1.00  0.00    -0.267 OA
HETATM   13  S   UNL     1      39.335 -15.353  -3.297  1.00  0.00    -0.074 SA
HETATM   14  C   UNL     1      37.478 -11.803  -3.234  1.00  0.00     0.068 C 
HETATM   15  C   UNL     1      36.479 -12.042  -4.379  1.00  0.00     0.240 C 
HETATM   16  H   UNL     1      41.771 -15.447  -1.819  1.00  0.00     0.162 HD
HETATM   17  H   UNL     1      42.036 -11.489  -0.659  1.00  0.00     0.165 HD
ENDROOT
BRANCH   9  18
HETATM   18  C   UNL     1      41.638 -14.083   0.504  1.00  0.00    -0.016 A 
HETATM   19  C   UNL     1      42.014 -15.385   0.888  1.00  0.00     0.023 A 
HETATM   20  C   UNL     1      41.720 -15.899   2.167  1.00  0.00    -0.000 A 
HETATM   21  C   UNL     1      41.041 -15.090   3.090  1.00  0.00     0.076 A 
HETATM   22  C   UNL     1      40.660 -13.797   2.722  1.00  0.00     0.038 A 
HETATM   23  C   UNL     1      40.955 -13.301   1.446  1.00  0.00     0.014 A 
BRANCH  20  24
HETATM   24  C   UNL     1      42.123 -17.320   2.505  1.00  0.00     0.217 C 
BRANCH  24  25
HETATM   25  O   UNL     1      43.384 -17.297   3.184  1.00  0.00    -0.347 OA
BRANCH  25  26
HETATM   26  C   UNL     1      43.871 -18.498   3.624  1.00  0.00     0.070 A 
HETATM   27  C   UNL     1      43.907 -19.504   2.653  1.00  0.00     0.063 A 
HETATM   28  C   UNL     1      44.383 -20.776   2.974  1.00  0.00     0.075 A 
HETATM   29 CL   UNL     1      44.421 -21.997   1.761  1.00  0.00    -0.081 Cl
HETATM   30  C   UNL     1      44.819 -21.045   4.267  1.00  0.00     0.138 A 
HETATM   31  F   UNL     1      45.280 -22.259   4.600  1.00  0.00    -0.204 F 
HETATM   32  C   UNL     1      44.783 -20.054   5.243  1.00  0.00     0.047 A 
HETATM   33  C   UNL     1      44.306 -18.778   4.923  1.00  0.00     0.040 A 
ENDBRANCH  25  26
ENDBRANCH  24  25
ENDBRANCH  20  24
BRANCH  21  34
HETATM   34  O   UNL     1      40.763 -15.651   4.308  1.00  0.00    -0.355 OA
HETATM   35  C   UNL     1      41.046 -14.867   5.462  1.00  0.00     0.210 C 
ENDBRANCH  21  34
ENDBRANCH   9  18
BRANCH   1  36
HETATM   36  C   UNL     1      34.705 -13.594  -5.247  1.00  0.00     0.231 C 
HETATM   37  C   UNL     1      34.372 -12.276  -5.921  1.00  0.00     0.034 C 
ENDBRANCH   1  36
TORSDOF 6
ENDMDL
MODEL 8
REMARK VINA RESULT:      -7.5      4.823      9.226
REMARK  6 active torsions:
REMARK  status: ('A' for Active; 'I' for Inactive)
REMARK    1  A    between atoms: C_2  and  N_3 
REMARK    2  A    between atoms: C_11  and  C_12 
REMARK    3  A    between atoms: C_14  and  C_15 
REMARK    4  A    between atoms: C_15  and  O_16 
REMARK    5  A    between atoms: O_16  and  C_17 
REMARK    6  A    between atoms: C_25  and  O_26 
ROOT
HETATM    1  N   UNL     1      43.188 -17.831   6.978  1.00  0.00    -0.067 N 
HETATM    2  H   UNL     1      42.431 -17.482   7.581  1.00  0.00     0.280 HD
HETATM    3  C   UNL     1      44.094 -16.632   6.697  1.00  0.00     0.281 C 
HETATM    4  C   UNL     1      43.432 -15.666   5.778  1.00  0.00     0.018 A 
HETATM    5  C   UNL     1      42.308 -15.928   5.016  1.00  0.00    -0.023 A 
HETATM    6  C   UNL     1      41.952 -14.796   4.213  1.00  0.00     0.073 A 
HETATM    7  C   UNL     1      42.820 -13.746   4.399  1.00  0.00     0.088 A 
HETATM    8  N   UNL     1      42.715 -12.575   3.737  1.00  0.00    -0.358 N 
HETATM    9  C   UNL     1      41.450 -12.232   3.114  1.00  0.00     0.219 C 
HETATM   10  N   UNL     1      40.802 -13.429   2.634  1.00  0.00    -0.332 N 
HETATM   11  C   UNL     1      40.868 -14.643   3.259  1.00  0.00     0.256 C 
HETATM   12  O   UNL     1      40.071 -15.541   3.014  1.00  0.00    -0.267 OA
HETATM   13  S   UNL     1      44.041 -14.096   5.528  1.00  0.00    -0.074 SA
HETATM   14  C   UNL     1      41.612 -17.252   5.083  1.00  0.00     0.068 C 
HETATM   15  C   UNL     1      42.521 -18.333   5.690  1.00  0.00     0.240 C 
HETATM   16  H   UNL     1      43.266 -11.783   4.053  1.00  0.00     0.162 HD
HETATM   17  H   UNL     1      40.020 -13.316   2.004  1.00  0.00     0.165 HD
ENDROOT
BRANCH   9  18
HETATM   18  C   UNL     1      40.597 -11.388   4.051  1.00  0.00    -0.016 A 
HETATM   19  C   UNL     1      41.173 -10.874   5.229  1.00  0.00     0.023 A 
HETATM   20  C   UNL     1      40.438 -10.077   6.131  1.00  0.00    -0.000 A 
HETATM   21  C   UNL     1      39.097  -9.780   5.846  1.00  0.00     0.076 A 
HETATM   22  C   UNL     1      38.514 -10.286   4.682  1.00  0.00     0.038 A 
HETATM   23  C   UNL     1      39.254 -11.079   3.797  1.00  0.00     0.014 A 
BRANCH  20  24
HETATM   24  C   UNL     1      41.108  -9.582   7.397  1.00  0.00     0.217 C 
BRANCH  24  25
HETATM   25  O   UNL     1      42.271 -10.378   7.650  1.00  0.00    -0.347 OA
BRANCH  25  26
HETATM   26  C   UNL     1      42.540 -10.681   8.957  1.00  0.00     0.070 A 
HETATM   27  C   UNL     1      41.423 -10.673   9.799  1.00  0.00     0.063 A 
HETATM   28  C   UNL     1      41.563 -10.966  11.156  1.00  0.00     0.075 A 
HETATM   29 CL   UNL     1      40.174 -10.953  12.173  1.00  0.00    -0.081 Cl
HETATM   30  C   UNL     1      42.820 -11.264  11.674  1.00  0.00     0.138 A 
HETATM   31  F   UNL     1      42.980 -11.547  12.975  1.00  0.00    -0.204 F 
HETATM   32  C   UNL     1      43.938 -11.270  10.847  1.00  0.00     0.047 A 
HETATM   33  C   UNL     1      43.801 -10.977   9.486  1.00  0.00     0.040 A 
ENDBRANCH  25  26
ENDBRANCH  24  25
ENDBRANCH  20  24
BRANCH  21  34
HETATM   34  O   UNL     1      38.429  -9.021   6.769  1.00  0.00    -0.355 OA
HETATM   35  C   UNL     1      38.024  -7.718   6.365  1.00  0.00     0.210 C 
ENDBRANCH  21  34
ENDBRANCH   9  18
BRANCH   1  36
HETATM   36  C   UNL     1      43.889 -18.951   7.705  1.00  0.00     0.231 C 
HETATM   37  C   UNL     1      43.610 -20.291   7.049  1.00  0.00     0.034 C 
ENDBRANCH   1  36
TORSDOF 6
ENDMDL
MODEL 9
REMARK VINA RESULT:      -7.5      3.850      6.636
REMARK  6 active torsions:
REMARK  status: ('A' for Active; 'I' for Inactive)
REMARK    1  A    between atoms: C_2  and  N_3 
REMARK    2  A    between atoms: C_11  and  C_12 
REMARK    3  A    between atoms: C_14  and  C_15 
REMARK    4  A    between atoms: C_15  and  O_16 
REMARK    5  A    between atoms: O_16  and  C_17 
REMARK    6  A    between atoms: C_25  and  O_26 
ROOT
HETATM    1  N   UNL     1      34.951  -9.769   2.367  1.00  0.00    -0.067 N 
HETATM    2  H   UNL     1      34.808 -10.426   3.146  1.00  0.00     0.280 HD
HETATM    3  C   UNL     1      35.643 -10.566   1.261  1.00  0.00     0.281 C 
HETATM    4  C   UNL     1      37.053 -10.874   1.626  1.00  0.00     0.018 A 
HETATM    5  C   UNL     1      37.764 -10.274   2.649  1.00  0.00    -0.023 A 
HETATM    6  C   UNL     1      39.106 -10.771   2.707  1.00  0.00     0.073 A 
HETATM    7  C   UNL     1      39.345 -11.709   1.730  1.00  0.00     0.088 A 
HETATM    8  N   UNL     1      40.541 -12.308   1.558  1.00  0.00    -0.358 N 
HETATM    9  C   UNL     1      41.498 -12.292   2.650  1.00  0.00     0.219 C 
HETATM   10  N   UNL     1      41.373 -11.059   3.390  1.00  0.00    -0.332 N 
HETATM   11  C   UNL     1      40.190 -10.405   3.600  1.00  0.00     0.256 C 
HETATM   12  O   UNL     1      40.068  -9.556   4.477  1.00  0.00    -0.267 OA
HETATM   13  S   UNL     1      37.983 -12.006   0.759  1.00  0.00    -0.074 SA
HETATM   14  C   UNL     1      37.135  -9.245   3.536  1.00  0.00     0.068 C 
HETATM   15  C   UNL     1      35.864  -8.657   2.901  1.00  0.00     0.240 C 
HETATM   16  H   UNL     1      40.601 -13.119   0.950  1.00  0.00     0.162 HD
HETATM   17  H   UNL     1      42.109 -10.830   4.042  1.00  0.00     0.165 HD
ENDROOT
BRANCH   9  18
HETATM   18  C   UNL     1      41.372 -13.550   3.499  1.00  0.00    -0.016 A 
HETATM   19  C   UNL     1      41.855 -14.772   2.992  1.00  0.00     0.023 A 
HETATM   20  C   UNL     1      41.777 -15.969   3.733  1.00  0.00    -0.000 A 
HETATM   21  C   UNL     1      41.210 -15.943   5.016  1.00  0.00     0.076 A 
HETATM   22  C   UNL     1      40.725 -14.738   5.529  1.00  0.00     0.038 A 
HETATM   23  C   UNL     1      40.805 -13.558   4.780  1.00  0.00     0.014 A 
BRANCH  20  24
HETATM   24  C   UNL     1      42.285 -17.257   3.116  1.00  0.00     0.217 C 
BRANCH  24  25
HETATM   25  O   UNL     1      43.641 -17.465   3.526  1.00  0.00    -0.347 OA
BRANCH  25  26
HETATM   26  C   UNL     1      44.020 -18.756   3.773  1.00  0.00     0.070 A 
HETATM   27  C   UNL     1      43.914 -19.615   2.674  1.00  0.00     0.063 A 
HETATM   28  C   UNL     1      44.270 -20.959   2.794  1.00  0.00     0.075 A 
HETATM   29 CL   UNL     1      44.134 -21.997   1.427  1.00  0.00    -0.081 Cl
HETATM   30  C   UNL     1      44.729 -21.447   4.014  1.00  0.00     0.138 A 
HETATM   31  F   UNL     1      45.076 -22.735   4.154  1.00  0.00    -0.204 F 
HETATM   32  C   UNL     1      44.834 -20.603   5.114  1.00  0.00     0.047 A 
HETATM   33  C   UNL     1      44.478 -19.256   4.997  1.00  0.00     0.040 A 
ENDBRANCH  25  26
ENDBRANCH  24  25
ENDBRANCH  20  24
BRANCH  21  34
HETATM   34  O   UNL     1      41.141 -17.139   5.679  1.00  0.00    -0.355 OA
HETATM   35  C   UNL     1      41.945 -17.281   6.844  1.00  0.00     0.210 C 
ENDBRANCH  21  34
ENDBRANCH   9  18
BRANCH   1  36
HETATM   36  C   UNL     1      33.605  -9.225   1.958  1.00  0.00     0.231 C 
HETATM   37  C   UNL     1      32.626 -10.346   1.666  1.00  0.00     0.034 C 
ENDBRANCH   1  36
TORSDOF 6
ENDMDL
MODEL 10
REMARK VINA RESULT:      -7.5      4.914      7.935
REMARK  6 active torsions:
REMARK  status: ('A' for Active; 'I' for Inactive)
REMARK    1  A    between atoms: C_2  and  N_3 
REMARK    2  A    between atoms: C_11  and  C_12 
REMARK    3  A    between atoms: C_14  and  C_15 
REMARK    4  A    between atoms: C_15  and  O_16 
REMARK    5  A    between atoms: O_16  and  C_17 
REMARK    6  A    between atoms: C_25  and  O_26 
ROOT
HETATM    1  N   UNL     1      41.196  -9.610  -3.904  1.00  0.00    -0.067 N 
HETATM    2  H   UNL     1      42.014  -9.971  -3.395  1.00  0.00     0.280 HD
HETATM    3  C   UNL     1      40.213  -9.128  -2.838  1.00  0.00     0.281 C 
HETATM    4  C   UNL     1      39.602 -10.277  -2.114  1.00  0.00     0.018 A 
HETATM    5  C   UNL     1      39.644 -11.596  -2.527  1.00  0.00    -0.023 A 
HETATM    6  C   UNL     1      38.926 -12.444  -1.623  1.00  0.00     0.073 A 
HETATM    7  C   UNL     1      38.376 -11.732  -0.584  1.00  0.00     0.088 A 
HETATM    8  N   UNL     1      37.631 -12.298   0.387  1.00  0.00    -0.358 N 
HETATM    9  C   UNL     1      37.725 -13.731   0.598  1.00  0.00     0.219 C 
HETATM   10  N   UNL     1      37.951 -14.397  -0.663  1.00  0.00    -0.332 N 
HETATM   11  C   UNL     1      38.697 -13.876  -1.684  1.00  0.00     0.256 C 
HETATM   12  O   UNL     1      39.127 -14.578  -2.593  1.00  0.00    -0.267 OA
HETATM   13  S   UNL     1      38.719 -10.070  -0.673  1.00  0.00    -0.074 SA
HETATM   14  C   UNL     1      40.369 -12.000  -3.774  1.00  0.00     0.068 C 
HETATM   15  C   UNL     1      40.619 -10.793  -4.693  1.00  0.00     0.240 C 
HETATM   16  H   UNL     1      37.415 -11.757   1.218  1.00  0.00     0.162 HD
HETATM   17  H   UNL     1      37.832 -15.399  -0.689  1.00  0.00     0.165 HD
ENDROOT
BRANCH   9  18
HETATM   18  C   UNL     1      38.755 -14.054   1.672  1.00  0.00    -0.016 A 
HETATM   19  C   UNL     1      39.330 -15.339   1.709  1.00  0.00     0.023 A 
HETATM   20  C   UNL     1      40.297 -15.696   2.672  1.00  0.00    -0.000 A 
HETATM   21  C   UNL     1      40.704 -14.743   3.617  1.00  0.00     0.076 A 
HETATM   22  C   UNL     1      40.139 -13.465   3.593  1.00  0.00     0.038 A 
HETATM   23  C   UNL     1      39.177 -13.126   2.634  1.00  0.00     0.014 A 
BRANCH  20  24
HETATM   24  C   UNL     1      40.853 -17.105   2.676  1.00  0.00     0.217 C 
BRANCH  24  25
HETATM   25  O   UNL     1      42.255 -17.053   2.392  1.00  0.00    -0.347 OA
BRANCH  25  26
HETATM   26  C   UNL     1      43.033 -18.041   2.931  1.00  0.00     0.070 A 
HETATM   27  C   UNL     1      43.129 -19.198   2.151  1.00  0.00     0.063 A 
HETATM   28  C   UNL     1      43.892 -20.281   2.589  1.00  0.00     0.075 A 
HETATM   29 CL   UNL     1      43.999 -21.694   1.610  1.00  0.00    -0.081 Cl
HETATM   30  C   UNL     1      44.557 -20.211   3.809  1.00  0.00     0.138 A 
HETATM   31  F   UNL     1      45.296 -21.238   4.252  1.00  0.00    -0.204 F 
HETATM   32  C   UNL     1      44.464 -19.067   4.596  1.00  0.00     0.047 A 
HETATM   33  C   UNL     1      43.700 -17.980   4.159  1.00  0.00     0.040 A 
ENDBRANCH  25  26
ENDBRANCH  24  25
ENDBRANCH  20  24
BRANCH  21  34
HETATM   34  O   UNL     1      41.628 -15.153   4.541  1.00  0.00    -0.355 OA
HETATM   35  C   UNL     1      41.137 -15.556   5.813  1.00  0.00     0.210 C 
ENDBRANCH  21  34
ENDBRANCH   9  18
BRANCH   1  36
HETATM   36  C   UNL     1      41.664  -8.512  -4.826  1.00  0.00     0.231 C 
HETATM   37  C   UNL     1      41.232  -8.775  -6.256  1.00  0.00     0.034 C 
ENDBRANCH   1  36
TORSDOF 6
ENDMDL
