MODEL 1
REMARK VINA RESULT:      -7.6      0.000      0.000
REMARK  6 active torsions:
REMARK  status: ('A' for Active; 'I' for Inactive)
REMARK    1  A    between atoms: C_2  and  N_3 
REMARK    2  A    between atoms: C_2  and  C_18 
REMARK    3  A    between atoms: N_3  and  C_6 
REMARK    4  A    between atoms: C_6  and  C_7 
REMARK    5  A    between atoms: C_10  and  N_11 
REMARK       I    between atoms: N_11  and  C_12 
REMARK    6  A    between atoms: C_12  and  O_13 
ROOT
HETATM    1  N   UNL     1      43.235 -15.819   4.348  1.00  0.00    -0.061 N 
HETATM    2  H   UNL     1      43.772 -14.972   4.568  1.00  0.00     0.278 HD
HETATM    3  H   UNL     1      43.693 -16.266   3.540  1.00  0.00     0.278 HD
ENDROOT
BRANCH   1   4
HETATM    4  C   UNL     1      43.299 -16.822   5.477  1.00  0.00     0.241 C 
HETATM    5  C   UNL     1      44.320 -16.302   6.485  1.00  0.00     0.047 C 
BRANCH   4   6
HETATM    6  C   UNL     1      43.698 -18.179   4.957  1.00  0.00     0.106 A 
HETATM    7  S   UNL     1      44.292 -19.392   6.006  1.00  0.00    -0.070 SA
HETATM    8  C   UNL     1      44.394 -20.486   4.678  1.00  0.00     0.035 A 
HETATM    9  C   UNL     1      43.961 -19.837   3.518  1.00  0.00     0.075 A 
HETATM   10  C   UNL     1      44.821 -21.822   4.665  1.00  0.00     0.021 A 
HETATM   11  N   UNL     1      43.558 -18.517   3.692  1.00  0.00    -0.243 NA
HETATM   12  C   UNL     1      43.955 -20.550   2.303  1.00  0.00     0.033 A 
HETATM   13  C   UNL     1      44.377 -21.884   2.281  1.00  0.00     0.002 A 
HETATM   14  C   UNL     1      44.804 -22.509   3.448  1.00  0.00     0.002 A 
ENDBRANCH   4   6
ENDBRANCH   1   4
BRANCH   1  15
HETATM   15  C   UNL     1      41.862 -15.433   3.915  1.00  0.00     0.271 C 
BRANCH  15  16
HETATM   16  C   UNL     1      41.744 -15.438   2.416  1.00  0.00    -0.033 A 
HETATM   17  C   UNL     1      41.882 -14.251   1.682  1.00  0.00     0.011 A 
HETATM   18  C   UNL     1      41.745 -14.251   0.287  1.00  0.00     0.030 A 
HETATM   19  C   UNL     1      41.481 -15.433  -0.404  1.00  0.00     0.036 A 
HETATM   20  C   UNL     1      41.372 -16.621   0.329  1.00  0.00     0.030 A 
HETATM   21  C   UNL     1      41.494 -16.626   1.723  1.00  0.00     0.011 A 
BRANCH  19  22
HETATM   22  N   UNL     1      41.331 -15.536  -1.796  1.00  0.00    -0.303 N 
HETATM   23  C   UNL     1      40.354 -15.103  -2.654  1.00  0.00     0.364 C 
HETATM   24  O   UNL     1      40.474 -15.290  -3.861  1.00  0.00    -0.238 OA
HETATM   25  H   UNL     1      42.051 -16.032  -2.307  1.00  0.00     0.171 HD
BRANCH  23  26
HETATM   26  O   UNL     1      39.279 -14.517  -2.075  1.00  0.00    -0.309 OA
HETATM   27  C   UNL     1      38.148 -14.391  -2.940  1.00  0.00     0.215 C 
ENDBRANCH  23  26
ENDBRANCH  19  22
ENDBRANCH  15  16
ENDBRANCH   1  15
TORSDOF 6
ENDMDL
MODEL 2
REMARK VINA RESULT:      -7.6      1.979      2.945
REMARK  6 active torsions:
REMARK  status: ('A' for Active; 'I' for Inactive)
REMARK    1  A    between atoms: C_2  and  N_3 
REMARK    2  A    between atoms: C_2  and  C_18 
REMARK    3  A    between atoms: N_3  and  C_6 
REMARK    4  A    between atoms: C_6  and  C_7 
REMARK    5  A    between atoms: C_10  and  N_11 
REMARK       I    between atoms: N_11  and  C_12 
REMARK    6  A    between atoms: C_12  and  O_13 
ROOT
HETATM    1  N   UNL     1      44.350 -15.462   6.620  1.00  0.00    -0.061 N 
HETATM    2  H   UNL     1      45.003 -15.490   7.411  1.00  0.00     0.278 HD
HETATM    3  H   UNL     1      44.898 -15.648   5.767  1.00  0.00     0.278 HD
ENDROOT
BRANCH   1   4
HETATM    4  C   UNL     1      43.323 -16.567   6.711  1.00  0.00     0.241 C 
HETATM    5  C   UNL     1      43.400 -17.137   8.126  1.00  0.00     0.047 C 
BRANCH   4   6
HETATM    6  C   UNL     1      43.602 -17.635   5.686  1.00  0.00     0.106 A 
HETATM    7  S   UNL     1      44.578 -18.989   6.055  1.00  0.00    -0.070 SA
HETATM    8  C   UNL     1      44.292 -19.622   4.479  1.00  0.00     0.035 A 
HETATM    9  C   UNL     1      43.462 -18.743   3.778  1.00  0.00     0.075 A 
HETATM   10  C   UNL     1      44.765 -20.813   3.906  1.00  0.00     0.021 A 
HETATM   11  N   UNL     1      43.067 -17.611   4.482  1.00  0.00    -0.243 NA
HETATM   12  C   UNL     1      43.091 -19.066   2.458  1.00  0.00     0.033 A 
HETATM   13  C   UNL     1      43.555 -20.252   1.879  1.00  0.00     0.002 A 
HETATM   14  C   UNL     1      44.381 -21.112   2.595  1.00  0.00     0.002 A 
ENDBRANCH   4   6
ENDBRANCH   1   4
BRANCH   1  15
HETATM   15  C   UNL     1      43.793 -14.084   6.491  1.00  0.00     0.271 C 
BRANCH  15  16
HETATM   16  C   UNL     1      43.004 -13.934   5.221  1.00  0.00    -0.033 A 
HETATM   17  C   UNL     1      41.616 -13.743   5.257  1.00  0.00     0.011 A 
HETATM   18  C   UNL     1      40.876 -13.631   4.073  1.00  0.00     0.030 A 
HETATM   19  C   UNL     1      41.506 -13.695   2.830  1.00  0.00     0.036 A 
HETATM   20  C   UNL     1      42.896 -13.857   2.797  1.00  0.00     0.030 A 
HETATM   21  C   UNL     1      43.638 -13.983   3.976  1.00  0.00     0.011 A 
BRANCH  19  22
HETATM   22  N   UNL     1      40.854 -13.589   1.590  1.00  0.00    -0.303 N 
HETATM   23  C   UNL     1      40.371 -14.529   0.718  1.00  0.00     0.364 C 
HETATM   24  O   UNL     1      39.797 -14.175  -0.307  1.00  0.00    -0.238 OA
HETATM   25  H   UNL     1      40.704 -12.659   1.221  1.00  0.00     0.171 HD
BRANCH  23  26
HETATM   26  O   UNL     1      40.611 -15.820   1.052  1.00  0.00    -0.309 OA
HETATM   27  C   UNL     1      41.602 -16.457   0.242  1.00  0.00     0.215 C 
ENDBRANCH  23  26
ENDBRANCH  19  22
ENDBRANCH  15  16
ENDBRANCH   1  15
TORSDOF 6
ENDMDL
MODEL 3
REMARK VINA RESULT:      -7.5      3.885      7.497
REMARK  6 active torsions:
REMARK  status: ('A' for Active; 'I' for Inactive)
REMARK    1  A    between atoms: C_2  and  N_3 
REMARK    2  A    between atoms: C_2  and  C_18 
REMARK    3  A    between atoms: N_3  and  C_6 
REMARK    4  A    between atoms: C_6  and  C_7 
REMARK    5  A    between atoms: C_10  and  N_11 
REMARK       I    between atoms: N_11  and  C_12 
REMARK    6  A    between atoms: C_12  and  O_13 
ROOT
HETATM    1  N   UNL     1      43.340 -13.858   3.006  1.00  0.00    -0.061 N 
HETATM    2  H   UNL     1      43.824 -14.320   2.228  1.00  0.00     0.278 HD
HETATM    3  H   UNL     1      43.996 -13.171   3.405  1.00  0.00     0.278 HD
ENDROOT
BRANCH   1   4
HETATM    4  C   UNL     1      42.145 -13.068   2.522  1.00  0.00     0.241 C 
HETATM    5  C   UNL     1      40.958 -13.469   3.394  1.00  0.00     0.047 C 
BRANCH   4   6
HETATM    6  C   UNL     1      41.869 -13.361   1.070  1.00  0.00     0.106 A 
HETATM    7  S   UNL     1      42.086 -12.167  -0.134  1.00  0.00    -0.070 SA
HETATM    8  C   UNL     1      41.654 -13.314  -1.345  1.00  0.00     0.035 A 
HETATM    9  C   UNL     1      41.374 -14.540  -0.734  1.00  0.00     0.075 A 
HETATM   10  C   UNL     1      41.573 -13.143  -2.735  1.00  0.00     0.021 A 
HETATM   11  N   UNL     1      41.507 -14.556   0.650  1.00  0.00    -0.243 NA
HETATM   12  C   UNL     1      41.001 -15.632  -1.542  1.00  0.00     0.033 A 
HETATM   13  C   UNL     1      40.920 -15.471  -2.929  1.00  0.00     0.002 A 
HETATM   14  C   UNL     1      41.203 -14.242  -3.515  1.00  0.00     0.002 A 
ENDBRANCH   4   6
ENDBRANCH   1   4
BRANCH   1  15
HETATM   15  C   UNL     1      43.053 -14.860   4.072  1.00  0.00     0.271 C 
BRANCH  15  16
HETATM   16  C   UNL     1      43.169 -16.262   3.544  1.00  0.00    -0.033 A 
HETATM   17  C   UNL     1      42.622 -17.342   4.251  1.00  0.00     0.011 A 
HETATM   18  C   UNL     1      42.754 -18.653   3.773  1.00  0.00     0.030 A 
HETATM   19  C   UNL     1      43.422 -18.912   2.577  1.00  0.00     0.036 A 
HETATM   20  C   UNL     1      43.942 -17.829   1.858  1.00  0.00     0.030 A 
HETATM   21  C   UNL     1      43.825 -16.519   2.337  1.00  0.00     0.011 A 
BRANCH  19  22
HETATM   22  N   UNL     1      43.603 -20.186   2.014  1.00  0.00    -0.303 N 
HETATM   23  C   UNL     1      44.356 -21.265   2.396  1.00  0.00     0.364 C 
HETATM   24  O   UNL     1      44.316 -22.302   1.739  1.00  0.00    -0.238 OA
HETATM   25  H   UNL     1      43.115 -20.387   1.150  1.00  0.00     0.171 HD
BRANCH  23  26
HETATM   26  O   UNL     1      45.141 -21.080   3.484  1.00  0.00    -0.309 OA
HETATM   27  C   UNL     1      44.810 -21.923   4.590  1.00  0.00     0.215 C 
ENDBRANCH  23  26
ENDBRANCH  19  22
ENDBRANCH  15  16
ENDBRANCH   1  15
TORSDOF 6
ENDMDL
MODEL 4
REMARK VINA RESULT:      -7.4      1.660      2.227
REMARK  6 active torsions:
REMARK  status: ('A' for Active; 'I' for Inactive)
REMARK    1  A    between atoms: C_2  and  N_3 
REMARK    2  A    between atoms: C_2  and  C_18 
REMARK    3  A    between atoms: N_3  and  C_6 
REMARK    4  A    between atoms: C_6  and  C_7 
REMARK    5  A    between atoms: C_10  and  N_11 
REMARK       I    between atoms: N_11  and  C_12 
REMARK    6  A    between atoms: C_12  and  O_13 
ROOT
HETATM    1  N   UNL     1      42.734 -15.321   5.002  1.00  0.00    -0.061 N 
HETATM    2  H   UNL     1      43.394 -14.535   5.017  1.00  0.00     0.278 HD
HETATM    3  H   UNL     1      42.752 -15.713   4.050  1.00  0.00     0.278 HD
ENDROOT
BRANCH   1   4
HETATM    4  C   UNL     1      43.178 -16.432   5.925  1.00  0.00     0.241 C 
HETATM    5  C   UNL     1      44.385 -15.916   6.703  1.00  0.00     0.047 C 
BRANCH   4   6
HETATM    6  C   UNL     1      43.534 -17.665   5.135  1.00  0.00     0.106 A 
HETATM    7  S   UNL     1      44.504 -18.902   5.808  1.00  0.00    -0.070 SA
HETATM    8  C   UNL     1      44.324 -19.825   4.363  1.00  0.00     0.035 A 
HETATM    9  C   UNL     1      43.527 -19.112   3.463  1.00  0.00     0.075 A 
HETATM   10  C   UNL     1      44.848 -21.089   4.052  1.00  0.00     0.021 A 
HETATM   11  N   UNL     1      43.075 -17.879   3.919  1.00  0.00    -0.243 NA
HETATM   12  C   UNL     1      43.243 -19.684   2.207  1.00  0.00     0.033 A 
HETATM   13  C   UNL     1      43.759 -20.946   1.889  1.00  0.00     0.002 A 
HETATM   14  C   UNL     1      44.550 -21.636   2.801  1.00  0.00     0.002 A 
ENDBRANCH   4   6
ENDBRANCH   1   4
BRANCH   1  15
HETATM   15  C   UNL     1      41.354 -14.808   5.240  1.00  0.00     0.271 C 
BRANCH  15  16
HETATM   16  C   UNL     1      40.583 -14.708   3.953  1.00  0.00    -0.033 A 
HETATM   17  C   UNL     1      40.495 -15.804   3.083  1.00  0.00     0.011 A 
HETATM   18  C   UNL     1      39.801 -15.703   1.870  1.00  0.00     0.030 A 
HETATM   19  C   UNL     1      39.170 -14.513   1.506  1.00  0.00     0.036 A 
HETATM   20  C   UNL     1      39.235 -13.430   2.391  1.00  0.00     0.030 A 
HETATM   21  C   UNL     1      39.938 -13.520   3.597  1.00  0.00     0.011 A 
BRANCH  19  22
HETATM   22  N   UNL     1      38.448 -14.315   0.318  1.00  0.00    -0.303 N 
HETATM   23  C   UNL     1      38.837 -13.999  -0.957  1.00  0.00     0.364 C 
HETATM   24  O   UNL     1      37.999 -13.914  -1.849  1.00  0.00    -0.238 OA
HETATM   25  H   UNL     1      37.440 -14.394   0.367  1.00  0.00     0.171 HD
BRANCH  23  26
HETATM   26  O   UNL     1      40.160 -13.760  -1.126  1.00  0.00    -0.309 OA
HETATM   27  C   UNL     1      40.888 -14.867  -1.663  1.00  0.00     0.215 C 
ENDBRANCH  23  26
ENDBRANCH  19  22
ENDBRANCH  15  16
ENDBRANCH   1  15
TORSDOF 6
ENDMDL
MODEL 5
REMARK VINA RESULT:      -7.4      4.051      8.194
REMARK  6 active torsions:
REMARK  status: ('A' for Active; 'I' for Inactive)
REMARK    1  A    between atoms: C_2  and  N_3 
REMARK    2  A    between atoms: C_2  and  C_18 
REMARK    3  A    between atoms: N_3  and  C_6 
REMARK    4  A    between atoms: C_6  and  C_7 
REMARK    5  A    between atoms: C_10  and  N_11 
REMARK       I    between atoms: N_11  and  C_12 
REMARK    6  A    between atoms: C_12  and  O_13 
ROOT
HETATM    1  N   UNL     1      41.620 -14.621   1.800  1.00  0.00    -0.061 N 
HETATM    2  H   UNL     1      40.972 -14.120   2.417  1.00  0.00     0.278 HD
HETATM    3  H   UNL     1      41.147 -15.488   1.505  1.00  0.00     0.278 HD
ENDROOT
BRANCH   1   4
HETATM    4  C   UNL     1      41.895 -13.840   0.536  1.00  0.00     0.241 C 
HETATM    5  C   UNL     1      41.807 -12.359   0.894  1.00  0.00     0.047 C 
BRANCH   4   6
HETATM    6  C   UNL     1      40.895 -14.194  -0.534  1.00  0.00     0.106 A 
HETATM    7  S   UNL     1      39.371 -13.424  -0.616  1.00  0.00    -0.070 SA
HETATM    8  C   UNL     1      38.998 -14.319  -2.040  1.00  0.00     0.035 A 
HETATM    9  C   UNL     1      40.078 -15.150  -2.352  1.00  0.00     0.075 A 
HETATM   10  C   UNL     1      37.836 -14.285  -2.826  1.00  0.00     0.021 A 
HETATM   11  N   UNL     1      41.162 -15.064  -1.486  1.00  0.00    -0.243 NA
HETATM   12  C   UNL     1      39.992 -15.975  -3.491  1.00  0.00     0.033 A 
HETATM   13  C   UNL     1      38.838 -15.946  -4.282  1.00  0.00     0.002 A 
HETATM   14  C   UNL     1      37.776 -15.111  -3.951  1.00  0.00     0.002 A 
ENDBRANCH   4   6
ENDBRANCH   1   4
BRANCH   1  15
HETATM   15  C   UNL     1      42.828 -15.023   2.577  1.00  0.00     0.271 C 
BRANCH  15  16
HETATM   16  C   UNL     1      43.059 -16.506   2.491  1.00  0.00    -0.033 A 
HETATM   17  C   UNL     1      42.771 -17.341   3.580  1.00  0.00     0.011 A 
HETATM   18  C   UNL     1      43.012 -18.720   3.510  1.00  0.00     0.030 A 
HETATM   19  C   UNL     1      43.533 -19.295   2.351  1.00  0.00     0.036 A 
HETATM   20  C   UNL     1      43.793 -18.463   1.256  1.00  0.00     0.030 A 
HETATM   21  C   UNL     1      43.567 -17.084   1.324  1.00  0.00     0.011 A 
BRANCH  19  22
HETATM   22  N   UNL     1      43.806 -20.662   2.183  1.00  0.00    -0.303 N 
HETATM   23  C   UNL     1      44.492 -21.568   2.947  1.00  0.00     0.364 C 
HETATM   24  O   UNL     1      44.561 -22.741   2.593  1.00  0.00    -0.238 OA
HETATM   25  H   UNL     1      43.462 -21.105   1.339  1.00  0.00     0.171 HD
BRANCH  23  26
HETATM   26  O   UNL     1      45.094 -21.068   4.053  1.00  0.00    -0.309 OA
HETATM   27  C   UNL     1      44.841 -21.819   5.243  1.00  0.00     0.215 C 
ENDBRANCH  23  26
ENDBRANCH  19  22
ENDBRANCH  15  16
ENDBRANCH   1  15
TORSDOF 6
ENDMDL
MODEL 6
REMARK VINA RESULT:      -7.2      4.165      8.072
REMARK  6 active torsions:
REMARK  status: ('A' for Active; 'I' for Inactive)
REMARK    1  A    between atoms: C_2  and  N_3 
REMARK    2  A    between atoms: C_2  and  C_18 
REMARK    3  A    between atoms: N_3  and  C_6 
REMARK    4  A    between atoms: C_6  and  C_7 
REMARK    5  A    between atoms: C_10  and  N_11 
REMARK       I    between atoms: N_11  and  C_12 
REMARK    6  A    between atoms: C_12  and  O_13 
ROOT
HETATM    1  N   UNL     1      41.778 -14.444   3.191  1.00  0.00    -0.061 N 
HETATM    2  H   UNL     1      41.154 -14.615   3.988  1.00  0.00     0.278 HD
HETATM    3  H   UNL     1      41.419 -14.999   2.401  1.00  0.00     0.278 HD
ENDROOT
BRANCH   1   4
HETATM    4  C   UNL     1      41.727 -12.999   2.750  1.00  0.00     0.241 C 
HETATM    5  C   UNL     1      40.385 -12.435   3.210  1.00  0.00     0.047 C 
BRANCH   4   6
HETATM    6  C   UNL     1      41.868 -12.898   1.253  1.00  0.00     0.106 A 
HETATM    7  S   UNL     1      41.257 -14.115   0.219  1.00  0.00    -0.070 SA
HETATM    8  C   UNL     1      41.756 -13.197  -1.151  1.00  0.00     0.035 A 
HETATM    9  C   UNL     1      42.358 -12.014  -0.713  1.00  0.00     0.075 A 
HETATM   10  C   UNL     1      41.619 -13.499  -2.515  1.00  0.00     0.021 A 
HETATM   11  N   UNL     1      42.411 -11.851   0.667  1.00  0.00    -0.243 NA
HETATM   12  C   UNL     1      42.841 -11.102  -1.672  1.00  0.00     0.033 A 
HETATM   13  C   UNL     1      42.707 -11.394  -3.034  1.00  0.00     0.002 A 
HETATM   14  C   UNL     1      42.104 -12.577  -3.447  1.00  0.00     0.002 A 
ENDBRANCH   4   6
ENDBRANCH   1   4
BRANCH   1  15
HETATM   15  C   UNL     1      43.138 -14.965   3.511  1.00  0.00     0.271 C 
BRANCH  15  16
HETATM   16  C   UNL     1      43.259 -16.420   3.155  1.00  0.00    -0.033 A 
HETATM   17  C   UNL     1      42.786 -17.413   4.025  1.00  0.00     0.011 A 
HETATM   18  C   UNL     1      42.923 -18.771   3.706  1.00  0.00     0.030 A 
HETATM   19  C   UNL     1      43.522 -19.166   2.509  1.00  0.00     0.036 A 
HETATM   20  C   UNL     1      43.966 -18.172   1.630  1.00  0.00     0.030 A 
HETATM   21  C   UNL     1      43.844 -16.815   1.948  1.00  0.00     0.011 A 
BRANCH  19  22
HETATM   22  N   UNL     1      43.701 -20.497   2.099  1.00  0.00    -0.303 N 
HETATM   23  C   UNL     1      44.384 -21.549   2.650  1.00  0.00     0.364 C 
HETATM   24  O   UNL     1      44.359 -22.648   2.104  1.00  0.00    -0.238 OA
HETATM   25  H   UNL     1      43.275 -20.776   1.224  1.00  0.00     0.171 HD
BRANCH  23  26
HETATM   26  O   UNL     1      45.089 -21.269   3.773  1.00  0.00    -0.309 OA
HETATM   27  C   UNL     1      44.851 -22.179   4.850  1.00  0.00     0.215 C 
ENDBRANCH  23  26
ENDBRANCH  19  22
ENDBRANCH  15  16
ENDBRANCH   1  15
TORSDOF 6
ENDMDL
MODEL 7
REMARK VINA RESULT:      -7.0      1.948      2.544
REMARK  6 active torsions:
REMARK  status: ('A' for Active; 'I' for Inactive)
REMARK    1  A    between atoms: C_2  and  N_3 
REMARK    2  A    between atoms: C_2  and  C_18 
REMARK    3  A    between atoms: N_3  and  C_6 
REMARK    4  A    between atoms: C_6  and  C_7 
REMARK    5  A    between atoms: C_10  and  N_11 
REMARK       I    between atoms: N_11  and  C_12 
REMARK    6  A    between atoms: C_12  and  O_13 
ROOT
HETATM    1  N   UNL     1      43.404 -14.851   5.015  1.00  0.00    -0.061 N 
HETATM    2  H   UNL     1      44.249 -14.456   5.443  1.00  0.00     0.278 HD
HETATM    3  H   UNL     1      43.658 -15.149   4.062  1.00  0.00     0.278 HD
ENDROOT
BRANCH   1   4
HETATM    4  C   UNL     1      42.948 -16.096   5.740  1.00  0.00     0.241 C 
HETATM    5  C   UNL     1      43.753 -16.185   7.033  1.00  0.00     0.047 C 
BRANCH   4   6
HETATM    6  C   UNL     1      43.168 -17.316   4.884  1.00  0.00     0.106 A 
HETATM    7  S   UNL     1      42.365 -17.509   3.387  1.00  0.00    -0.070 SA
HETATM    8  C   UNL     1      43.208 -18.989   3.128  1.00  0.00     0.035 A 
HETATM    9  C   UNL     1      44.051 -19.230   4.217  1.00  0.00     0.075 A 
HETATM   10  C   UNL     1      43.131 -19.871   2.039  1.00  0.00     0.021 A 
HETATM   11  N   UNL     1      44.025 -18.261   5.214  1.00  0.00    -0.243 NA
HETATM   12  C   UNL     1      44.847 -20.393   4.215  1.00  0.00     0.033 A 
HETATM   13  C   UNL     1      44.779 -21.276   3.132  1.00  0.00     0.002 A 
HETATM   14  C   UNL     1      43.932 -21.016   2.060  1.00  0.00     0.002 A 
ENDBRANCH   4   6
ENDBRANCH   1   4
BRANCH   1  15
HETATM   15  C   UNL     1      42.375 -13.779   4.878  1.00  0.00     0.271 C 
BRANCH  15  16
HETATM   16  C   UNL     1      41.560 -13.966   3.630  1.00  0.00    -0.033 A 
HETATM   17  C   UNL     1      40.234 -14.414   3.699  1.00  0.00     0.011 A 
HETATM   18  C   UNL     1      39.482 -14.615   2.533  1.00  0.00     0.030 A 
HETATM   19  C   UNL     1      40.033 -14.362   1.277  1.00  0.00     0.036 A 
HETATM   20  C   UNL     1      41.348 -13.887   1.212  1.00  0.00     0.030 A 
HETATM   21  C   UNL     1      42.108 -13.697   2.372  1.00  0.00     0.011 A 
BRANCH  19  22
HETATM   22  N   UNL     1      39.362 -14.528   0.054  1.00  0.00    -0.303 N 
HETATM   23  C   UNL     1      38.532 -13.707  -0.662  1.00  0.00     0.364 C 
HETATM   24  O   UNL     1      38.091 -14.078  -1.745  1.00  0.00    -0.238 OA
HETATM   25  H   UNL     1      39.470 -15.417  -0.419  1.00  0.00     0.171 HD
BRANCH  23  26
HETATM   26  O   UNL     1      38.223 -12.526  -0.076  1.00  0.00    -0.309 OA
HETATM   27  C   UNL     1      36.921 -12.491   0.514  1.00  0.00     0.215 C 
ENDBRANCH  23  26
ENDBRANCH  19  22
ENDBRANCH  15  16
ENDBRANCH   1  15
TORSDOF 6
ENDMDL
MODEL 8
REMARK VINA RESULT:      -6.9      2.062      2.767
REMARK  6 active torsions:
REMARK  status: ('A' for Active; 'I' for Inactive)
REMARK    1  A    between atoms: C_2  and  N_3 
REMARK    2  A    between atoms: C_2  and  C_18 
REMARK    3  A    between atoms: N_3  and  C_6 
REMARK    4  A    between atoms: C_6  and  C_7 
REMARK    5  A    between atoms: C_10  and  N_11 
REMARK       I    between atoms: N_11  and  C_12 
REMARK    6  A    between atoms: C_12  and  O_13 
ROOT
HETATM    1  N   UNL     1      41.877 -15.557   6.281  1.00  0.00    -0.061 N 
HETATM    2  H   UNL     1      41.268 -15.935   5.546  1.00  0.00     0.278 HD
HETATM    3  H   UNL     1      41.317 -15.517   7.146  1.00  0.00     0.278 HD
ENDROOT
BRANCH   1   4
HETATM    4  C   UNL     1      43.035 -16.482   6.570  1.00  0.00     0.241 C 
HETATM    5  C   UNL     1      44.286 -15.615   6.685  1.00  0.00     0.047 C 
BRANCH   4   6
HETATM    6  C   UNL     1      43.186 -17.501   5.471  1.00  0.00     0.106 A 
HETATM    7  S   UNL     1      42.331 -17.352   3.997  1.00  0.00    -0.070 SA
HETATM    8  C   UNL     1      43.114 -18.767   3.403  1.00  0.00     0.035 A 
HETATM    9  C   UNL     1      43.981 -19.255   4.385  1.00  0.00     0.075 A 
HETATM   10  C   UNL     1      42.973 -19.397   2.157  1.00  0.00     0.021 A 
HETATM   11  N   UNL     1      44.019 -18.518   5.562  1.00  0.00    -0.243 NA
HETATM   12  C   UNL     1      44.735 -20.413   4.110  1.00  0.00     0.033 A 
HETATM   13  C   UNL     1      44.603 -21.047   2.869  1.00  0.00     0.002 A 
HETATM   14  C   UNL     1      43.733 -20.543   1.908  1.00  0.00     0.002 A 
ENDBRANCH   4   6
ENDBRANCH   1   4
BRANCH   1  15
HETATM   15  C   UNL     1      42.251 -14.154   5.937  1.00  0.00     0.271 C 
BRANCH  15  16
HETATM   16  C   UNL     1      41.804 -13.799   4.547  1.00  0.00    -0.033 A 
HETATM   17  C   UNL     1      42.689 -13.199   3.641  1.00  0.00     0.011 A 
HETATM   18  C   UNL     1      42.265 -12.842   2.354  1.00  0.00     0.030 A 
HETATM   19  C   UNL     1      40.955 -13.087   1.940  1.00  0.00     0.036 A 
HETATM   20  C   UNL     1      40.082 -13.714   2.838  1.00  0.00     0.030 A 
HETATM   21  C   UNL     1      40.496 -14.060   4.128  1.00  0.00     0.011 A 
BRANCH  19  22
HETATM   22  N   UNL     1      40.438 -12.771   0.674  1.00  0.00    -0.303 N 
HETATM   23  C   UNL     1      40.691 -13.268  -0.577  1.00  0.00     0.364 C 
HETATM   24  O   UNL     1      40.067 -12.840  -1.544  1.00  0.00    -0.238 OA
HETATM   25  H   UNL     1      39.753 -12.027   0.623  1.00  0.00     0.171 HD
BRANCH  23  26
HETATM   26  O   UNL     1      41.672 -14.199  -0.653  1.00  0.00    -0.309 OA
HETATM   27  C   UNL     1      41.203 -15.547  -0.579  1.00  0.00     0.215 C 
ENDBRANCH  23  26
ENDBRANCH  19  22
ENDBRANCH  15  16
ENDBRANCH   1  15
TORSDOF 6
ENDMDL
MODEL 9
REMARK VINA RESULT:      -6.9      4.261      6.187
REMARK  6 active torsions:
REMARK  status: ('A' for Active; 'I' for Inactive)
REMARK    1  A    between atoms: C_2  and  N_3 
REMARK    2  A    between atoms: C_2  and  C_18 
REMARK    3  A    between atoms: N_3  and  C_6 
REMARK    4  A    between atoms: C_6  and  C_7 
REMARK    5  A    between atoms: C_10  and  N_11 
REMARK       I    between atoms: N_11  and  C_12 
REMARK    6  A    between atoms: C_12  and  O_13 
ROOT
HETATM    1  N   UNL     1      40.043 -16.222   2.367  1.00  0.00    -0.061 N 
HETATM    2  H   UNL     1      39.374 -16.784   1.829  1.00  0.00     0.278 HD
HETATM    3  H   UNL     1      40.093 -16.632   3.311  1.00  0.00     0.278 HD
ENDROOT
BRANCH   1   4
HETATM    4  C   UNL     1      41.436 -16.318   1.791  1.00  0.00     0.241 C 
HETATM    5  C   UNL     1      41.291 -16.737   0.330  1.00  0.00     0.047 C 
BRANCH   4   6
HETATM    6  C   UNL     1      42.258 -17.321   2.559  1.00  0.00     0.106 A 
HETATM    7  S   UNL     1      42.448 -17.203   4.254  1.00  0.00    -0.070 SA
HETATM    8  C   UNL     1      43.370 -18.659   4.249  1.00  0.00     0.035 A 
HETATM    9  C   UNL     1      43.465 -19.134   2.938  1.00  0.00     0.075 A 
HETATM   10  C   UNL     1      43.962 -19.332   5.328  1.00  0.00     0.021 A 
HETATM   11  N   UNL     1      42.818 -18.363   1.979  1.00  0.00    -0.243 NA
HETATM   12  C   UNL     1      44.177 -20.326   2.698  1.00  0.00     0.033 A 
HETATM   13  C   UNL     1      44.769 -21.006   3.768  1.00  0.00     0.002 A 
HETATM   14  C   UNL     1      44.661 -20.514   5.064  1.00  0.00     0.002 A 
ENDBRANCH   4   6
ENDBRANCH   1   4
BRANCH   1  15
HETATM   15  C   UNL     1      39.510 -14.837   2.519  1.00  0.00     0.271 C 
BRANCH  15  16
HETATM   16  C   UNL     1      40.182 -14.118   3.655  1.00  0.00    -0.033 A 
HETATM   17  C   UNL     1      39.857 -14.416   4.985  1.00  0.00     0.011 A 
HETATM   18  C   UNL     1      40.463 -13.727   6.044  1.00  0.00     0.030 A 
HETATM   19  C   UNL     1      41.415 -12.737   5.799  1.00  0.00     0.036 A 
HETATM   20  C   UNL     1      41.759 -12.461   4.470  1.00  0.00     0.030 A 
HETATM   21  C   UNL     1      41.147 -13.136   3.408  1.00  0.00     0.011 A 
BRANCH  19  22
HETATM   22  N   UNL     1      42.079 -11.995   6.789  1.00  0.00    -0.303 N 
HETATM   23  C   UNL     1      41.778 -10.816   7.417  1.00  0.00     0.364 C 
HETATM   24  O   UNL     1      42.520 -10.382   8.294  1.00  0.00    -0.238 OA
HETATM   25  H   UNL     1      42.966 -12.354   7.122  1.00  0.00     0.171 HD
BRANCH  23  26
HETATM   26  O   UNL     1      40.665 -10.182   6.976  1.00  0.00    -0.309 OA
HETATM   27  C   UNL     1      39.971  -9.452   7.991  1.00  0.00     0.215 C 
ENDBRANCH  23  26
ENDBRANCH  19  22
ENDBRANCH  15  16
ENDBRANCH   1  15
TORSDOF 6
ENDMDL
MODEL 10
REMARK VINA RESULT:      -6.9      6.074      9.297
REMARK  6 active torsions:
REMARK  status: ('A' for Active; 'I' for Inactive)
REMARK    1  A    between atoms: C_2  and  N_3 
REMARK    2  A    between atoms: C_2  and  C_18 
REMARK    3  A    between atoms: N_3  and  C_6 
REMARK    4  A    between atoms: C_6  and  C_7 
REMARK    5  A    between atoms: C_10  and  N_11 
REMARK       I    between atoms: N_11  and  C_12 
REMARK    6  A    between atoms: C_12  and  O_13 
ROOT
HETATM    1  N   UNL     1      44.206 -13.163   8.674  1.00  0.00    -0.061 N 
HETATM    2  H   UNL     1      44.442 -13.687   9.524  1.00  0.00     0.278 HD
HETATM    3  H   UNL     1      43.197 -13.292   8.508  1.00  0.00     0.278 HD
ENDROOT
BRANCH   1   4
HETATM    4  C   UNL     1      44.416 -11.678   8.863  1.00  0.00     0.241 C 
HETATM    5  C   UNL     1      45.892 -11.470   9.191  1.00  0.00     0.047 C 
BRANCH   4   6
HETATM    6  C   UNL     1      43.540 -11.158   9.973  1.00  0.00     0.106 A 
HETATM    7  S   UNL     1      42.046 -10.395   9.643  1.00  0.00    -0.070 SA
HETATM    8  C   UNL     1      41.758 -10.232  11.334  1.00  0.00     0.035 A 
HETATM    9  C   UNL     1      42.836 -10.779  12.035  1.00  0.00     0.075 A 
HETATM   10  C   UNL     1      40.656  -9.665  11.992  1.00  0.00     0.021 A 
HETATM   11  N   UNL     1      43.848 -11.313  11.245  1.00  0.00    -0.243 NA
HETATM   12  C   UNL     1      42.811 -10.760  13.443  1.00  0.00     0.033 A 
HETATM   13  C   UNL     1      41.714 -10.199  14.108  1.00  0.00     0.002 A 
HETATM   14  C   UNL     1      40.653  -9.659  13.389  1.00  0.00     0.002 A 
ENDBRANCH   4   6
ENDBRANCH   1   4
BRANCH   1  15
HETATM   15  C   UNL     1      44.921 -13.764   7.511  1.00  0.00     0.271 C 
BRANCH  15  16
HETATM   16  C   UNL     1      43.962 -14.458   6.585  1.00  0.00    -0.033 A 
HETATM   17  C   UNL     1      43.969 -15.855   6.460  1.00  0.00     0.011 A 
HETATM   18  C   UNL     1      43.094 -16.500   5.576  1.00  0.00     0.030 A 
HETATM   19  C   UNL     1      42.187 -15.769   4.808  1.00  0.00     0.036 A 
HETATM   20  C   UNL     1      42.163 -14.377   4.956  1.00  0.00     0.030 A 
HETATM   21  C   UNL     1      43.043 -13.726   5.827  1.00  0.00     0.011 A 
BRANCH  19  22
HETATM   22  N   UNL     1      41.270 -16.322   3.900  1.00  0.00    -0.303 N 
HETATM   23  C   UNL     1      41.341 -16.574   2.555  1.00  0.00     0.364 C 
HETATM   24  O   UNL     1      40.396 -17.109   1.983  1.00  0.00    -0.238 OA
HETATM   25  H   UNL     1      40.361 -16.586   4.259  1.00  0.00     0.171 HD
BRANCH  23  26
HETATM   26  O   UNL     1      42.474 -16.163   1.938  1.00  0.00    -0.309 OA
HETATM   27  C   UNL     1      43.155 -17.196   1.222  1.00  0.00     0.215 C 
ENDBRANCH  23  26
ENDBRANCH  19  22
ENDBRANCH  15  16
ENDBRANCH   1  15
TORSDOF 6
ENDMDL
