MODEL 1
REMARK VINA RESULT:      -9.1      0.000      0.000
REMARK  2 active torsions:
REMARK  status: ('A' for Active; 'I' for Inactive)
REMARK    1  A    between atoms: C_10  and  C_11 
REMARK    2  A    between atoms: C_12  and  O_13 
ROOT
HETATM    1  C   UNL     1      40.567 -14.299  -3.509  1.00  0.00     0.076 C 
HETATM    2  C   UNL     1      40.018 -14.228  -2.140  1.00  0.00     0.050 A 
HETATM    3  O   UNL     1      40.767 -14.784  -1.149  1.00  0.00    -0.312 OA
HETATM    4  C   UNL     1      40.093 -14.609   0.034  1.00  0.00     0.121 A 
HETATM    5  C   UNL     1      40.599 -15.057   1.291  1.00  0.00     0.163 A 
HETATM    6  N   UNL     1      39.996 -14.929   2.454  1.00  0.00    -0.221 NA
HETATM    7  C   UNL     1      40.871 -15.446   3.394  1.00  0.00     0.149 A 
HETATM    8  C   UNL     1      42.024 -15.895   2.765  1.00  0.00     0.046 A 
HETATM    9  C   UNL     1      43.295 -16.407   3.338  1.00  0.00     0.070 C 
HETATM   10  C   UNL     1      43.131 -17.564   4.345  1.00  0.00     0.045 C 
HETATM   11  C   UNL     1      41.753 -17.674   5.034  1.00  0.00     0.132 C 
HETATM   12  N   UNL     1      41.256 -16.425   5.586  1.00  0.00    -0.355 N 
HETATM   13  C   UNL     1      40.609 -15.461   4.837  1.00  0.00     0.272 C 
HETATM   14  O   UNL     1      39.853 -14.673   5.402  1.00  0.00    -0.266 OA
HETATM   15  N   UNL     1      41.820 -15.660   1.430  1.00  0.00    -0.340 N 
HETATM   16  H   UNL     1      42.464 -15.833   0.670  1.00  0.00     0.167 HD
HETATM   17  C   UNL     1      38.911 -13.937  -0.226  1.00  0.00     0.043 A 
HETATM   18  C   UNL     1      38.864 -13.691  -1.618  1.00  0.00     0.035 A 
HETATM   19  H   UNL     1      40.944 -16.419   6.549  1.00  0.00     0.162 HD
ENDROOT
BRANCH  10  20
HETATM   20  C   UNL     1      43.555 -18.892   3.712  1.00  0.00    -0.019 A 
HETATM   21  C   UNL     1      44.324 -19.829   4.439  1.00  0.00     0.074 A 
HETATM   22  C   UNL     1      44.693 -21.039   3.839  1.00  0.00     0.037 A 
HETATM   23  C   UNL     1      44.323 -21.321   2.523  1.00  0.00     0.003 A 
HETATM   24  C   UNL     1      43.592 -20.393   1.791  1.00  0.00     0.001 A 
HETATM   25  C   UNL     1      43.217 -19.184   2.377  1.00  0.00     0.010 A 
BRANCH  21  26
HETATM   26  O   UNL     1      44.666 -19.469   5.716  1.00  0.00    -0.355 OA
HETATM   27  C   UNL     1      43.954 -20.072   6.788  1.00  0.00     0.210 C 
ENDBRANCH  21  26
ENDBRANCH  10  20
TORSDOF 2
ENDMDL
MODEL 2
REMARK VINA RESULT:      -8.5      2.311      4.910
REMARK  2 active torsions:
REMARK  status: ('A' for Active; 'I' for Inactive)
REMARK    1  A    between atoms: C_10  and  C_11 
REMARK    2  A    between atoms: C_12  and  O_13 
ROOT
HETATM    1  C   UNL     1      39.137 -12.175   7.921  1.00  0.00     0.076 C 
HETATM    2  C   UNL     1      39.547 -12.080   6.506  1.00  0.00     0.050 A 
HETATM    3  O   UNL     1      39.925 -13.238   5.898  1.00  0.00    -0.312 OA
HETATM    4  C   UNL     1      40.258 -12.939   4.600  1.00  0.00     0.121 A 
HETATM    5  C   UNL     1      40.686 -13.925   3.661  1.00  0.00     0.163 A 
HETATM    6  N   UNL     1      41.029 -13.701   2.410  1.00  0.00    -0.221 NA
HETATM    7  C   UNL     1      41.312 -14.941   1.865  1.00  0.00     0.149 A 
HETATM    8  C   UNL     1      41.132 -15.927   2.825  1.00  0.00     0.046 A 
HETATM    9  C   UNL     1      41.183 -17.407   2.706  1.00  0.00     0.070 C 
HETATM   10  C   UNL     1      42.471 -17.960   2.063  1.00  0.00     0.045 C 
HETATM   11  C   UNL     1      43.253 -16.981   1.160  1.00  0.00     0.132 C 
HETATM   12  N   UNL     1      42.437 -16.284   0.180  1.00  0.00    -0.355 N 
HETATM   13  C   UNL     1      41.696 -15.153   0.467  1.00  0.00     0.272 C 
HETATM   14  O   UNL     1      41.401 -14.386  -0.448  1.00  0.00    -0.266 OA
HETATM   15  N   UNL     1      40.759 -15.258   3.963  1.00  0.00    -0.340 N 
HETATM   16  H   UNL     1      40.514 -15.658   4.859  1.00  0.00     0.167 HD
HETATM   17  C   UNL     1      40.086 -11.580   4.400  1.00  0.00     0.043 A 
HETATM   18  C   UNL     1      39.628 -11.030   5.620  1.00  0.00     0.035 A 
HETATM   19  H   UNL     1      42.735 -16.299  -0.788  1.00  0.00     0.162 HD
ENDROOT
BRANCH  10  20
HETATM   20  C   UNL     1      43.374 -18.594   3.125  1.00  0.00    -0.019 A 
HETATM   21  C   UNL     1      43.943 -19.872   2.923  1.00  0.00     0.074 A 
HETATM   22  C   UNL     1      44.771 -20.425   3.908  1.00  0.00     0.037 A 
HETATM   23  C   UNL     1      45.023 -19.735   5.094  1.00  0.00     0.003 A 
HETATM   24  C   UNL     1      44.443 -18.492   5.314  1.00  0.00     0.001 A 
HETATM   25  C   UNL     1      43.619 -17.927   4.340  1.00  0.00     0.010 A 
BRANCH  21  26
HETATM   26  O   UNL     1      43.629 -20.494   1.744  1.00  0.00    -0.355 OA
HETATM   27  C   UNL     1      43.987 -21.862   1.602  1.00  0.00     0.210 C 
ENDBRANCH  21  26
ENDBRANCH  10  20
TORSDOF 2
ENDMDL
MODEL 3
REMARK VINA RESULT:      -8.2      1.770      7.217
REMARK  2 active torsions:
REMARK  status: ('A' for Active; 'I' for Inactive)
REMARK    1  A    between atoms: C_10  and  C_11 
REMARK    2  A    between atoms: C_12  and  O_13 
ROOT
HETATM    1  C   UNL     1      43.976 -21.907   1.424  1.00  0.00     0.076 C 
HETATM    2  C   UNL     1      43.985 -20.752   2.343  1.00  0.00     0.050 A 
HETATM    3  O   UNL     1      43.040 -19.794   2.134  1.00  0.00    -0.312 OA
HETATM    4  C   UNL     1      43.214 -18.821   3.087  1.00  0.00     0.121 A 
HETATM    5  C   UNL     1      42.380 -17.666   3.179  1.00  0.00     0.163 A 
HETATM    6  N   UNL     1      42.502 -16.695   4.059  1.00  0.00    -0.221 NA
HETATM    7  C   UNL     1      41.453 -15.826   3.815  1.00  0.00     0.149 A 
HETATM    8  C   UNL     1      40.691 -16.298   2.755  1.00  0.00     0.046 A 
HETATM    9  C   UNL     1      39.405 -15.802   2.199  1.00  0.00     0.070 C 
HETATM   10  C   UNL     1      39.397 -14.306   1.825  1.00  0.00     0.045 C 
HETATM   11  C   UNL     1      40.440 -13.421   2.542  1.00  0.00     0.132 C 
HETATM   12  N   UNL     1      40.490 -13.600   3.983  1.00  0.00    -0.355 N 
HETATM   13  C   UNL     1      41.187 -14.620   4.604  1.00  0.00     0.272 C 
HETATM   14  O   UNL     1      41.550 -14.472   5.770  1.00  0.00    -0.266 OA
HETATM   15  N   UNL     1      41.310 -17.453   2.352  1.00  0.00    -0.340 N 
HETATM   16  H   UNL     1      41.015 -18.086   1.621  1.00  0.00     0.167 HD
HETATM   17  C   UNL     1      44.279 -19.177   3.895  1.00  0.00     0.043 A 
HETATM   18  C   UNL     1      44.772 -20.415   3.421  1.00  0.00     0.035 A 
HETATM   19  H   UNL     1      40.436 -12.776   4.569  1.00  0.00     0.162 HD
ENDROOT
BRANCH  10  20
HETATM   20  C   UNL     1      39.455 -14.131   0.305  1.00  0.00    -0.019 A 
HETATM   21  C   UNL     1      38.324 -13.691  -0.418  1.00  0.00     0.074 A 
HETATM   22  C   UNL     1      38.406 -13.532  -1.807  1.00  0.00     0.037 A 
HETATM   23  C   UNL     1      39.590 -13.822  -2.486  1.00  0.00     0.003 A 
HETATM   24  C   UNL     1      40.699 -14.284  -1.786  1.00  0.00     0.001 A 
HETATM   25  C   UNL     1      40.631 -14.444  -0.402  1.00  0.00     0.010 A 
BRANCH  21  26
HETATM   26  O   UNL     1      37.193 -13.449   0.317  1.00  0.00    -0.355 OA
HETATM   27  C   UNL     1      36.768 -12.100   0.454  1.00  0.00     0.210 C 
ENDBRANCH  21  26
ENDBRANCH  10  20
TORSDOF 2
ENDMDL
MODEL 4
REMARK VINA RESULT:      -7.8      3.256      5.840
REMARK  2 active torsions:
REMARK  status: ('A' for Active; 'I' for Inactive)
REMARK    1  A    between atoms: C_10  and  C_11 
REMARK    2  A    between atoms: C_12  and  O_13 
ROOT
HETATM    1  C   UNL     1      40.111 -10.120   9.721  1.00  0.00     0.076 C 
HETATM    2  C   UNL     1      39.860 -10.426   8.298  1.00  0.00     0.050 A 
HETATM    3  O   UNL     1      40.124 -11.697   7.888  1.00  0.00    -0.312 OA
HETATM    4  C   UNL     1      39.821 -11.776   6.551  1.00  0.00     0.121 A 
HETATM    5  C   UNL     1      39.961 -12.976   5.792  1.00  0.00     0.163 A 
HETATM    6  N   UNL     1      39.700 -13.113   4.509  1.00  0.00    -0.221 NA
HETATM    7  C   UNL     1      39.918 -14.447   4.217  1.00  0.00     0.149 A 
HETATM    8  C   UNL     1      40.324 -15.118   5.362  1.00  0.00     0.046 A 
HETATM    9  C   UNL     1      40.555 -16.567   5.597  1.00  0.00     0.070 C 
HETATM   10  C   UNL     1      41.518 -17.239   4.597  1.00  0.00     0.045 C 
HETATM   11  C   UNL     1      41.674 -16.538   3.230  1.00  0.00     0.132 C 
HETATM   12  N   UNL     1      40.420 -16.183   2.589  1.00  0.00    -0.355 N 
HETATM   13  C   UNL     1      39.701 -15.043   2.895  1.00  0.00     0.272 C 
HETATM   14  O   UNL     1      38.926 -14.583   2.057  1.00  0.00    -0.266 OA
HETATM   15  N   UNL     1      40.368 -14.162   6.343  1.00  0.00    -0.340 N 
HETATM   16  H   UNL     1      40.593 -14.293   7.320  1.00  0.00     0.167 HD
HETATM   17  C   UNL     1      39.366 -10.540   6.126  1.00  0.00     0.043 A 
HETATM   18  C   UNL     1      39.389  -9.675   7.245  1.00  0.00     0.035 A 
HETATM   19  H   UNL     1      40.276 -16.467   1.628  1.00  0.00     0.162 HD
ENDROOT
BRANCH  10  20
HETATM   20  C   UNL     1      42.874 -17.509   5.255  1.00  0.00    -0.019 A 
HETATM   21  C   UNL     1      43.689 -18.580   4.825  1.00  0.00     0.074 A 
HETATM   22  C   UNL     1      44.928 -18.800   5.439  1.00  0.00     0.037 A 
HETATM   23  C   UNL     1      45.358 -17.981   6.483  1.00  0.00     0.003 A 
HETATM   24  C   UNL     1      44.551 -16.942   6.932  1.00  0.00     0.001 A 
HETATM   25  C   UNL     1      43.315 -16.711   6.328  1.00  0.00     0.010 A 
BRANCH  21  26
HETATM   26  O   UNL     1      43.186 -19.352   3.811  1.00  0.00    -0.355 OA
HETATM   27  C   UNL     1      43.971 -19.493   2.634  1.00  0.00     0.210 C 
ENDBRANCH  21  26
ENDBRANCH  10  20
TORSDOF 2
ENDMDL
MODEL 5
REMARK VINA RESULT:      -7.7      2.595      7.131
REMARK  2 active torsions:
REMARK  status: ('A' for Active; 'I' for Inactive)
REMARK    1  A    between atoms: C_10  and  C_11 
REMARK    2  A    between atoms: C_12  and  O_13 
ROOT
HETATM    1  C   UNL     1      43.629 -21.805   1.423  1.00  0.00     0.076 C 
HETATM    2  C   UNL     1      44.109 -20.971   2.543  1.00  0.00     0.050 A 
HETATM    3  O   UNL     1      43.425 -19.820   2.789  1.00  0.00    -0.312 OA
HETATM    4  C   UNL     1      44.019 -19.202   3.861  1.00  0.00     0.121 A 
HETATM    5  C   UNL     1      43.548 -17.970   4.406  1.00  0.00     0.163 A 
HETATM    6  N   UNL     1      44.079 -17.323   5.421  1.00  0.00    -0.221 NA
HETATM    7  C   UNL     1      43.267 -16.223   5.639  1.00  0.00     0.149 A 
HETATM    8  C   UNL     1      42.226 -16.221   4.721  1.00  0.00     0.046 A 
HETATM    9  C   UNL     1      41.035 -15.338   4.619  1.00  0.00     0.070 C 
HETATM   10  C   UNL     1      41.349 -13.828   4.599  1.00  0.00     0.045 C 
HETATM   11  C   UNL     1      42.701 -13.407   5.216  1.00  0.00     0.132 C 
HETATM   12  N   UNL     1      42.968 -13.979   6.525  1.00  0.00    -0.355 N 
HETATM   13  C   UNL     1      43.476 -15.250   6.716  1.00  0.00     0.272 C 
HETATM   14  O   UNL     1      44.073 -15.504   7.760  1.00  0.00    -0.266 OA
HETATM   15  N   UNL     1      42.437 -17.323   3.934  1.00  0.00    -0.340 N 
HETATM   16  H   UNL     1      41.858 -17.657   3.176  1.00  0.00     0.167 HD
HETATM   17  C   UNL     1      45.085 -19.976   4.284  1.00  0.00     0.043 A 
HETATM   18  C   UNL     1      45.141 -21.111   3.442  1.00  0.00     0.035 A 
HETATM   19  H   UNL     1      43.240 -13.354   7.274  1.00  0.00     0.162 HD
ENDROOT
BRANCH  10  20
HETATM   20  C   UNL     1      41.170 -13.260   3.188  1.00  0.00    -0.019 A 
HETATM   21  C   UNL     1      39.989 -12.574   2.827  1.00  0.00     0.074 A 
HETATM   22  C   UNL     1      39.854 -12.059   1.532  1.00  0.00     0.037 A 
HETATM   23  C   UNL     1      40.867 -12.232   0.590  1.00  0.00     0.003 A 
HETATM   24  C   UNL     1      42.020 -12.931   0.927  1.00  0.00     0.001 A 
HETATM   25  C   UNL     1      42.169 -13.448   2.214  1.00  0.00     0.010 A 
BRANCH  21  26
HETATM   26  O   UNL     1      39.031 -12.466   3.802  1.00  0.00    -0.355 OA
HETATM   27  C   UNL     1      38.699 -11.163   4.261  1.00  0.00     0.210 C 
ENDBRANCH  21  26
ENDBRANCH  10  20
TORSDOF 2
ENDMDL
MODEL 6
REMARK VINA RESULT:      -7.5      2.302      7.484
REMARK  2 active torsions:
REMARK  status: ('A' for Active; 'I' for Inactive)
REMARK    1  A    between atoms: C_10  and  C_11 
REMARK    2  A    between atoms: C_12  and  O_13 
ROOT
HETATM    1  C   UNL     1      45.173 -20.641   4.793  1.00  0.00     0.076 C 
HETATM    2  C   UNL     1      44.439 -20.255   3.572  1.00  0.00     0.050 A 
HETATM    3  O   UNL     1      43.997 -18.969   3.503  1.00  0.00    -0.312 OA
HETATM    4  C   UNL     1      43.353 -18.812   2.301  1.00  0.00     0.121 A 
HETATM    5  C   UNL     1      42.775 -17.576   1.884  1.00  0.00     0.163 A 
HETATM    6  N   UNL     1      42.136 -17.365   0.753  1.00  0.00    -0.221 NA
HETATM    7  C   UNL     1      41.807 -16.021   0.746  1.00  0.00     0.149 A 
HETATM    8  C   UNL     1      42.265 -15.421   1.910  1.00  0.00     0.046 A 
HETATM    9  C   UNL     1      42.275 -13.991   2.316  1.00  0.00     0.070 C 
HETATM   10  C   UNL     1      40.907 -13.284   2.228  1.00  0.00     0.045 C 
HETATM   11  C   UNL     1      39.879 -13.914   1.262  1.00  0.00     0.132 C 
HETATM   12  N   UNL     1      40.400 -14.210  -0.061  1.00  0.00    -0.355 N 
HETATM   13  C   UNL     1      41.119 -15.352  -0.362  1.00  0.00     0.272 C 
HETATM   14  O   UNL     1      41.146 -15.750  -1.525  1.00  0.00    -0.266 OA
HETATM   15  N   UNL     1      42.854 -16.429   2.628  1.00  0.00    -0.340 N 
HETATM   16  H   UNL     1      43.325 -16.355   3.519  1.00  0.00     0.167 HD
HETATM   17  C   UNL     1      43.392 -20.015   1.617  1.00  0.00     0.043 A 
HETATM   18  C   UNL     1      44.090 -20.939   2.430  1.00  0.00     0.035 A 
HETATM   19  H   UNL     1      39.885 -13.872  -0.865  1.00  0.00     0.162 HD
ENDROOT
BRANCH  10  20
HETATM   20  C   UNL     1      40.317 -13.076   3.626  1.00  0.00    -0.019 A 
HETATM   21  C   UNL     1      39.562 -11.922   3.930  1.00  0.00     0.074 A 
HETATM   22  C   UNL     1      39.029 -11.760   5.215  1.00  0.00     0.037 A 
HETATM   23  C   UNL     1      39.251 -12.720   6.202  1.00  0.00     0.003 A 
HETATM   24  C   UNL     1      40.018 -13.845   5.920  1.00  0.00     0.001 A 
HETATM   25  C   UNL     1      40.554 -14.019   4.644  1.00  0.00     0.010 A 
BRANCH  21  26
HETATM   26  O   UNL     1      39.407 -11.016   2.914  1.00  0.00    -0.355 OA
HETATM   27  C   UNL     1      38.089 -10.765   2.445  1.00  0.00     0.210 C 
ENDBRANCH  21  26
ENDBRANCH  10  20
TORSDOF 2
ENDMDL
MODEL 7
REMARK VINA RESULT:      -7.5      1.549      7.330
REMARK  2 active torsions:
REMARK  status: ('A' for Active; 'I' for Inactive)
REMARK    1  A    between atoms: C_10  and  C_11 
REMARK    2  A    between atoms: C_12  and  O_13 
ROOT
HETATM    1  C   UNL     1      44.748 -21.012   3.595  1.00  0.00     0.076 C 
HETATM    2  C   UNL     1      44.413 -19.718   4.220  1.00  0.00     0.050 A 
HETATM    3  O   UNL     1      43.437 -18.981   3.621  1.00  0.00    -0.312 OA
HETATM    4  C   UNL     1      43.274 -17.831   4.352  1.00  0.00     0.121 A 
HETATM    5  C   UNL     1      42.314 -16.828   4.019  1.00  0.00     0.163 A 
HETATM    6  N   UNL     1      42.118 -15.702   4.670  1.00  0.00    -0.221 NA
HETATM    7  C   UNL     1      41.059 -15.075   4.036  1.00  0.00     0.149 A 
HETATM    8  C   UNL     1      40.620 -15.854   2.975  1.00  0.00     0.046 A 
HETATM    9  C   UNL     1      39.448 -15.686   2.077  1.00  0.00     0.070 C 
HETATM   10  C   UNL     1      39.353 -14.308   1.390  1.00  0.00     0.045 C 
HETATM   11  C   UNL     1      40.095 -13.148   2.090  1.00  0.00     0.132 C 
HETATM   12  N   UNL     1      39.834 -13.040   3.515  1.00  0.00    -0.355 N 
HETATM   13  C   UNL     1      40.482 -13.799   4.471  1.00  0.00     0.272 C 
HETATM   14  O   UNL     1      40.548 -13.377   5.624  1.00  0.00    -0.266 OA
HETATM   15  N   UNL     1      41.445 -16.950   2.968  1.00  0.00    -0.340 N 
HETATM   16  H   UNL     1      41.400 -17.749   2.349  1.00  0.00     0.167 HD
HETATM   17  C   UNL     1      44.159 -17.851   5.415  1.00  0.00     0.043 A 
HETATM   18  C   UNL     1      44.888 -19.061   5.333  1.00  0.00     0.035 A 
HETATM   19  H   UNL     1      39.552 -12.140   3.882  1.00  0.00     0.162 HD
ENDROOT
BRANCH  10  20
HETATM   20  C   UNL     1      39.738 -14.417  -0.088  1.00  0.00    -0.019 A 
HETATM   21  C   UNL     1      38.968 -13.778  -1.087  1.00  0.00     0.074 A 
HETATM   22  C   UNL     1      39.347 -13.888  -2.430  1.00  0.00     0.037 A 
HETATM   23  C   UNL     1      40.466 -14.637  -2.794  1.00  0.00     0.003 A 
HETATM   24  C   UNL     1      41.212 -15.293  -1.822  1.00  0.00     0.001 A 
HETATM   25  C   UNL     1      40.847 -15.190  -0.479  1.00  0.00     0.010 A 
BRANCH  21  26
HETATM   26  O   UNL     1      37.872 -13.082  -0.651  1.00  0.00    -0.355 OA
HETATM   27  C   UNL     1      37.355 -12.063  -1.498  1.00  0.00     0.210 C 
ENDBRANCH  21  26
ENDBRANCH  10  20
TORSDOF 2
ENDMDL
MODEL 8
REMARK VINA RESULT:      -7.4      2.397      7.187
REMARK  2 active torsions:
REMARK  status: ('A' for Active; 'I' for Inactive)
REMARK    1  A    between atoms: C_10  and  C_11 
REMARK    2  A    between atoms: C_12  and  O_13 
ROOT
HETATM    1  C   UNL     1      43.997 -21.922   1.506  1.00  0.00     0.076 C 
HETATM    2  C   UNL     1      44.076 -20.792   2.453  1.00  0.00     0.050 A 
HETATM    3  O   UNL     1      43.432 -19.647   2.097  1.00  0.00    -0.312 OA
HETATM    4  C   UNL     1      43.620 -18.732   3.103  1.00  0.00     0.121 A 
HETATM    5  C   UNL     1      43.066 -17.417   3.071  1.00  0.00     0.163 A 
HETATM    6  N   UNL     1      43.219 -16.493   3.995  1.00  0.00    -0.221 NA
HETATM    7  C   UNL     1      42.463 -15.410   3.580  1.00  0.00     0.149 A 
HETATM    8  C   UNL     1      41.847 -15.704   2.371  1.00  0.00     0.046 A 
HETATM    9  C   UNL     1      40.847 -14.934   1.588  1.00  0.00     0.070 C 
HETATM   10  C   UNL     1      41.250 -13.477   1.280  1.00  0.00     0.045 C 
HETATM   11  C   UNL     1      42.295 -12.847   2.226  1.00  0.00     0.132 C 
HETATM   12  N   UNL     1      42.009 -13.022   3.640  1.00  0.00    -0.355 N 
HETATM   13  C   UNL     1      42.318 -14.169   4.347  1.00  0.00     0.272 C 
HETATM   14  O   UNL     1      42.459 -14.099   5.566  1.00  0.00    -0.266 OA
HETATM   15  N   UNL     1      42.262 -16.972   2.055  1.00  0.00    -0.340 N 
HETATM   16  H   UNL     1      41.989 -17.527   1.255  1.00  0.00     0.167 HD
HETATM   17  C   UNL     1      44.391 -19.314   4.093  1.00  0.00     0.043 A 
HETATM   18  C   UNL     1      44.682 -20.635   3.679  1.00  0.00     0.035 A 
HETATM   19  H   UNL     1      42.022 -12.203   4.235  1.00  0.00     0.162 HD
ENDROOT
BRANCH  10  20
HETATM   20  C   UNL     1      41.654 -13.331  -0.190  1.00  0.00    -0.019 A 
HETATM   21  C   UNL     1      42.320 -12.171  -0.646  1.00  0.00     0.074 A 
HETATM   22  C   UNL     1      42.685 -12.067  -1.994  1.00  0.00     0.037 A 
HETATM   23  C   UNL     1      42.382 -13.089  -2.894  1.00  0.00     0.003 A 
HETATM   24  C   UNL     1      41.700 -14.220  -2.460  1.00  0.00     0.001 A 
HETATM   25  C   UNL     1      41.333 -14.338  -1.119  1.00  0.00     0.010 A 
BRANCH  21  26
HETATM   26  O   UNL     1      42.561 -11.204   0.293  1.00  0.00    -0.355 OA
HETATM   27  C   UNL     1      42.163  -9.873  -0.010  1.00  0.00     0.210 C 
ENDBRANCH  21  26
ENDBRANCH  10  20
TORSDOF 2
ENDMDL
MODEL 9
REMARK VINA RESULT:      -7.2      2.551      4.328
REMARK  2 active torsions:
REMARK  status: ('A' for Active; 'I' for Inactive)
REMARK    1  A    between atoms: C_10  and  C_11 
REMARK    2  A    between atoms: C_12  and  O_13 
ROOT
HETATM    1  C   UNL     1      38.251 -10.013   4.706  1.00  0.00     0.076 C 
HETATM    2  C   UNL     1      38.788 -10.636   3.481  1.00  0.00     0.050 A 
HETATM    3  O   UNL     1      39.294 -11.895   3.603  1.00  0.00    -0.312 OA
HETATM    4  C   UNL     1      39.731 -12.292   2.364  1.00  0.00     0.121 A 
HETATM    5  C   UNL     1      40.307 -13.574   2.118  1.00  0.00     0.163 A 
HETATM    6  N   UNL     1      40.755 -14.008   0.959  1.00  0.00    -0.221 NA
HETATM    7  C   UNL     1      41.164 -15.313   1.173  1.00  0.00     0.149 A 
HETATM    8  C   UNL     1      40.953 -15.657   2.501  1.00  0.00     0.046 A 
HETATM    9  C   UNL     1      41.106 -16.964   3.192  1.00  0.00     0.070 C 
HETATM   10  C   UNL     1      42.481 -17.637   3.007  1.00  0.00     0.045 C 
HETATM   11  C   UNL     1      43.285 -17.206   1.760  1.00  0.00     0.132 C 
HETATM   12  N   UNL     1      42.526 -17.219   0.522  1.00  0.00    -0.355 N 
HETATM   13  C   UNL     1      41.693 -16.189   0.124  1.00  0.00     0.272 C 
HETATM   14  O   UNL     1      41.441 -16.054  -1.072  1.00  0.00    -0.266 OA
HETATM   15  N   UNL     1      40.432 -14.533   3.087  1.00  0.00    -0.340 N 
HETATM   16  H   UNL     1      40.126 -14.424   4.045  1.00  0.00     0.167 HD
HETATM   17  C   UNL     1      39.497 -11.268   1.462  1.00  0.00     0.043 A 
HETATM   18  C   UNL     1      38.891 -10.208   2.177  1.00  0.00     0.035 A 
HETATM   19  H   UNL     1      42.916 -17.710  -0.273  1.00  0.00     0.162 HD
ENDROOT
BRANCH  10  20
HETATM   20  C   UNL     1      43.314 -17.520   4.286  1.00  0.00    -0.019 A 
HETATM   21  C   UNL     1      44.152 -18.577   4.705  1.00  0.00     0.074 A 
HETATM   22  C   UNL     1      44.909 -18.441   5.876  1.00  0.00     0.037 A 
HETATM   23  C   UNL     1      44.828 -17.278   6.642  1.00  0.00     0.003 A 
HETATM   24  C   UNL     1      43.984 -16.245   6.254  1.00  0.00     0.001 A 
HETATM   25  C   UNL     1      43.226 -16.366   5.089  1.00  0.00     0.010 A 
BRANCH  21  26
HETATM   26  O   UNL     1      44.159 -19.694   3.912  1.00  0.00    -0.355 OA
HETATM   27  C   UNL     1      45.046 -20.749   4.259  1.00  0.00     0.210 C 
ENDBRANCH  21  26
ENDBRANCH  10  20
TORSDOF 2
ENDMDL
MODEL 10
REMARK VINA RESULT:      -7.2      1.624      6.824
REMARK  2 active torsions:
REMARK  status: ('A' for Active; 'I' for Inactive)
REMARK    1  A    between atoms: C_10  and  C_11 
REMARK    2  A    between atoms: C_12  and  O_13 
ROOT
HETATM    1  C   UNL     1      43.816 -21.680   1.603  1.00  0.00     0.076 C 
HETATM    2  C   UNL     1      43.811 -20.477   2.459  1.00  0.00     0.050 A 
HETATM    3  O   UNL     1      42.838 -19.556   2.218  1.00  0.00    -0.312 OA
HETATM    4  C   UNL     1      43.002 -18.530   3.115  1.00  0.00     0.121 A 
HETATM    5  C   UNL     1      42.141 -17.393   3.161  1.00  0.00     0.163 A 
HETATM    6  N   UNL     1      42.253 -16.374   3.986  1.00  0.00    -0.221 NA
HETATM    7  C   UNL     1      41.177 -15.546   3.716  1.00  0.00     0.149 A 
HETATM    8  C   UNL     1      40.408 -16.093   2.698  1.00  0.00     0.046 A 
HETATM    9  C   UNL     1      39.101 -15.660   2.140  1.00  0.00     0.070 C 
HETATM   10  C   UNL     1      39.046 -14.187   1.688  1.00  0.00     0.045 C 
HETATM   11  C   UNL     1      40.079 -13.239   2.337  1.00  0.00     0.132 C 
HETATM   12  N   UNL     1      40.159 -13.339   3.785  1.00  0.00    -0.355 N 
HETATM   13  C   UNL     1      40.893 -14.306   4.445  1.00  0.00     0.272 C 
HETATM   14  O   UNL     1      41.273 -14.087   5.594  1.00  0.00    -0.266 OA
HETATM   15  N   UNL     1      41.051 -17.252   2.344  1.00  0.00    -0.340 N 
HETATM   16  H   UNL     1      40.760 -17.930   1.653  1.00  0.00     0.167 HD
HETATM   17  C   UNL     1      44.091 -18.815   3.920  1.00  0.00     0.043 A 
HETATM   18  C   UNL     1      44.608 -20.064   3.502  1.00  0.00     0.035 A 
HETATM   19  H   UNL     1      40.094 -12.486   4.327  1.00  0.00     0.162 HD
ENDROOT
BRANCH  10  20
HETATM   20  C   UNL     1      39.073 -14.092   0.160  1.00  0.00    -0.019 A 
HETATM   21  C   UNL     1      40.246 -14.395  -0.566  1.00  0.00     0.074 A 
HETATM   22  C   UNL     1      40.240 -14.307  -1.963  1.00  0.00     0.037 A 
HETATM   23  C   UNL     1      39.092 -13.904  -2.645  1.00  0.00     0.003 A 
HETATM   24  C   UNL     1      37.941 -13.574  -1.937  1.00  0.00     0.001 A 
HETATM   25  C   UNL     1      37.933 -13.660  -0.545  1.00  0.00     0.010 A 
BRANCH  21  26
HETATM   26  O   UNL     1      41.338 -14.761   0.177  1.00  0.00    -0.355 OA
HETATM   27  C   UNL     1      42.109 -15.864  -0.278  1.00  0.00     0.210 C 
ENDBRANCH  21  26
ENDBRANCH  10  20
TORSDOF 2
ENDMDL
