MODEL 1
REMARK VINA RESULT:      -8.0      0.000      0.000
REMARK  7 active torsions:
REMARK  status: ('A' for Active; 'I' for Inactive)
REMARK    1  A    between atoms: C_2  and  O_3 
REMARK    2  A    between atoms: O_3  and  C_4 
REMARK       I    between atoms: C_4  and  N_5 
REMARK    3  A    between atoms: C_8  and  N_9 
REMARK    4  A    between atoms: C_18  and  C_19 
REMARK    5  A    between atoms: C_19  and  N_20 
REMARK    6  A    between atoms: C_22  and  C_23 
REMARK    7  A    between atoms: C_23  and  O_24 
ROOT
HETATM    1  N   UNL     1      41.127 -14.490   4.481  1.00  0.00    -0.061 N 
HETATM    2  H   UNL     1      40.171 -14.127   4.367  1.00  0.00     0.280 HD
HETATM    3  C   UNL     1      41.006 -15.549   5.586  1.00  0.00     0.276 C 
HETATM    4  C   UNL     1      42.256 -16.350   5.840  1.00  0.00     0.002 A 
HETATM    5  C   UNL     1      43.404 -15.714   6.312  1.00  0.00     0.076 A 
HETATM    6  O   UNL     1      43.419 -14.375   6.572  1.00  0.00    -0.349 OA
HETATM    7  C   UNL     1      43.359 -13.602   5.364  1.00  0.00     0.203 C 
HETATM    8  C   UNL     1      41.910 -13.276   5.003  1.00  0.00     0.262 C 
HETATM    9  C   UNL     1      42.309 -17.741   5.615  1.00  0.00     0.020 A 
HETATM   10  C   UNL     1      43.491 -18.490   5.834  1.00  0.00    -0.032 A 
HETATM   11  C   UNL     1      44.617 -17.802   6.306  1.00  0.00     0.011 A 
HETATM   12  C   UNL     1      44.566 -16.432   6.573  1.00  0.00     0.038 A 
ENDROOT
BRANCH   1  13
HETATM   13  C   UNL     1      41.561 -15.044   3.112  1.00  0.00     0.191 C 
HETATM   14  C   UNL     1      40.528 -16.032   2.554  1.00  0.00     0.053 C 
HETATM   15  C   UNL     1      39.216 -15.351   2.191  1.00  0.00     0.130 C 
HETATM   16  N   UNL     1      39.406 -14.181   1.351  1.00  0.00    -0.328 N 
HETATM   17  C   UNL     1      38.280 -13.743   0.645  1.00  0.00     0.362 C 
HETATM   18  C   UNL     1      40.485 -13.248   1.657  1.00  0.00     0.130 C 
HETATM   19  O   UNL     1      37.217 -14.352   0.649  1.00  0.00    -0.238 OA
HETATM   20  C   UNL     1      41.775 -13.950   2.059  1.00  0.00     0.053 C 
BRANCH  17  21
HETATM   21  O   UNL     1      38.498 -12.576  -0.013  1.00  0.00    -0.304 OA
BRANCH  21  22
HETATM   22  C   UNL     1      38.215 -12.584  -1.424  1.00  0.00     0.176 C 
HETATM   23  C   UNL     1      39.315 -13.289  -2.199  1.00  0.00     0.034 C 
ENDBRANCH  21  22
ENDBRANCH  17  21
ENDBRANCH   1  13
BRANCH  10  24
HETATM   24  C   UNL     1      43.560 -19.945   5.419  1.00  0.00     0.274 C 
BRANCH  24  25
HETATM   25  N   UNL     1      44.687 -20.462   4.547  1.00  0.00    -0.054 N 
HETATM   26  H   UNL     1      45.449 -19.794   4.729  1.00  0.00     0.281 HD
HETATM   27  C   UNL     1      44.535 -20.490   3.014  1.00  0.00     0.287 C 
HETATM   28  C   UNL     1      44.011 -21.886   2.757  1.00  0.00     0.045 C 
HETATM   29  C   UNL     1      44.734 -22.754   3.780  1.00  0.00     0.030 C 
HETATM   30  C   UNL     1      45.219 -21.830   4.890  1.00  0.00     0.236 C 
BRANCH  27  31
HETATM   31  C   UNL     1      43.748 -19.372   2.338  1.00  0.00     0.289 C 
HETATM   32  O   UNL     1      42.631 -19.497   1.856  1.00  0.00    -0.263 OA
BRANCH  31  33
HETATM   33  O   UNL     1      44.456 -18.215   2.411  1.00  0.00    -0.325 OA
HETATM   34  C   UNL     1      44.132 -17.220   1.432  1.00  0.00     0.213 C 
ENDBRANCH  31  33
ENDBRANCH  27  31
ENDBRANCH  24  25
ENDBRANCH  10  24
TORSDOF 7
ENDMDL
MODEL 2
REMARK VINA RESULT:      -7.6      3.863      8.737
REMARK  7 active torsions:
REMARK  status: ('A' for Active; 'I' for Inactive)
REMARK    1  A    between atoms: C_2  and  O_3 
REMARK    2  A    between atoms: O_3  and  C_4 
REMARK       I    between atoms: C_4  and  N_5 
REMARK    3  A    between atoms: C_8  and  N_9 
REMARK    4  A    between atoms: C_18  and  C_19 
REMARK    5  A    between atoms: C_19  and  N_20 
REMARK    6  A    between atoms: C_22  and  C_23 
REMARK    7  A    between atoms: C_23  and  O_24 
ROOT
HETATM    1  N   UNL     1      40.839 -15.077   4.319  1.00  0.00    -0.061 N 
HETATM    2  H   UNL     1      40.703 -16.090   4.435  1.00  0.00     0.280 HD
HETATM    3  C   UNL     1      40.172 -14.457   5.555  1.00  0.00     0.276 C 
HETATM    4  C   UNL     1      40.366 -12.971   5.707  1.00  0.00     0.002 A 
HETATM    5  C   UNL     1      39.840 -12.102   4.752  1.00  0.00     0.076 A 
HETATM    6  O   UNL     1      39.127 -12.565   3.684  1.00  0.00    -0.349 OA
HETATM    7  C   UNL     1      39.969 -13.253   2.748  1.00  0.00     0.203 C 
HETATM    8  C   UNL     1      40.019 -14.748   3.062  1.00  0.00     0.262 C 
HETATM    9  C   UNL     1      41.072 -12.418   6.795  1.00  0.00     0.020 A 
HETATM   10  C   UNL     1      41.272 -11.022   6.925  1.00  0.00    -0.032 A 
HETATM   11  C   UNL     1      40.725 -10.193   5.937  1.00  0.00     0.011 A 
HETATM   12  C   UNL     1      39.988 -10.724   4.876  1.00  0.00     0.038 A 
ENDROOT
BRANCH   1  13
HETATM   13  C   UNL     1      42.357 -14.836   4.226  1.00  0.00     0.191 C 
HETATM   14  C   UNL     1      43.094 -15.437   5.429  1.00  0.00     0.053 C 
HETATM   15  C   UNL     1      43.040 -16.957   5.439  1.00  0.00     0.130 C 
HETATM   16  N   UNL     1      43.439 -17.540   4.168  1.00  0.00    -0.328 N 
HETATM   17  C   UNL     1      43.810 -18.889   4.202  1.00  0.00     0.362 C 
HETATM   18  C   UNL     1      42.960 -16.945   2.926  1.00  0.00     0.130 C 
HETATM   19  O   UNL     1      43.891 -19.528   5.243  1.00  0.00    -0.238 OA
HETATM   20  C   UNL     1      42.982 -15.422   2.955  1.00  0.00     0.053 C 
BRANCH  17  21
HETATM   21  O   UNL     1      44.045 -19.396   2.965  1.00  0.00    -0.304 OA
BRANCH  21  22
HETATM   22  C   UNL     1      44.770 -20.638   2.919  1.00  0.00     0.176 C 
HETATM   23  C   UNL     1      44.150 -21.598   1.920  1.00  0.00     0.034 C 
ENDBRANCH  21  22
ENDBRANCH  17  21
ENDBRANCH   1  13
BRANCH  10  24
HETATM   24  C   UNL     1      42.179 -10.479   8.011  1.00  0.00     0.274 C 
BRANCH  24  25
HETATM   25  N   UNL     1      42.765 -11.387   9.074  1.00  0.00    -0.054 N 
HETATM   26  H   UNL     1      42.230 -12.259   8.958  1.00  0.00     0.281 HD
HETATM   27  C   UNL     1      42.629 -11.027  10.565  1.00  0.00     0.287 C 
HETATM   28  C   UNL     1      43.908 -10.268  10.843  1.00  0.00     0.045 C 
HETATM   29  C   UNL     1      44.960 -10.982  10.002  1.00  0.00     0.030 C 
HETATM   30  C   UNL     1      44.220 -11.747   8.911  1.00  0.00     0.236 C 
BRANCH  27  31
HETATM   31  C   UNL     1      41.354 -10.335  11.036  1.00  0.00     0.289 C 
HETATM   32  O   UNL     1      41.193  -9.123  11.081  1.00  0.00    -0.263 OA
BRANCH  31  33
HETATM   33  O   UNL     1      40.417 -11.272  11.337  1.00  0.00    -0.325 OA
HETATM   34  C   UNL     1      40.342 -11.662  12.714  1.00  0.00     0.213 C 
ENDBRANCH  31  33
ENDBRANCH  27  31
ENDBRANCH  24  25
ENDBRANCH  10  24
TORSDOF 7
ENDMDL
MODEL 3
REMARK VINA RESULT:      -7.5      2.922      7.373
REMARK  7 active torsions:
REMARK  status: ('A' for Active; 'I' for Inactive)
REMARK    1  A    between atoms: C_2  and  O_3 
REMARK    2  A    between atoms: O_3  and  C_4 
REMARK       I    between atoms: C_4  and  N_5 
REMARK    3  A    between atoms: C_8  and  N_9 
REMARK    4  A    between atoms: C_18  and  C_19 
REMARK    5  A    between atoms: C_19  and  N_20 
REMARK    6  A    between atoms: C_22  and  C_23 
REMARK    7  A    between atoms: C_23  and  O_24 
ROOT
HETATM    1  N   UNL     1      42.921 -15.630   6.751  1.00  0.00    -0.061 N 
HETATM    2  H   UNL     1      42.645 -15.185   7.637  1.00  0.00     0.280 HD
HETATM    3  C   UNL     1      41.604 -16.142   6.152  1.00  0.00     0.276 C 
HETATM    4  C   UNL     1      41.715 -16.710   4.761  1.00  0.00     0.002 A 
HETATM    5  C   UNL     1      42.481 -17.852   4.536  1.00  0.00     0.076 A 
HETATM    6  O   UNL     1      43.124 -18.489   5.558  1.00  0.00    -0.349 OA
HETATM    7  C   UNL     1      44.228 -17.716   6.050  1.00  0.00     0.203 C 
HETATM    8  C   UNL     1      43.786 -16.817   7.204  1.00  0.00     0.262 C 
HETATM    9  C   UNL     1      41.061 -16.118   3.660  1.00  0.00     0.020 A 
HETATM   10  C   UNL     1      41.183 -16.640   2.349  1.00  0.00    -0.032 A 
HETATM   11  C   UNL     1      41.968 -17.788   2.178  1.00  0.00     0.011 A 
HETATM   12  C   UNL     1      42.586 -18.408   3.266  1.00  0.00     0.038 A 
ENDROOT
BRANCH   1  13
HETATM   13  C   UNL     1      43.628 -14.553   5.909  1.00  0.00     0.191 C 
HETATM   14  C   UNL     1      42.692 -13.376   5.606  1.00  0.00     0.053 C 
HETATM   15  C   UNL     1      42.338 -12.584   6.856  1.00  0.00     0.130 C 
HETATM   16  N   UNL     1      43.508 -12.205   7.629  1.00  0.00    -0.328 N 
HETATM   17  C   UNL     1      43.328 -11.157   8.540  1.00  0.00     0.362 C 
HETATM   18  C   UNL     1      44.575 -13.178   7.836  1.00  0.00     0.130 C 
HETATM   19  O   UNL     1      42.283 -10.525   8.625  1.00  0.00    -0.238 OA
HETATM   20  C   UNL     1      44.884 -13.988   6.585  1.00  0.00     0.053 C 
BRANCH  17  21
HETATM   21  O   UNL     1      44.422 -10.946   9.315  1.00  0.00    -0.304 OA
BRANCH  21  22
HETATM   22  C   UNL     1      44.167 -10.574  10.681  1.00  0.00     0.176 C 
HETATM   23  C   UNL     1      43.898 -11.796  11.541  1.00  0.00     0.034 C 
ENDBRANCH  21  22
ENDBRANCH  17  21
ENDBRANCH   1  13
BRANCH  10  24
HETATM   24  C   UNL     1      40.610 -15.880   1.170  1.00  0.00     0.274 C 
BRANCH  24  25
HETATM   25  N   UNL     1      41.511 -15.256   0.123  1.00  0.00    -0.054 N 
HETATM   26  H   UNL     1      42.421 -15.701   0.302  1.00  0.00     0.281 HD
HETATM   27  C   UNL     1      41.793 -13.742   0.143  1.00  0.00     0.287 C 
HETATM   28  C   UNL     1      40.730 -13.193  -0.783  1.00  0.00     0.045 C 
HETATM   29  C   UNL     1      40.603 -14.246  -1.877  1.00  0.00     0.030 C 
HETATM   30  C   UNL     1      41.161 -15.547  -1.314  1.00  0.00     0.236 C 
BRANCH  27  31
HETATM   31  C   UNL     1      41.898 -13.036   1.492  1.00  0.00     0.289 C 
HETATM   32  O   UNL     1      42.880 -13.066   2.220  1.00  0.00    -0.263 OA
BRANCH  31  33
HETATM   33  O   UNL     1      40.761 -12.329   1.720  1.00  0.00    -0.325 OA
HETATM   34  C   UNL     1      40.126 -12.555   2.984  1.00  0.00     0.213 C 
ENDBRANCH  31  33
ENDBRANCH  27  31
ENDBRANCH  24  25
ENDBRANCH  10  24
TORSDOF 7
ENDMDL
MODEL 4
REMARK VINA RESULT:      -7.4      2.937      7.439
REMARK  7 active torsions:
REMARK  status: ('A' for Active; 'I' for Inactive)
REMARK    1  A    between atoms: C_2  and  O_3 
REMARK    2  A    between atoms: O_3  and  C_4 
REMARK       I    between atoms: C_4  and  N_5 
REMARK    3  A    between atoms: C_8  and  N_9 
REMARK    4  A    between atoms: C_18  and  C_19 
REMARK    5  A    between atoms: C_19  and  N_20 
REMARK    6  A    between atoms: C_22  and  C_23 
REMARK    7  A    between atoms: C_23  and  O_24 
ROOT
HETATM    1  N   UNL     1      42.818 -15.578   6.897  1.00  0.00    -0.061 N 
HETATM    2  H   UNL     1      42.449 -15.045   7.696  1.00  0.00     0.280 HD
HETATM    3  C   UNL     1      41.570 -16.019   6.120  1.00  0.00     0.276 C 
HETATM    4  C   UNL     1      41.845 -16.696   4.803  1.00  0.00     0.002 A 
HETATM    5  C   UNL     1      42.524 -17.914   4.777  1.00  0.00     0.076 A 
HETATM    6  O   UNL     1      42.931 -18.525   5.927  1.00  0.00    -0.349 OA
HETATM    7  C   UNL     1      44.012 -17.815   6.548  1.00  0.00     0.203 C 
HETATM    8  C   UNL     1      43.482 -16.797   7.557  1.00  0.00     0.262 C 
HETATM    9  C   UNL     1      41.436 -16.135   3.575  1.00  0.00     0.020 A 
HETATM   10  C   UNL     1      41.714 -16.762   2.337  1.00  0.00    -0.032 A 
HETATM   11  C   UNL     1      42.402 -17.983   2.366  1.00  0.00     0.011 A 
HETATM   12  C   UNL     1      42.776 -18.570   3.577  1.00  0.00     0.038 A 
ENDROOT
BRANCH   1  13
HETATM   13  C   UNL     1      43.751 -14.631   6.120  1.00  0.00     0.191 C 
HETATM   14  C   UNL     1      43.017 -13.359   5.679  1.00  0.00     0.053 C 
HETATM   15  C   UNL     1      42.624 -12.480   6.858  1.00  0.00     0.130 C 
HETATM   16  N   UNL     1      43.736 -12.221   7.757  1.00  0.00    -0.328 N 
HETATM   17  C   UNL     1      43.589 -11.125   8.614  1.00  0.00     0.362 C 
HETATM   18  C   UNL     1      44.637 -13.311   8.113  1.00  0.00     0.130 C 
HETATM   19  O   UNL     1      42.631 -10.364   8.558  1.00  0.00    -0.238 OA
HETATM   20  C   UNL     1      44.982 -14.202   6.928  1.00  0.00     0.053 C 
BRANCH  17  21
HETATM   21  O   UNL     1      44.604 -11.022   9.509  1.00  0.00    -0.304 OA
BRANCH  21  22
HETATM   22  C   UNL     1      44.233 -10.626  10.842  1.00  0.00     0.176 C 
HETATM   23  C   UNL     1      43.633 -11.789  11.612  1.00  0.00     0.034 C 
ENDBRANCH  21  22
ENDBRANCH  17  21
ENDBRANCH   1  13
BRANCH  10  24
HETATM   24  C   UNL     1      41.412 -16.047   1.035  1.00  0.00     0.274 C 
BRANCH  24  25
HETATM   25  N   UNL     1      40.025 -15.516   0.732  1.00  0.00    -0.054 N 
HETATM   26  H   UNL     1      39.596 -16.277   0.189  1.00  0.00     0.281 HD
HETATM   27  C   UNL     1      39.847 -14.254  -0.133  1.00  0.00     0.287 C 
HETATM   28  C   UNL     1      39.790 -13.148   0.899  1.00  0.00     0.045 C 
HETATM   29  C   UNL     1      39.031 -13.764   2.069  1.00  0.00     0.030 C 
HETATM   30  C   UNL     1      39.131 -15.277   1.923  1.00  0.00     0.236 C 
BRANCH  27  31
HETATM   31  C   UNL     1      40.821 -14.012  -1.281  1.00  0.00     0.289 C 
HETATM   32  O   UNL     1      41.914 -13.474  -1.169  1.00  0.00    -0.263 OA
BRANCH  31  33
HETATM   33  O   UNL     1      40.309 -14.540  -2.424  1.00  0.00    -0.325 OA
HETATM   34  C   UNL     1      40.964 -15.715  -2.919  1.00  0.00     0.213 C 
ENDBRANCH  31  33
ENDBRANCH  27  31
ENDBRANCH  24  25
ENDBRANCH  10  24
TORSDOF 7
ENDMDL
MODEL 5
REMARK VINA RESULT:      -7.4      2.352      8.055
REMARK  7 active torsions:
REMARK  status: ('A' for Active; 'I' for Inactive)
REMARK    1  A    between atoms: C_2  and  O_3 
REMARK    2  A    between atoms: O_3  and  C_4 
REMARK       I    between atoms: C_4  and  N_5 
REMARK    3  A    between atoms: C_8  and  N_9 
REMARK    4  A    between atoms: C_18  and  C_19 
REMARK    5  A    between atoms: C_19  and  N_20 
REMARK    6  A    between atoms: C_22  and  C_23 
REMARK    7  A    between atoms: C_23  and  O_24 
ROOT
HETATM    1  N   UNL     1      42.603 -15.407   4.007  1.00  0.00    -0.061 N 
HETATM    2  H   UNL     1      43.535 -15.825   4.133  1.00  0.00     0.280 HD
HETATM    3  C   UNL     1      42.804 -14.340   2.922  1.00  0.00     0.276 C 
HETATM    4  C   UNL     1      41.542 -13.677   2.437  1.00  0.00     0.002 A 
HETATM    5  C   UNL     1      40.779 -12.910   3.317  1.00  0.00     0.076 A 
HETATM    6  O   UNL     1      41.162 -12.725   4.614  1.00  0.00    -0.349 OA
HETATM    7  C   UNL     1      41.028 -13.931   5.381  1.00  0.00     0.203 C 
HETATM    8  C   UNL     1      42.329 -14.733   5.359  1.00  0.00     0.262 C 
HETATM    9  C   UNL     1      41.094 -13.806   1.106  1.00  0.00     0.020 A 
HETATM   10  C   UNL     1      39.896 -13.200   0.657  1.00  0.00    -0.032 A 
HETATM   11  C   UNL     1      39.165 -12.442   1.583  1.00  0.00     0.011 A 
HETATM   12  C   UNL     1      39.619 -12.272   2.893  1.00  0.00     0.038 A 
ENDROOT
BRANCH   1  13
HETATM   13  C   UNL     1      41.651 -16.550   3.608  1.00  0.00     0.191 C 
HETATM   14  C   UNL     1      42.128 -17.258   2.334  1.00  0.00     0.053 C 
HETATM   15  C   UNL     1      43.426 -18.022   2.550  1.00  0.00     0.130 C 
HETATM   16  N   UNL     1      43.375 -18.895   3.710  1.00  0.00    -0.328 N 
HETATM   17  C   UNL     1      44.333 -19.915   3.753  1.00  0.00     0.362 C 
HETATM   18  C   UNL     1      42.769 -18.410   4.945  1.00  0.00     0.130 C 
HETATM   19  O   UNL     1      45.112 -20.131   2.833  1.00  0.00    -0.238 OA
HETATM   20  C   UNL     1      41.495 -17.613   4.703  1.00  0.00     0.053 C 
BRANCH  17  21
HETATM   21  O   UNL     1      44.308 -20.606   4.920  1.00  0.00    -0.304 OA
BRANCH  21  22
HETATM   22  C   UNL     1      45.190 -21.739   5.003  1.00  0.00     0.176 C 
HETATM   23  C   UNL     1      44.554 -22.975   4.390  1.00  0.00     0.034 C 
ENDBRANCH  21  22
ENDBRANCH  17  21
ENDBRANCH   1  13
BRANCH  10  24
HETATM   24  C   UNL     1      39.361 -13.501  -0.728  1.00  0.00     0.274 C 
BRANCH  24  25
HETATM   25  N   UNL     1      39.933 -12.825  -1.957  1.00  0.00    -0.054 N 
HETATM   26  H   UNL     1      39.103 -12.658  -2.541  1.00  0.00     0.281 HD
HETATM   27  C   UNL     1      40.922 -13.576  -2.869  1.00  0.00     0.287 C 
HETATM   28  C   UNL     1      42.267 -13.171  -2.308  1.00  0.00     0.045 C 
HETATM   29  C   UNL     1      42.081 -11.716  -1.896  1.00  0.00     0.030 C 
HETATM   30  C   UNL     1      40.584 -11.483  -1.735  1.00  0.00     0.236 C 
BRANCH  27  31
HETATM   31  C   UNL     1      40.733 -15.077  -3.071  1.00  0.00     0.289 C 
HETATM   32  O   UNL     1      41.132 -15.940  -2.301  1.00  0.00    -0.263 OA
BRANCH  31  33
HETATM   33  O   UNL     1      40.007 -15.292  -4.199  1.00  0.00    -0.325 OA
HETATM   34  C   UNL     1      38.935 -16.235  -4.082  1.00  0.00     0.213 C 
ENDBRANCH  31  33
ENDBRANCH  27  31
ENDBRANCH  24  25
ENDBRANCH  10  24
TORSDOF 7
ENDMDL
MODEL 6
REMARK VINA RESULT:      -7.4      2.712      5.783
REMARK  7 active torsions:
REMARK  status: ('A' for Active; 'I' for Inactive)
REMARK    1  A    between atoms: C_2  and  O_3 
REMARK    2  A    between atoms: O_3  and  C_4 
REMARK       I    between atoms: C_4  and  N_5 
REMARK    3  A    between atoms: C_8  and  N_9 
REMARK    4  A    between atoms: C_18  and  C_19 
REMARK    5  A    between atoms: C_19  and  N_20 
REMARK    6  A    between atoms: C_22  and  C_23 
REMARK    7  A    between atoms: C_23  and  O_24 
ROOT
HETATM    1  N   UNL     1      40.788 -12.943   3.353  1.00  0.00    -0.061 N 
HETATM    2  H   UNL     1      40.992 -11.980   3.652  1.00  0.00     0.280 HD
HETATM    3  C   UNL     1      41.972 -13.324   2.453  1.00  0.00     0.276 C 
HETATM    4  C   UNL     1      41.993 -14.761   2.002  1.00  0.00     0.002 A 
HETATM    5  C   UNL     1      40.972 -15.248   1.187  1.00  0.00     0.076 A 
HETATM    6  O   UNL     1      39.954 -14.442   0.765  1.00  0.00    -0.349 OA
HETATM    7  C   UNL     1      39.073 -14.097   1.844  1.00  0.00     0.203 C 
HETATM    8  C   UNL     1      39.515 -12.793   2.507  1.00  0.00     0.262 C 
HETATM    9  C   UNL     1      43.024 -15.647   2.380  1.00  0.00     0.020 A 
HETATM   10  C   UNL     1      43.031 -17.003   1.973  1.00  0.00    -0.032 A 
HETATM   11  C   UNL     1      41.979 -17.442   1.156  1.00  0.00     0.011 A 
HETATM   12  C   UNL     1      40.975 -16.565   0.741  1.00  0.00     0.038 A 
ENDROOT
BRANCH   1  13
HETATM   13  C   UNL     1      40.661 -13.791   4.632  1.00  0.00     0.191 C 
HETATM   14  C   UNL     1      41.950 -13.749   5.462  1.00  0.00     0.053 C 
HETATM   15  C   UNL     1      42.214 -12.371   6.050  1.00  0.00     0.130 C 
HETATM   16  N   UNL     1      41.060 -11.831   6.750  1.00  0.00    -0.328 N 
HETATM   17  C   UNL     1      41.320 -10.790   7.649  1.00  0.00     0.362 C 
HETATM   18  C   UNL     1      39.734 -11.972   6.159  1.00  0.00     0.130 C 
HETATM   19  O   UNL     1      42.454 -10.410   7.913  1.00  0.00    -0.238 OA
HETATM   20  C   UNL     1      39.508 -13.344   5.539  1.00  0.00     0.053 C 
BRANCH  17  21
HETATM   21  O   UNL     1      40.186 -10.252   8.166  1.00  0.00    -0.304 OA
BRANCH  21  22
HETATM   22  C   UNL     1      40.278  -9.762   9.515  1.00  0.00     0.176 C 
HETATM   23  C   UNL     1      40.085 -10.885  10.520  1.00  0.00     0.034 C 
ENDBRANCH  21  22
ENDBRANCH  17  21
ENDBRANCH   1  13
BRANCH  10  24
HETATM   24  C   UNL     1      44.058 -17.964   2.537  1.00  0.00     0.274 C 
BRANCH  24  25
HETATM   25  N   UNL     1      43.638 -19.207   3.296  1.00  0.00    -0.054 N 
HETATM   26  H   UNL     1      42.734 -19.448   2.868  1.00  0.00     0.281 HD
HETATM   27  C   UNL     1      43.361 -19.137   4.810  1.00  0.00     0.287 C 
HETATM   28  C   UNL     1      44.699 -19.508   5.411  1.00  0.00     0.045 C 
HETATM   29  C   UNL     1      45.255 -20.569   4.469  1.00  0.00     0.030 C 
HETATM   30  C   UNL     1      44.528 -20.413   3.139  1.00  0.00     0.236 C 
BRANCH  27  31
HETATM   31  C   UNL     1      42.727 -17.872   5.379  1.00  0.00     0.289 C 
HETATM   32  O   UNL     1      41.590 -17.491   5.138  1.00  0.00    -0.263 OA
BRANCH  31  33
HETATM   33  O   UNL     1      43.600 -17.277   6.235  1.00  0.00    -0.325 OA
HETATM   34  C   UNL     1      43.073 -16.924   7.520  1.00  0.00     0.213 C 
ENDBRANCH  31  33
ENDBRANCH  27  31
ENDBRANCH  24  25
ENDBRANCH  10  24
TORSDOF 7
ENDMDL
MODEL 7
REMARK VINA RESULT:      -7.2      2.390      3.639
REMARK  7 active torsions:
REMARK  status: ('A' for Active; 'I' for Inactive)
REMARK    1  A    between atoms: C_2  and  O_3 
REMARK    2  A    between atoms: O_3  and  C_4 
REMARK       I    between atoms: C_4  and  N_5 
REMARK    3  A    between atoms: C_8  and  N_9 
REMARK    4  A    between atoms: C_18  and  C_19 
REMARK    5  A    between atoms: C_19  and  N_20 
REMARK    6  A    between atoms: C_22  and  C_23 
REMARK    7  A    between atoms: C_23  and  O_24 
ROOT
HETATM    1  N   UNL     1      40.029 -13.668   1.414  1.00  0.00    -0.061 N 
HETATM    2  H   UNL     1      39.517 -13.574   0.527  1.00  0.00     0.280 HD
HETATM    3  C   UNL     1      39.363 -14.858   2.117  1.00  0.00     0.276 C 
HETATM    4  C   UNL     1      40.035 -15.306   3.389  1.00  0.00     0.002 A 
HETATM    5  C   UNL     1      40.091 -14.446   4.485  1.00  0.00     0.076 A 
HETATM    6  O   UNL     1      39.527 -13.204   4.442  1.00  0.00    -0.349 OA
HETATM    7  C   UNL     1      40.258 -12.322   3.579  1.00  0.00     0.203 C 
HETATM    8  C   UNL     1      39.695 -12.366   2.158  1.00  0.00     0.262 C 
HETATM    9  C   UNL     1      40.621 -16.583   3.513  1.00  0.00     0.020 A 
HETATM   10  C   UNL     1      41.272 -16.995   4.702  1.00  0.00    -0.032 A 
HETATM   11  C   UNL     1      41.302 -16.091   5.772  1.00  0.00     0.011 A 
HETATM   12  C   UNL     1      40.689 -14.839   5.677  1.00  0.00     0.038 A 
ENDROOT
BRANCH   1  13
HETATM   13  C   UNL     1      41.510 -13.887   1.055  1.00  0.00     0.191 C 
HETATM   14  C   UNL     1      41.694 -15.124   0.166  1.00  0.00     0.053 C 
HETATM   15  C   UNL     1      41.083 -14.938  -1.215  1.00  0.00     0.130 C 
HETATM   16  N   UNL     1      41.507 -13.702  -1.852  1.00  0.00    -0.328 N 
HETATM   17  C   UNL     1      41.338 -13.639  -3.240  1.00  0.00     0.362 C 
HETATM   18  C   UNL     1      41.563 -12.475  -1.066  1.00  0.00     0.130 C 
HETATM   19  O   UNL     1      40.949 -14.591  -3.904  1.00  0.00    -0.238 OA
HETATM   20  C   UNL     1      42.137 -12.692   0.327  1.00  0.00     0.053 C 
BRANCH  17  21
HETATM   21  O   UNL     1      41.633 -12.415  -3.746  1.00  0.00    -0.304 OA
BRANCH  21  22
HETATM   22  C   UNL     1      40.526 -11.673  -4.289  1.00  0.00     0.176 C 
HETATM   23  C   UNL     1      41.005 -10.426  -5.013  1.00  0.00     0.034 C 
ENDBRANCH  21  22
ENDBRANCH  17  21
ENDBRANCH   1  13
BRANCH  10  24
HETATM   24  C   UNL     1      42.036 -18.302   4.739  1.00  0.00     0.274 C 
BRANCH  24  25
HETATM   25  N   UNL     1      43.432 -18.381   5.324  1.00  0.00    -0.054 N 
HETATM   26  H   UNL     1      43.830 -17.457   5.105  1.00  0.00     0.281 HD
HETATM   27  C   UNL     1      44.450 -19.398   4.775  1.00  0.00     0.287 C 
HETATM   28  C   UNL     1      44.255 -20.590   5.687  1.00  0.00     0.045 C 
HETATM   29  C   UNL     1      43.981 -19.977   7.055  1.00  0.00     0.030 C 
HETATM   30  C   UNL     1      43.517 -18.545   6.821  1.00  0.00     0.236 C 
BRANCH  27  31
HETATM   31  C   UNL     1      44.431 -19.719   3.284  1.00  0.00     0.289 C 
HETATM   32  O   UNL     1      44.278 -18.893   2.394  1.00  0.00    -0.263 OA
BRANCH  31  33
HETATM   33  O   UNL     1      44.669 -21.044   3.105  1.00  0.00    -0.325 OA
HETATM   34  C   UNL     1      43.985 -21.660   2.007  1.00  0.00     0.213 C 
ENDBRANCH  31  33
ENDBRANCH  27  31
ENDBRANCH  24  25
ENDBRANCH  10  24
TORSDOF 7
ENDMDL
MODEL 8
REMARK VINA RESULT:      -7.2      2.770      5.380
REMARK  7 active torsions:
REMARK  status: ('A' for Active; 'I' for Inactive)
REMARK    1  A    between atoms: C_2  and  O_3 
REMARK    2  A    between atoms: O_3  and  C_4 
REMARK       I    between atoms: C_4  and  N_5 
REMARK    3  A    between atoms: C_8  and  N_9 
REMARK    4  A    between atoms: C_18  and  C_19 
REMARK    5  A    between atoms: C_19  and  N_20 
REMARK    6  A    between atoms: C_22  and  C_23 
REMARK    7  A    between atoms: C_23  and  O_24 
ROOT
HETATM    1  N   UNL     1      42.053 -13.049   3.178  1.00  0.00    -0.061 N 
HETATM    2  H   UNL     1      42.489 -12.195   3.551  1.00  0.00     0.280 HD
HETATM    3  C   UNL     1      43.226 -14.012   2.949  1.00  0.00     0.276 C 
HETATM    4  C   UNL     1      42.836 -15.409   2.543  1.00  0.00     0.002 A 
HETATM    5  C   UNL     1      42.178 -15.621   1.332  1.00  0.00     0.076 A 
HETATM    6  O   UNL     1      41.895 -14.588   0.486  1.00  0.00    -0.349 OA
HETATM    7  C   UNL     1      40.867 -13.739   1.017  1.00  0.00     0.203 C 
HETATM    8  C   UNL     1      41.477 -12.595   1.828  1.00  0.00     0.262 C 
HETATM    9  C   UNL     1      43.115 -16.527   3.356  1.00  0.00     0.020 A 
HETATM   10  C   UNL     1      42.728 -17.837   2.983  1.00  0.00    -0.032 A 
HETATM   11  C   UNL     1      42.067 -17.996   1.757  1.00  0.00     0.011 A 
HETATM   12  C   UNL     1      41.822 -16.902   0.924  1.00  0.00     0.038 A 
ENDROOT
BRANCH   1  13
HETATM   13  C   UNL     1      41.033 -13.526   4.228  1.00  0.00     0.191 C 
HETATM   14  C   UNL     1      41.717 -13.864   5.559  1.00  0.00     0.053 C 
HETATM   15  C   UNL     1      42.287 -12.631   6.245  1.00  0.00     0.130 C 
HETATM   16  N   UNL     1      41.319 -11.552   6.351  1.00  0.00    -0.328 N 
HETATM   17  C   UNL     1      41.605 -10.564   7.301  1.00  0.00     0.362 C 
HETATM   18  C   UNL     1      40.462 -11.245   5.213  1.00  0.00     0.130 C 
HETATM   19  O   UNL     1      42.556 -10.637   8.068  1.00  0.00    -0.238 OA
HETATM   20  C   UNL     1      39.937 -12.493   4.516  1.00  0.00     0.053 C 
BRANCH  17  21
HETATM   21  O   UNL     1      40.730  -9.528   7.254  1.00  0.00    -0.304 OA
BRANCH  21  22
HETATM   22  C   UNL     1      40.065  -9.206   8.489  1.00  0.00     0.176 C 
HETATM   23  C   UNL     1      39.028 -10.258   8.843  1.00  0.00     0.034 C 
ENDBRANCH  21  22
ENDBRANCH  17  21
ENDBRANCH   1  13
BRANCH  10  24
HETATM   24  C   UNL     1      42.891 -18.987   3.957  1.00  0.00     0.274 C 
BRANCH  24  25
HETATM   25  N   UNL     1      44.101 -19.085   4.863  1.00  0.00    -0.054 N 
HETATM   26  H   UNL     1      44.832 -18.592   4.332  1.00  0.00     0.281 HD
HETATM   27  C   UNL     1      44.709 -20.459   5.203  1.00  0.00     0.287 C 
HETATM   28  C   UNL     1      44.007 -20.824   6.493  1.00  0.00     0.045 C 
HETATM   29  C   UNL     1      43.867 -19.499   7.234  1.00  0.00     0.030 C 
HETATM   30  C   UNL     1      43.991 -18.389   6.197  1.00  0.00     0.236 C 
BRANCH  27  31
HETATM   31  C   UNL     1      44.699 -21.547   4.134  1.00  0.00     0.289 C 
HETATM   32  O   UNL     1      44.483 -22.732   4.347  1.00  0.00    -0.263 OA
BRANCH  31  33
HETATM   33  O   UNL     1      44.905 -20.983   2.916  1.00  0.00    -0.325 OA
HETATM   34  C   UNL     1      44.201 -21.584   1.821  1.00  0.00     0.213 C 
ENDBRANCH  31  33
ENDBRANCH  27  31
ENDBRANCH  24  25
ENDBRANCH  10  24
TORSDOF 7
ENDMDL
MODEL 9
REMARK VINA RESULT:      -7.1      2.629      8.145
REMARK  7 active torsions:
REMARK  status: ('A' for Active; 'I' for Inactive)
REMARK    1  A    between atoms: C_2  and  O_3 
REMARK    2  A    between atoms: O_3  and  C_4 
REMARK       I    between atoms: C_4  and  N_5 
REMARK    3  A    between atoms: C_8  and  N_9 
REMARK    4  A    between atoms: C_18  and  C_19 
REMARK    5  A    between atoms: C_19  and  N_20 
REMARK    6  A    between atoms: C_22  and  C_23 
REMARK    7  A    between atoms: C_23  and  O_24 
ROOT
HETATM    1  N   UNL     1      43.186 -15.259   4.544  1.00  0.00    -0.061 N 
HETATM    2  H   UNL     1      44.036 -15.807   4.735  1.00  0.00     0.280 HD
HETATM    3  C   UNL     1      43.638 -14.181   3.549  1.00  0.00     0.276 C 
HETATM    4  C   UNL     1      42.532 -13.329   2.986  1.00  0.00     0.002 A 
HETATM    5  C   UNL     1      41.790 -12.506   3.832  1.00  0.00     0.076 A 
HETATM    6  O   UNL     1      42.057 -12.435   5.168  1.00  0.00    -0.349 OA
HETATM    7  C   UNL     1      41.686 -13.644   5.845  1.00  0.00     0.203 C 
HETATM    8  C   UNL     1      42.864 -14.616   5.902  1.00  0.00     0.262 C 
HETATM    9  C   UNL     1      42.212 -13.334   1.611  1.00  0.00     0.020 A 
HETATM   10  C   UNL     1      41.158 -12.549   1.086  1.00  0.00    -0.032 A 
HETATM   11  C   UNL     1      40.442 -11.741   1.980  1.00  0.00     0.011 A 
HETATM   12  C   UNL     1      40.775 -11.695   3.336  1.00  0.00     0.038 A 
ENDROOT
BRANCH   1  13
HETATM   13  C   UNL     1      42.137 -16.240   3.988  1.00  0.00     0.191 C 
HETATM   14  C   UNL     1      42.600 -16.865   2.666  1.00  0.00     0.053 C 
HETATM   15  C   UNL     1      43.795 -17.789   2.852  1.00  0.00     0.130 C 
HETATM   16  N   UNL     1      43.589 -18.764   3.909  1.00  0.00    -0.328 N 
HETATM   17  C   UNL     1      44.428 -19.884   3.882  1.00  0.00     0.362 C 
HETATM   18  C   UNL     1      42.976 -18.341   5.163  1.00  0.00     0.130 C 
HETATM   19  O   UNL     1      45.226 -20.093   2.976  1.00  0.00    -0.238 OA
HETATM   20  C   UNL     1      41.810 -17.384   4.956  1.00  0.00     0.053 C 
BRANCH  17  21
HETATM   21  O   UNL     1      44.267 -20.683   4.967  1.00  0.00    -0.304 OA
BRANCH  21  22
HETATM   22  C   UNL     1      45.123 -21.837   5.034  1.00  0.00     0.176 C 
HETATM   23  C   UNL     1      44.562 -22.985   4.213  1.00  0.00     0.034 C 
ENDBRANCH  21  22
ENDBRANCH  17  21
ENDBRANCH   1  13
BRANCH  10  24
HETATM   24  C   UNL     1      40.735 -12.709  -0.360  1.00  0.00     0.274 C 
BRANCH  24  25
HETATM   25  N   UNL     1      41.643 -13.370  -1.377  1.00  0.00    -0.054 N 
HETATM   26  H   UNL     1      42.349 -13.837  -0.792  1.00  0.00     0.281 HD
HETATM   27  C   UNL     1      42.449 -12.514  -2.373  1.00  0.00     0.287 C 
HETATM   28  C   UNL     1      41.534 -12.454  -3.577  1.00  0.00     0.045 C 
HETATM   29  C   UNL     1      40.886 -13.833  -3.626  1.00  0.00     0.030 C 
HETATM   30  C   UNL     1      41.015 -14.439  -2.234  1.00  0.00     0.236 C 
BRANCH  27  31
HETATM   31  C   UNL     1      42.988 -11.165  -1.907  1.00  0.00     0.289 C 
HETATM   32  O   UNL     1      43.781 -11.009  -0.989  1.00  0.00    -0.263 OA
BRANCH  31  33
HETATM   33  O   UNL     1      42.496 -10.183  -2.706  1.00  0.00    -0.325 OA
HETATM   34  C   UNL     1      42.889  -8.846  -2.371  1.00  0.00     0.213 C 
ENDBRANCH  31  33
ENDBRANCH  27  31
ENDBRANCH  24  25
ENDBRANCH  10  24
TORSDOF 7
ENDMDL
MODEL 10
REMARK VINA RESULT:      -6.9      3.279      8.679
REMARK  7 active torsions:
REMARK  status: ('A' for Active; 'I' for Inactive)
REMARK    1  A    between atoms: C_2  and  O_3 
REMARK    2  A    between atoms: O_3  and  C_4 
REMARK       I    between atoms: C_4  and  N_5 
REMARK    3  A    between atoms: C_8  and  N_9 
REMARK    4  A    between atoms: C_18  and  C_19 
REMARK    5  A    between atoms: C_19  and  N_20 
REMARK    6  A    between atoms: C_22  and  C_23 
REMARK    7  A    between atoms: C_23  and  O_24 
ROOT
HETATM    1  N   UNL     1      41.460 -15.982   3.364  1.00  0.00    -0.061 N 
HETATM    2  H   UNL     1      41.335 -16.999   3.455  1.00  0.00     0.280 HD
HETATM    3  C   UNL     1      40.609 -15.387   4.495  1.00  0.00     0.276 C 
HETATM    4  C   UNL     1      40.743 -13.898   4.679  1.00  0.00     0.002 A 
HETATM    5  C   UNL     1      40.337 -13.034   3.663  1.00  0.00     0.076 A 
HETATM    6  O   UNL     1      39.796 -13.507   2.502  1.00  0.00    -0.349 OA
HETATM    7  C   UNL     1      40.779 -14.167   1.693  1.00  0.00     0.203 C 
HETATM    8  C   UNL     1      40.820 -15.663   2.004  1.00  0.00     0.262 C 
HETATM    9  C   UNL     1      41.273 -13.337   5.859  1.00  0.00     0.020 A 
HETATM   10  C   UNL     1      41.418 -11.938   6.022  1.00  0.00    -0.032 A 
HETATM   11  C   UNL     1      40.997 -11.114   4.969  1.00  0.00     0.011 A 
HETATM   12  C   UNL     1      40.432 -11.655   3.812  1.00  0.00     0.038 A 
ENDROOT
BRANCH   1  13
HETATM   13  C   UNL     1      42.969 -15.704   3.489  1.00  0.00     0.191 C 
HETATM   14  C   UNL     1      43.510 -16.152   4.853  1.00  0.00     0.053 C 
HETATM   15  C   UNL     1      43.477 -17.664   5.018  1.00  0.00     0.130 C 
HETATM   16  N   UNL     1      44.085 -18.363   3.899  1.00  0.00    -0.328 N 
HETATM   17  C   UNL     1      44.465 -19.689   4.138  1.00  0.00     0.362 C 
HETATM   18  C   UNL     1      43.805 -17.917   2.539  1.00  0.00     0.130 C 
HETATM   19  O   UNL     1      44.385 -20.213   5.242  1.00  0.00    -0.238 OA
HETATM   20  C   UNL     1      43.802 -16.401   2.405  1.00  0.00     0.053 C 
BRANCH  17  21
HETATM   21  O   UNL     1      44.904 -20.316   3.017  1.00  0.00    -0.304 OA
BRANCH  21  22
HETATM   22  C   UNL     1      44.487 -21.683   2.853  1.00  0.00     0.176 C 
HETATM   23  C   UNL     1      44.073 -21.962   1.419  1.00  0.00     0.034 C 
ENDBRANCH  21  22
ENDBRANCH  17  21
ENDBRANCH   1  13
BRANCH  10  24
HETATM   24  C   UNL     1      42.148 -11.382   7.228  1.00  0.00     0.274 C 
BRANCH  24  25
HETATM   25  N   UNL     1      41.566 -10.245   8.045  1.00  0.00    -0.054 N 
HETATM   26  H   UNL     1      42.111  -9.430   7.733  1.00  0.00     0.281 HD
HETATM   27  C   UNL     1      41.688 -10.248   9.580  1.00  0.00     0.287 C 
HETATM   28  C   UNL     1      40.399 -10.909  10.016  1.00  0.00     0.045 C 
HETATM   29  C   UNL     1      39.360 -10.401   9.023  1.00  0.00     0.030 C 
HETATM   30  C   UNL     1      40.116  -9.920   7.791  1.00  0.00     0.236 C 
BRANCH  27  31
HETATM   31  C   UNL     1      42.952 -10.824  10.211  1.00  0.00     0.289 C 
HETATM   32  O   UNL     1      42.980 -11.783  10.969  1.00  0.00    -0.263 OA
BRANCH  31  33
HETATM   33  O   UNL     1      44.035 -10.144   9.751  1.00  0.00    -0.325 OA
HETATM   34  C   UNL     1      45.242 -10.905   9.619  1.00  0.00     0.213 C 
ENDBRANCH  31  33
ENDBRANCH  27  31
ENDBRANCH  24  25
ENDBRANCH  10  24
TORSDOF 7
ENDMDL
