MODEL 1
REMARK VINA RESULT:      -8.9      0.000      0.000
REMARK  6 active torsions:
REMARK  status: ('A' for Active; 'I' for Inactive)
REMARK    1  A    between atoms: C_2  and  N_3 
REMARK    2  A    between atoms: C_2  and  C_16 
REMARK    3  A    between atoms: N_3  and  C_5 
REMARK    4  A    between atoms: C_5  and  C_6 
REMARK       I    between atoms: C_16  and  N_17 
REMARK    5  A    between atoms: N_17  and  C_18 
REMARK    6  A    between atoms: C_19  and  C_20 
ROOT
HETATM    1  C   UNL     1      43.482 -17.389   1.555  1.00  0.00     0.253 C 
HETATM    2  N   UNL     1      42.925 -18.437   2.255  1.00  0.00    -0.325 N 
HETATM    3  O   UNL     1      44.668 -17.240   1.270  1.00  0.00    -0.271 OA
HETATM    4  H   UNL     1      41.969 -18.341   2.585  1.00  0.00     0.169 HD
ENDROOT
BRANCH   1   5
HETATM    5  C   UNL     1      42.463 -16.317   1.104  1.00  0.00     0.275 C 
HETATM    6  C   UNL     1      41.173 -17.024   0.685  1.00  0.00     0.050 C 
BRANCH   5   7
HETATM    7  N   UNL     1      42.174 -15.299   2.241  1.00  0.00    -0.059 N 
HETATM    8  H   UNL     1      41.983 -14.417   1.742  1.00  0.00     0.280 HD
HETATM    9  C   UNL     1      43.326 -15.061   3.169  1.00  0.00     0.271 C 
BRANCH   7  10
HETATM   10  C   UNL     1      40.870 -15.556   2.992  1.00  0.00     0.274 C 
BRANCH  10  11
HETATM   11  C   UNL     1      40.247 -14.359   3.658  1.00  0.00    -0.030 A 
HETATM   12  C   UNL     1      39.790 -13.270   2.898  1.00  0.00     0.048 A 
HETATM   13  C   UNL     1      39.227 -12.200   3.563  1.00  0.00     0.105 A 
HETATM   14  C   UNL     1      39.105 -12.175   4.929  1.00  0.00     0.105 A 
HETATM   15  O   UNL     1      38.735 -11.077   2.976  1.00  0.00    -0.323 OA
HETATM   16  O   UNL     1      38.520 -11.034   5.376  1.00  0.00    -0.323 OA
HETATM   17  C   UNL     1      39.534 -13.223   5.712  1.00  0.00     0.040 A 
HETATM   18  C   UNL     1      38.248 -10.355   4.131  1.00  0.00     0.352 A 
HETATM   19  C   UNL     1      40.107 -14.325   5.069  1.00  0.00     0.012 A 
ENDBRANCH  10  11
ENDBRANCH   7  10
ENDBRANCH   5   7
ENDBRANCH   1   5
BRANCH   2  20
HETATM   20  C   UNL     1      43.562 -19.637   2.669  1.00  0.00     0.045 A 
HETATM   21  C   UNL     1      43.930 -19.768   4.032  1.00  0.00     0.001 A 
HETATM   22  C   UNL     1      44.526 -20.965   4.469  1.00  0.00     0.014 A 
HETATM   23  C   UNL     1      44.758 -22.014   3.582  1.00  0.00     0.001 A 
HETATM   24  C   UNL     1      44.401 -21.878   2.245  1.00  0.00     0.002 A 
HETATM   25  C   UNL     1      43.807 -20.698   1.790  1.00  0.00     0.030 A 
BRANCH  21  26
HETATM   26  C   UNL     1      43.750 -18.677   5.003  1.00  0.00    -0.024 A 
HETATM   27  C   UNL     1      44.847 -18.122   5.679  1.00  0.00     0.012 A 
HETATM   28  C   UNL     1      44.660 -17.110   6.622  1.00  0.00     0.001 A 
HETATM   29  C   UNL     1      43.378 -16.637   6.897  1.00  0.00     0.000 A 
HETATM   30  C   UNL     1      42.280 -17.172   6.226  1.00  0.00     0.001 A 
HETATM   31  C   UNL     1      42.465 -18.187   5.285  1.00  0.00     0.012 A 
ENDBRANCH  21  26
ENDBRANCH   2  20
TORSDOF 6
ENDMDL
MODEL 2
REMARK VINA RESULT:      -8.8      2.222      3.848
REMARK  6 active torsions:
REMARK  status: ('A' for Active; 'I' for Inactive)
REMARK    1  A    between atoms: C_2  and  N_3 
REMARK    2  A    between atoms: C_2  and  C_16 
REMARK    3  A    between atoms: N_3  and  C_5 
REMARK    4  A    between atoms: C_5  and  C_6 
REMARK       I    between atoms: C_16  and  N_17 
REMARK    5  A    between atoms: N_17  and  C_18 
REMARK    6  A    between atoms: C_19  and  C_20 
ROOT
HETATM    1  C   UNL     1      42.802 -17.771   5.393  1.00  0.00     0.253 C 
HETATM    2  N   UNL     1      43.969 -18.330   4.919  1.00  0.00    -0.325 N 
HETATM    3  O   UNL     1      41.658 -18.176   5.198  1.00  0.00    -0.271 OA
HETATM    4  H   UNL     1      44.826 -17.790   4.994  1.00  0.00     0.169 HD
ENDROOT
BRANCH   1   5
HETATM    5  C   UNL     1      43.012 -16.505   6.254  1.00  0.00     0.275 C 
HETATM    6  C   UNL     1      44.384 -16.598   6.923  1.00  0.00     0.050 C 
BRANCH   5   7
HETATM    7  N   UNL     1      42.918 -15.215   5.395  1.00  0.00    -0.059 N 
HETATM    8  H   UNL     1      43.010 -15.555   4.425  1.00  0.00     0.280 HD
HETATM    9  C   UNL     1      44.015 -14.224   5.639  1.00  0.00     0.271 C 
BRANCH   7  10
HETATM   10  C   UNL     1      41.537 -14.562   5.398  1.00  0.00     0.274 C 
BRANCH  10  11
HETATM   11  C   UNL     1      41.004 -14.145   4.053  1.00  0.00    -0.030 A 
HETATM   12  C   UNL     1      39.881 -14.781   3.497  1.00  0.00     0.048 A 
HETATM   13  C   UNL     1      39.436 -14.357   2.262  1.00  0.00     0.105 A 
HETATM   14  C   UNL     1      40.054 -13.342   1.575  1.00  0.00     0.105 A 
HETATM   15  O   UNL     1      38.368 -14.864   1.591  1.00  0.00    -0.323 OA
HETATM   16  O   UNL     1      39.454 -13.081   0.385  1.00  0.00    -0.323 OA
HETATM   17  C   UNL     1      41.152 -12.688   2.086  1.00  0.00     0.040 A 
HETATM   18  C   UNL     1      38.358 -14.020   0.416  1.00  0.00     0.352 A 
HETATM   19  C   UNL     1      41.627 -13.092   3.338  1.00  0.00     0.012 A 
ENDBRANCH  10  11
ENDBRANCH   7  10
ENDBRANCH   5   7
ENDBRANCH   1   5
BRANCH   2  20
HETATM   20  C   UNL     1      44.121 -19.565   4.235  1.00  0.00     0.045 A 
HETATM   21  C   UNL     1      43.794 -19.616   2.856  1.00  0.00     0.001 A 
HETATM   22  C   UNL     1      43.976 -20.820   2.153  1.00  0.00     0.014 A 
HETATM   23  C   UNL     1      44.470 -21.955   2.793  1.00  0.00     0.001 A 
HETATM   24  C   UNL     1      44.783 -21.902   4.146  1.00  0.00     0.002 A 
HETATM   25  C   UNL     1      44.610 -20.716   4.864  1.00  0.00     0.030 A 
BRANCH  21  26
HETATM   26  C   UNL     1      43.228 -18.462   2.140  1.00  0.00    -0.024 A 
HETATM   27  C   UNL     1      43.998 -17.316   1.890  1.00  0.00     0.012 A 
HETATM   28  C   UNL     1      43.439 -16.215   1.239  1.00  0.00     0.001 A 
HETATM   29  C   UNL     1      42.108 -16.247   0.825  1.00  0.00     0.000 A 
HETATM   30  C   UNL     1      41.334 -17.382   1.059  1.00  0.00     0.001 A 
HETATM   31  C   UNL     1      41.890 -18.483   1.713  1.00  0.00     0.012 A 
ENDBRANCH  21  26
ENDBRANCH   2  20
TORSDOF 6
ENDMDL
MODEL 3
REMARK VINA RESULT:      -8.7      1.499      3.578
REMARK  6 active torsions:
REMARK  status: ('A' for Active; 'I' for Inactive)
REMARK    1  A    between atoms: C_2  and  N_3 
REMARK    2  A    between atoms: C_2  and  C_16 
REMARK    3  A    between atoms: N_3  and  C_5 
REMARK    4  A    between atoms: C_5  and  C_6 
REMARK       I    between atoms: C_16  and  N_17 
REMARK    5  A    between atoms: N_17  and  C_18 
REMARK    6  A    between atoms: C_19  and  C_20 
ROOT
HETATM    1  C   UNL     1      42.912 -18.198   5.399  1.00  0.00     0.253 C 
HETATM    2  N   UNL     1      44.051 -18.724   4.829  1.00  0.00    -0.325 N 
HETATM    3  O   UNL     1      41.753 -18.558   5.198  1.00  0.00    -0.271 OA
HETATM    4  H   UNL     1      44.922 -18.211   4.935  1.00  0.00     0.169 HD
ENDROOT
BRANCH   1   5
HETATM    5  C   UNL     1      43.175 -17.039   6.386  1.00  0.00     0.275 C 
HETATM    6  C   UNL     1      44.682 -16.951   6.636  1.00  0.00     0.050 C 
BRANCH   5   7
HETATM    7  N   UNL     1      42.643 -15.691   5.830  1.00  0.00    -0.059 N 
HETATM    8  H   UNL     1      42.670 -15.815   4.807  1.00  0.00     0.280 HD
HETATM    9  C   UNL     1      43.488 -14.501   6.169  1.00  0.00     0.271 C 
BRANCH   7  10
HETATM   10  C   UNL     1      41.160 -15.444   6.105  1.00  0.00     0.274 C 
BRANCH  10  11
HETATM   11  C   UNL     1      40.485 -14.437   5.214  1.00  0.00    -0.030 A 
HETATM   12  C   UNL     1      39.901 -13.277   5.752  1.00  0.00     0.048 A 
HETATM   13  C   UNL     1      39.298 -12.389   4.886  1.00  0.00     0.105 A 
HETATM   14  C   UNL     1      39.255 -12.607   3.532  1.00  0.00     0.105 A 
HETATM   15  O   UNL     1      38.693 -11.226   5.245  1.00  0.00    -0.323 OA
HETATM   16  O   UNL     1      38.619 -11.608   2.866  1.00  0.00    -0.323 OA
HETATM   17  C   UNL     1      39.819 -13.726   2.963  1.00  0.00     0.040 A 
HETATM   18  C   UNL     1      38.299 -10.711   3.951  1.00  0.00     0.352 A 
HETATM   19  C   UNL     1      40.442 -14.645   3.812  1.00  0.00     0.012 A 
ENDBRANCH  10  11
ENDBRANCH   7  10
ENDBRANCH   5   7
ENDBRANCH   1   5
BRANCH   2  20
HETATM   20  C   UNL     1      44.155 -19.878   4.009  1.00  0.00     0.045 A 
HETATM   21  C   UNL     1      43.783 -19.771   2.645  1.00  0.00     0.001 A 
HETATM   22  C   UNL     1      43.916 -20.893   1.808  1.00  0.00     0.014 A 
HETATM   23  C   UNL     1      44.405 -22.100   2.302  1.00  0.00     0.001 A 
HETATM   24  C   UNL     1      44.763 -22.203   3.642  1.00  0.00     0.002 A 
HETATM   25  C   UNL     1      44.638 -21.100   4.491  1.00  0.00     0.030 A 
BRANCH  21  26
HETATM   26  C   UNL     1      43.219 -18.535   2.079  1.00  0.00    -0.024 A 
HETATM   27  C   UNL     1      41.869 -18.461   1.706  1.00  0.00     0.012 A 
HETATM   28  C   UNL     1      41.353 -17.293   1.140  1.00  0.00     0.001 A 
HETATM   29  C   UNL     1      42.177 -16.186   0.945  1.00  0.00     0.000 A 
HETATM   30  C   UNL     1      43.519 -16.243   1.319  1.00  0.00     0.001 A 
HETATM   31  C   UNL     1      44.037 -17.411   1.882  1.00  0.00     0.012 A 
ENDBRANCH  21  26
ENDBRANCH   2  20
TORSDOF 6
ENDMDL
MODEL 4
REMARK VINA RESULT:      -8.6      1.558      2.139
REMARK  6 active torsions:
REMARK  status: ('A' for Active; 'I' for Inactive)
REMARK    1  A    between atoms: C_2  and  N_3 
REMARK    2  A    between atoms: C_2  and  C_16 
REMARK    3  A    between atoms: N_3  and  C_5 
REMARK    4  A    between atoms: C_5  and  C_6 
REMARK       I    between atoms: C_16  and  N_17 
REMARK    5  A    between atoms: N_17  and  C_18 
REMARK    6  A    between atoms: C_19  and  C_20 
ROOT
HETATM    1  C   UNL     1      43.338 -17.385   1.910  1.00  0.00     0.253 C 
HETATM    2  N   UNL     1      42.905 -18.461   2.654  1.00  0.00    -0.325 N 
HETATM    3  O   UNL     1      44.430 -17.261   1.360  1.00  0.00    -0.271 OA
HETATM    4  H   UNL     1      42.060 -18.353   3.208  1.00  0.00     0.169 HD
ENDROOT
BRANCH   1   5
HETATM    5  C   UNL     1      42.302 -16.245   1.784  1.00  0.00     0.275 C 
HETATM    6  C   UNL     1      42.057 -15.977   0.298  1.00  0.00     0.050 C 
BRANCH   5   7
HETATM    7  N   UNL     1      40.970 -16.611   2.492  1.00  0.00    -0.059 N 
HETATM    8  H   UNL     1      40.828 -17.605   2.256  1.00  0.00     0.280 HD
HETATM    9  C   UNL     1      39.776 -15.848   2.004  1.00  0.00     0.271 C 
BRANCH   7  10
HETATM   10  C   UNL     1      41.059 -16.632   4.017  1.00  0.00     0.274 C 
BRANCH  10  11
HETATM   11  C   UNL     1      41.278 -15.300   4.681  1.00  0.00    -0.030 A 
HETATM   12  C   UNL     1      40.198 -14.571   5.206  1.00  0.00     0.048 A 
HETATM   13  C   UNL     1      40.459 -13.356   5.804  1.00  0.00     0.105 A 
HETATM   14  C   UNL     1      41.732 -12.850   5.900  1.00  0.00     0.105 A 
HETATM   15  O   UNL     1      39.531 -12.534   6.360  1.00  0.00    -0.323 OA
HETATM   16  O   UNL     1      41.765 -11.646   6.528  1.00  0.00    -0.323 OA
HETATM   17  C   UNL     1      42.819 -13.534   5.405  1.00  0.00     0.040 A 
HETATM   18  C   UNL     1      40.371 -11.467   6.857  1.00  0.00     0.352 A 
HETATM   19  C   UNL     1      42.589 -14.771   4.795  1.00  0.00     0.012 A 
ENDBRANCH  10  11
ENDBRANCH   7  10
ENDBRANCH   5   7
ENDBRANCH   1   5
BRANCH   2  20
HETATM   20  C   UNL     1      43.555 -19.712   2.827  1.00  0.00     0.045 A 
HETATM   21  C   UNL     1      44.067 -20.033   4.110  1.00  0.00     0.001 A 
HETATM   22  C   UNL     1      44.678 -21.283   4.310  1.00  0.00     0.014 A 
HETATM   23  C   UNL     1      44.786 -22.202   3.268  1.00  0.00     0.001 A 
HETATM   24  C   UNL     1      44.288 -21.880   2.011  1.00  0.00     0.002 A 
HETATM   25  C   UNL     1      43.676 -20.643   1.790  1.00  0.00     0.030 A 
BRANCH  21  26
HETATM   26  C   UNL     1      44.021 -19.085   5.234  1.00  0.00    -0.024 A 
HETATM   27  C   UNL     1      42.840 -18.886   5.966  1.00  0.00     0.012 A 
HETATM   28  C   UNL     1      42.801 -17.960   7.009  1.00  0.00     0.001 A 
HETATM   29  C   UNL     1      43.939 -17.226   7.338  1.00  0.00     0.000 A 
HETATM   30  C   UNL     1      45.121 -17.419   6.625  1.00  0.00     0.001 A 
HETATM   31  C   UNL     1      45.162 -18.343   5.579  1.00  0.00     0.012 A 
ENDBRANCH  21  26
ENDBRANCH   2  20
TORSDOF 6
ENDMDL
MODEL 5
REMARK VINA RESULT:      -8.6      2.958      4.391
REMARK  6 active torsions:
REMARK  status: ('A' for Active; 'I' for Inactive)
REMARK    1  A    between atoms: C_2  and  N_3 
REMARK    2  A    between atoms: C_2  and  C_16 
REMARK    3  A    between atoms: N_3  and  C_5 
REMARK    4  A    between atoms: C_5  and  C_6 
REMARK       I    between atoms: C_16  and  N_17 
REMARK    5  A    between atoms: N_17  and  C_18 
REMARK    6  A    between atoms: C_19  and  C_20 
ROOT
HETATM    1  C   UNL     1      42.725 -17.036   1.608  1.00  0.00     0.253 C 
HETATM    2  N   UNL     1      42.366 -18.127   2.369  1.00  0.00    -0.325 N 
HETATM    3  O   UNL     1      43.855 -16.747   1.220  1.00  0.00    -0.271 OA
HETATM    4  H   UNL     1      41.436 -18.143   2.778  1.00  0.00     0.169 HD
ENDROOT
BRANCH   1   5
HETATM    5  C   UNL     1      41.544 -16.114   1.227  1.00  0.00     0.275 C 
HETATM    6  C   UNL     1      40.309 -16.564   2.009  1.00  0.00     0.050 C 
BRANCH   5   7
HETATM    7  N   UNL     1      41.865 -14.627   1.539  1.00  0.00    -0.059 N 
HETATM    8  H   UNL     1      42.876 -14.629   1.746  1.00  0.00     0.280 HD
HETATM    9  C   UNL     1      41.153 -14.075   2.736  1.00  0.00     0.271 C 
BRANCH   7  10
HETATM   10  C   UNL     1      41.766 -13.700   0.329  1.00  0.00     0.274 C 
BRANCH  10  11
HETATM   11  C   UNL     1      40.704 -14.046  -0.679  1.00  0.00    -0.030 A 
HETATM   12  C   UNL     1      41.018 -14.794  -1.826  1.00  0.00     0.048 A 
HETATM   13  C   UNL     1      40.003 -15.083  -2.715  1.00  0.00     0.105 A 
HETATM   14  C   UNL     1      38.713 -14.663  -2.508  1.00  0.00     0.105 A 
HETATM   15  O   UNL     1      40.140 -15.795  -3.864  1.00  0.00    -0.323 OA
HETATM   16  O   UNL     1      37.874 -15.058  -3.500  1.00  0.00    -0.323 OA
HETATM   17  C   UNL     1      38.361 -13.933  -1.396  1.00  0.00     0.040 A 
HETATM   18  C   UNL     1      38.774 -15.813  -4.340  1.00  0.00     0.352 A 
HETATM   19  C   UNL     1      39.366 -13.626  -0.473  1.00  0.00     0.012 A 
ENDBRANCH  10  11
ENDBRANCH   7  10
ENDBRANCH   5   7
ENDBRANCH   1   5
BRANCH   2  20
HETATM   20  C   UNL     1      43.183 -19.225   2.747  1.00  0.00     0.045 A 
HETATM   21  C   UNL     1      43.648 -19.288   4.086  1.00  0.00     0.001 A 
HETATM   22  C   UNL     1      44.426 -20.389   4.489  1.00  0.00     0.014 A 
HETATM   23  C   UNL     1      44.741 -21.408   3.593  1.00  0.00     0.001 A 
HETATM   24  C   UNL     1      44.288 -21.338   2.281  1.00  0.00     0.002 A 
HETATM   25  C   UNL     1      43.514 -20.254   1.859  1.00  0.00     0.030 A 
BRANCH  21  26
HETATM   26  C   UNL     1      43.383 -18.220   5.061  1.00  0.00    -0.024 A 
HETATM   27  C   UNL     1      42.070 -17.844   5.385  1.00  0.00     0.012 A 
HETATM   28  C   UNL     1      41.832 -16.806   6.287  1.00  0.00     0.001 A 
HETATM   29  C   UNL     1      42.900 -16.136   6.881  1.00  0.00     0.000 A 
HETATM   30  C   UNL     1      44.209 -16.504   6.576  1.00  0.00     0.001 A 
HETATM   31  C   UNL     1      44.450 -17.540   5.671  1.00  0.00     0.012 A 
ENDBRANCH  21  26
ENDBRANCH   2  20
TORSDOF 6
ENDMDL
MODEL 6
REMARK VINA RESULT:      -8.3      2.655      4.764
REMARK  6 active torsions:
REMARK  status: ('A' for Active; 'I' for Inactive)
REMARK    1  A    between atoms: C_2  and  N_3 
REMARK    2  A    between atoms: C_2  and  C_16 
REMARK    3  A    between atoms: N_3  and  C_5 
REMARK    4  A    between atoms: C_5  and  C_6 
REMARK       I    between atoms: C_16  and  N_17 
REMARK    5  A    between atoms: N_17  and  C_18 
REMARK    6  A    between atoms: C_19  and  C_20 
ROOT
HETATM    1  C   UNL     1      41.705 -15.276   5.884  1.00  0.00     0.253 C 
HETATM    2  N   UNL     1      42.883 -15.919   5.570  1.00  0.00    -0.325 N 
HETATM    3  O   UNL     1      40.696 -15.781   6.371  1.00  0.00    -0.271 OA
HETATM    4  H   UNL     1      43.563 -15.425   5.000  1.00  0.00     0.169 HD
ENDROOT
BRANCH   1   5
HETATM    5  C   UNL     1      41.709 -13.762   5.572  1.00  0.00     0.275 C 
HETATM    6  C   UNL     1      43.011 -13.422   4.845  1.00  0.00     0.050 C 
BRANCH   5   7
HETATM    7  N   UNL     1      40.487 -13.362   4.702  1.00  0.00    -0.059 N 
HETATM    8  H   UNL     1      40.871 -12.678   4.033  1.00  0.00     0.280 HD
HETATM    9  C   UNL     1      39.379 -12.692   5.457  1.00  0.00     0.271 C 
BRANCH   7  10
HETATM   10  C   UNL     1      39.975 -14.478   3.794  1.00  0.00     0.274 C 
BRANCH  10  11
HETATM   11  C   UNL     1      39.999 -14.188   2.317  1.00  0.00    -0.030 A 
HETATM   12  C   UNL     1      38.827 -14.280   1.547  1.00  0.00     0.048 A 
HETATM   13  C   UNL     1      38.909 -14.001   0.199  1.00  0.00     0.105 A 
HETATM   14  C   UNL     1      40.090 -13.640  -0.399  1.00  0.00     0.105 A 
HETATM   15  O   UNL     1      37.873 -14.042  -0.680  1.00  0.00    -0.323 OA
HETATM   16  O   UNL     1      39.948 -13.406  -1.730  1.00  0.00    -0.323 OA
HETATM   17  C   UNL     1      41.260 -13.531   0.319  1.00  0.00     0.040 A 
HETATM   18  C   UNL     1      38.530 -13.621  -1.898  1.00  0.00     0.352 A 
HETATM   19  C   UNL     1      41.211 -13.804   1.689  1.00  0.00     0.012 A 
ENDBRANCH  10  11
ENDBRANCH   7  10
ENDBRANCH   5   7
ENDBRANCH   1   5
BRANCH   2  20
HETATM   20  C   UNL     1      43.244 -17.259   5.871  1.00  0.00     0.045 A 
HETATM   21  C   UNL     1      43.347 -18.185   4.802  1.00  0.00     0.001 A 
HETATM   22  C   UNL     1      43.742 -19.507   5.076  1.00  0.00     0.014 A 
HETATM   23  C   UNL     1      44.029 -19.912   6.378  1.00  0.00     0.001 A 
HETATM   24  C   UNL     1      43.921 -19.003   7.423  1.00  0.00     0.002 A 
HETATM   25  C   UNL     1      43.530 -17.684   7.174  1.00  0.00     0.030 A 
BRANCH  21  26
HETATM   26  C   UNL     1      43.013 -17.824   3.416  1.00  0.00    -0.024 A 
HETATM   27  C   UNL     1      41.679 -17.765   2.985  1.00  0.00     0.012 A 
HETATM   28  C   UNL     1      41.376 -17.454   1.658  1.00  0.00     0.001 A 
HETATM   29  C   UNL     1      42.399 -17.193   0.748  1.00  0.00     0.000 A 
HETATM   30  C   UNL     1      43.729 -17.239   1.164  1.00  0.00     0.001 A 
HETATM   31  C   UNL     1      44.034 -17.554   2.490  1.00  0.00     0.012 A 
ENDBRANCH  21  26
ENDBRANCH   2  20
TORSDOF 6
ENDMDL
MODEL 7
REMARK VINA RESULT:      -8.3      3.602      5.139
REMARK  6 active torsions:
REMARK  status: ('A' for Active; 'I' for Inactive)
REMARK    1  A    between atoms: C_2  and  N_3 
REMARK    2  A    between atoms: C_2  and  C_16 
REMARK    3  A    between atoms: N_3  and  C_5 
REMARK    4  A    between atoms: C_5  and  C_6 
REMARK       I    between atoms: C_16  and  N_17 
REMARK    5  A    between atoms: N_17  and  C_18 
REMARK    6  A    between atoms: C_19  and  C_20 
ROOT
HETATM    1  C   UNL     1      40.906 -16.543   1.472  1.00  0.00     0.253 C 
HETATM    2  N   UNL     1      42.269 -16.703   1.592  1.00  0.00    -0.325 N 
HETATM    3  O   UNL     1      40.034 -17.302   1.892  1.00  0.00    -0.271 OA
HETATM    4  H   UNL     1      42.874 -16.105   1.037  1.00  0.00     0.169 HD
ENDROOT
BRANCH   1   5
HETATM    5  C   UNL     1      40.483 -15.258   0.724  1.00  0.00     0.275 C 
HETATM    6  C   UNL     1      39.455 -14.517   1.581  1.00  0.00     0.050 C 
BRANCH   5   7
HETATM    7  N   UNL     1      41.705 -14.343   0.439  1.00  0.00    -0.059 N 
HETATM    8  H   UNL     1      42.517 -14.969   0.552  1.00  0.00     0.280 HD
HETATM    9  C   UNL     1      41.867 -13.205   1.400  1.00  0.00     0.271 C 
BRANCH   7  10
HETATM   10  C   UNL     1      41.821 -13.892  -1.016  1.00  0.00     0.274 C 
BRANCH  10  11
HETATM   11  C   UNL     1      40.738 -14.376  -1.942  1.00  0.00    -0.030 A 
HETATM   12  C   UNL     1      39.541 -13.655  -2.087  1.00  0.00     0.048 A 
HETATM   13  C   UNL     1      38.585 -14.145  -2.952  1.00  0.00     0.105 A 
HETATM   14  C   UNL     1      38.772 -15.303  -3.664  1.00  0.00     0.105 A 
HETATM   15  O   UNL     1      37.380 -13.569  -3.205  1.00  0.00    -0.323 OA
HETATM   16  O   UNL     1      37.711 -15.602  -4.457  1.00  0.00    -0.323 OA
HETATM   17  C   UNL     1      39.932 -16.037  -3.557  1.00  0.00     0.040 A 
HETATM   18  C   UNL     1      36.845 -14.477  -4.196  1.00  0.00     0.352 A 
HETATM   19  C   UNL     1      40.924 -15.565  -2.691  1.00  0.00     0.012 A 
ENDBRANCH  10  11
ENDBRANCH   7  10
ENDBRANCH   5   7
ENDBRANCH   1   5
BRANCH   2  20
HETATM   20  C   UNL     1      42.961 -17.688   2.345  1.00  0.00     0.045 A 
HETATM   21  C   UNL     1      43.066 -17.512   3.749  1.00  0.00     0.001 A 
HETATM   22  C   UNL     1      43.714 -18.496   4.516  1.00  0.00     0.014 A 
HETATM   23  C   UNL     1      44.249 -19.634   3.916  1.00  0.00     0.001 A 
HETATM   24  C   UNL     1      44.149 -19.800   2.540  1.00  0.00     0.002 A 
HETATM   25  C   UNL     1      43.510 -18.834   1.758  1.00  0.00     0.030 A 
BRANCH  21  26
HETATM   26  C   UNL     1      42.559 -16.311   4.430  1.00  0.00    -0.024 A 
HETATM   27  C   UNL     1      43.304 -15.121   4.450  1.00  0.00     0.012 A 
HETATM   28  C   UNL     1      42.827 -13.998   5.127  1.00  0.00     0.001 A 
HETATM   29  C   UNL     1      41.600 -14.046   5.787  1.00  0.00     0.000 A 
HETATM   30  C   UNL     1      40.846 -15.218   5.768  1.00  0.00     0.001 A 
HETATM   31  C   UNL     1      41.323 -16.343   5.094  1.00  0.00     0.012 A 
ENDBRANCH  21  26
ENDBRANCH   2  20
TORSDOF 6
ENDMDL
MODEL 8
REMARK VINA RESULT:      -8.3      3.078      3.915
REMARK  6 active torsions:
REMARK  status: ('A' for Active; 'I' for Inactive)
REMARK    1  A    between atoms: C_2  and  N_3 
REMARK    2  A    between atoms: C_2  and  C_16 
REMARK    3  A    between atoms: N_3  and  C_5 
REMARK    4  A    between atoms: C_5  and  C_6 
REMARK       I    between atoms: C_16  and  N_17 
REMARK    5  A    between atoms: N_17  and  C_18 
REMARK    6  A    between atoms: C_19  and  C_20 
ROOT
HETATM    1  C   UNL     1      43.247 -17.634   1.459  1.00  0.00     0.253 C 
HETATM    2  N   UNL     1      42.762 -18.680   2.214  1.00  0.00    -0.325 N 
HETATM    3  O   UNL     1      44.425 -17.314   1.314  1.00  0.00    -0.271 OA
HETATM    4  H   UNL     1      41.764 -18.716   2.400  1.00  0.00     0.169 HD
ENDROOT
BRANCH   1   5
HETATM    5  C   UNL     1      42.153 -16.813   0.740  1.00  0.00     0.275 C 
HETATM    6  C   UNL     1      40.789 -17.399   1.108  1.00  0.00     0.050 C 
BRANCH   5   7
HETATM    7  N   UNL     1      42.220 -15.314   1.137  1.00  0.00    -0.059 N 
HETATM    8  H   UNL     1      43.118 -14.992   0.745  1.00  0.00     0.280 HD
HETATM    9  C   UNL     1      42.248 -15.063   2.614  1.00  0.00     0.271 C 
BRANCH   7  10
HETATM   10  C   UNL     1      41.198 -14.432   0.420  1.00  0.00     0.274 C 
BRANCH  10  11
HETATM   11  C   UNL     1      41.763 -13.292  -0.383  1.00  0.00    -0.030 A 
HETATM   12  C   UNL     1      42.100 -12.075   0.233  1.00  0.00     0.048 A 
HETATM   13  C   UNL     1      42.615 -11.066  -0.554  1.00  0.00     0.105 A 
HETATM   14  C   UNL     1      42.804 -11.220  -1.904  1.00  0.00     0.105 A 
HETATM   15  O   UNL     1      42.991  -9.836  -0.113  1.00  0.00    -0.323 OA
HETATM   16  O   UNL     1      43.324 -10.107  -2.485  1.00  0.00    -0.323 OA
HETATM   17  C   UNL     1      42.494 -12.396  -2.547  1.00  0.00     0.040 A 
HETATM   18  C   UNL     1      43.482  -9.244  -1.338  1.00  0.00     0.352 A 
HETATM   19  C   UNL     1      41.972 -13.441  -1.778  1.00  0.00     0.012 A 
ENDBRANCH  10  11
ENDBRANCH   7  10
ENDBRANCH   5   7
ENDBRANCH   1   5
BRANCH   2  20
HETATM   20  C   UNL     1      43.509 -19.697   2.865  1.00  0.00     0.045 A 
HETATM   21  C   UNL     1      43.768 -19.559   4.253  1.00  0.00     0.001 A 
HETATM   22  C   UNL     1      44.473 -20.576   4.922  1.00  0.00     0.014 A 
HETATM   23  C   UNL     1      44.916 -21.708   4.241  1.00  0.00     0.001 A 
HETATM   24  C   UNL     1      44.664 -21.836   2.880  1.00  0.00     0.002 A 
HETATM   25  C   UNL     1      43.966 -20.838   2.195  1.00  0.00     0.030 A 
BRANCH  21  26
HETATM   26  C   UNL     1      43.364 -18.366   5.012  1.00  0.00    -0.024 A 
HETATM   27  C   UNL     1      44.321 -17.515   5.586  1.00  0.00     0.012 A 
HETATM   28  C   UNL     1      43.925 -16.404   6.333  1.00  0.00     0.001 A 
HETATM   29  C   UNL     1      42.571 -16.127   6.510  1.00  0.00     0.000 A 
HETATM   30  C   UNL     1      41.609 -16.958   5.938  1.00  0.00     0.001 A 
HETATM   31  C   UNL     1      42.004 -18.072   5.194  1.00  0.00     0.012 A 
ENDBRANCH  21  26
ENDBRANCH   2  20
TORSDOF 6
ENDMDL
MODEL 9
REMARK VINA RESULT:      -8.1      4.340      6.093
REMARK  6 active torsions:
REMARK  status: ('A' for Active; 'I' for Inactive)
REMARK    1  A    between atoms: C_2  and  N_3 
REMARK    2  A    between atoms: C_2  and  C_16 
REMARK    3  A    between atoms: N_3  and  C_5 
REMARK    4  A    between atoms: C_5  and  C_6 
REMARK       I    between atoms: C_16  and  N_17 
REMARK    5  A    between atoms: N_17  and  C_18 
REMARK    6  A    between atoms: C_19  and  C_20 
ROOT
HETATM    1  C   UNL     1      43.050 -14.059   6.033  1.00  0.00     0.253 C 
HETATM    2  N   UNL     1      42.346 -15.219   6.277  1.00  0.00    -0.325 N 
HETATM    3  O   UNL     1      44.262 -13.893   6.151  1.00  0.00    -0.271 OA
HETATM    4  H   UNL     1      41.333 -15.166   6.324  1.00  0.00     0.169 HD
ENDROOT
BRANCH   1   5
HETATM    5  C   UNL     1      42.174 -12.875   5.564  1.00  0.00     0.275 C 
HETATM    6  C   UNL     1      41.267 -13.364   4.433  1.00  0.00     0.050 C 
BRANCH   5   7
HETATM    7  N   UNL     1      41.321 -12.306   6.730  1.00  0.00    -0.059 N 
HETATM    8  H   UNL     1      41.530 -12.935   7.520  1.00  0.00     0.280 HD
HETATM    9  C   UNL     1      39.842 -12.341   6.493  1.00  0.00     0.271 C 
BRANCH   7  10
HETATM   10  C   UNL     1      41.793 -10.946   7.241  1.00  0.00     0.274 C 
BRANCH  10  11
HETATM   11  C   UNL     1      42.264 -10.908   8.670  1.00  0.00    -0.030 A 
HETATM   12  C   UNL     1      41.388 -10.547   9.707  1.00  0.00     0.048 A 
HETATM   13  C   UNL     1      41.876 -10.532  10.998  1.00  0.00     0.105 A 
HETATM   14  C   UNL     1      43.177 -10.856  11.288  1.00  0.00     0.105 A 
HETATM   15  O   UNL     1      41.161 -10.210  12.108  1.00  0.00    -0.323 OA
HETATM   16  O   UNL     1      43.447 -10.780  12.617  1.00  0.00    -0.323 OA
HETATM   17  C   UNL     1      44.067 -11.221  10.303  1.00  0.00     0.040 A 
HETATM   18  C   UNL     1      42.153 -10.410  13.141  1.00  0.00     0.352 A 
HETATM   19  C   UNL     1      43.604 -11.250   8.984  1.00  0.00     0.012 A 
ENDBRANCH  10  11
ENDBRANCH   7  10
ENDBRANCH   5   7
ENDBRANCH   1   5
BRANCH   2  20
HETATM   20  C   UNL     1      42.873 -16.505   6.570  1.00  0.00     0.045 A 
HETATM   21  C   UNL     1      43.024 -17.429   5.505  1.00  0.00     0.001 A 
HETATM   22  C   UNL     1      43.581 -18.694   5.770  1.00  0.00     0.014 A 
HETATM   23  C   UNL     1      43.981 -19.044   7.058  1.00  0.00     0.001 A 
HETATM   24  C   UNL     1      43.826 -18.136   8.099  1.00  0.00     0.002 A 
HETATM   25  C   UNL     1      43.275 -16.875   7.859  1.00  0.00     0.030 A 
BRANCH  21  26
HETATM   26  C   UNL     1      42.578 -17.130   4.136  1.00  0.00    -0.024 A 
HETATM   27  C   UNL     1      43.490 -16.725   3.150  1.00  0.00     0.012 A 
HETATM   28  C   UNL     1      43.050 -16.413   1.863  1.00  0.00     0.001 A 
HETATM   29  C   UNL     1      41.696 -16.506   1.543  1.00  0.00     0.000 A 
HETATM   30  C   UNL     1      40.780 -16.916   2.510  1.00  0.00     0.001 A 
HETATM   31  C   UNL     1      41.218 -17.226   3.799  1.00  0.00     0.012 A 
ENDBRANCH  21  26
ENDBRANCH   2  20
TORSDOF 6
ENDMDL
MODEL 10
REMARK VINA RESULT:      -8.0      2.220      4.027
REMARK  6 active torsions:
REMARK  status: ('A' for Active; 'I' for Inactive)
REMARK    1  A    between atoms: C_2  and  N_3 
REMARK    2  A    between atoms: C_2  and  C_16 
REMARK    3  A    between atoms: N_3  and  C_5 
REMARK    4  A    between atoms: C_5  and  C_6 
REMARK       I    between atoms: C_16  and  N_17 
REMARK    5  A    between atoms: N_17  and  C_18 
REMARK    6  A    between atoms: C_19  and  C_20 
ROOT
HETATM    1  C   UNL     1      42.484 -17.231   5.528  1.00  0.00     0.253 C 
HETATM    2  N   UNL     1      43.632 -17.590   4.856  1.00  0.00    -0.325 N 
HETATM    3  O   UNL     1      41.496 -17.936   5.729  1.00  0.00    -0.271 OA
HETATM    4  H   UNL     1      44.286 -16.857   4.597  1.00  0.00     0.169 HD
ENDROOT
BRANCH   1   5
HETATM    5  C   UNL     1      42.491 -15.782   6.066  1.00  0.00     0.275 C 
HETATM    6  C   UNL     1      43.918 -15.240   5.972  1.00  0.00     0.050 C 
BRANCH   5   7
HETATM    7  N   UNL     1      41.518 -14.877   5.264  1.00  0.00    -0.059 N 
HETATM    8  H   UNL     1      42.052 -14.008   5.114  1.00  0.00     0.280 HD
HETATM    9  C   UNL     1      40.258 -14.521   5.992  1.00  0.00     0.271 C 
BRANCH   7  10
HETATM   10  C   UNL     1      41.246 -15.361   3.840  1.00  0.00     0.274 C 
BRANCH  10  11
HETATM   11  C   UNL     1      40.778 -14.312   2.868  1.00  0.00    -0.030 A 
HETATM   12  C   UNL     1      41.660 -13.327   2.392  1.00  0.00     0.048 A 
HETATM   13  C   UNL     1      41.176 -12.392   1.501  1.00  0.00     0.105 A 
HETATM   14  C   UNL     1      39.872 -12.401   1.074  1.00  0.00     0.105 A 
HETATM   15  O   UNL     1      41.897 -11.382   0.948  1.00  0.00    -0.323 OA
HETATM   16  O   UNL     1      39.607 -11.398   0.197  1.00  0.00    -0.323 OA
HETATM   17  C   UNL     1      38.976 -13.350   1.510  1.00  0.00     0.040 A 
HETATM   18  C   UNL     1      40.905 -10.777   0.086  1.00  0.00     0.352 A 
HETATM   19  C   UNL     1      39.435 -14.315   2.412  1.00  0.00     0.012 A 
ENDBRANCH  10  11
ENDBRANCH   7  10
ENDBRANCH   5   7
ENDBRANCH   1   5
BRANCH   2  20
HETATM   20  C   UNL     1      43.990 -18.879   4.381  1.00  0.00     0.045 A 
HETATM   21  C   UNL     1      43.699 -19.204   3.031  1.00  0.00     0.001 A 
HETATM   22  C   UNL     1      44.081 -20.462   2.532  1.00  0.00     0.014 A 
HETATM   23  C   UNL     1      44.738 -21.384   3.344  1.00  0.00     0.001 A 
HETATM   24  C   UNL     1      45.016 -21.063   4.667  1.00  0.00     0.002 A 
HETATM   25  C   UNL     1      44.645 -19.819   5.184  1.00  0.00     0.030 A 
BRANCH  21  26
HETATM   26  C   UNL     1      42.968 -18.287   2.143  1.00  0.00    -0.024 A 
HETATM   27  C   UNL     1      41.594 -18.449   1.907  1.00  0.00     0.012 A 
HETATM   28  C   UNL     1      40.919 -17.592   1.036  1.00  0.00     0.001 A 
HETATM   29  C   UNL     1      41.606 -16.562   0.394  1.00  0.00     0.000 A 
HETATM   30  C   UNL     1      42.968 -16.384   0.626  1.00  0.00     0.001 A 
HETATM   31  C   UNL     1      43.646 -17.242   1.494  1.00  0.00     0.012 A 
ENDBRANCH  21  26
ENDBRANCH   2  20
TORSDOF 6
ENDMDL
