MODEL 1
REMARK VINA RESULT:      -7.4      0.000      0.000
REMARK  9 active torsions:
REMARK  status: ('A' for Active; 'I' for Inactive)
REMARK    1  A    between atoms: C_2  and  C_3 
REMARK    2  A    between atoms: C_3  and  C_4 
REMARK    3  A    between atoms: C_7  and  C_8 
REMARK       I    between atoms: C_8  and  N_9 
REMARK    4  A    between atoms: C_13  and  O_14 
REMARK    5  A    between atoms: O_14  and  C_15 
REMARK    6  A    between atoms: C_15  and  C_16 
REMARK    7  A    between atoms: C_16  and  O_17 
REMARK    8  A    between atoms: C_19  and  N_20 
REMARK       I    between atoms: N_20  and  C_21 
REMARK    9  A    between atoms: C_21  and  C_22 
ROOT
HETATM    1  C   UNL     1      42.513 -16.133   5.287  1.00  0.00     0.274 C 
HETATM    2  N   UNL     1      42.607 -14.914   4.592  1.00  0.00    -0.347 N 
HETATM    3  C   UNL     1      43.016 -14.795   3.190  1.00  0.00     0.127 C 
HETATM    4  C   UNL     1      41.767 -14.735   2.312  1.00  0.00     0.037 C 
HETATM    5  C   UNL     1      40.858 -13.546   2.704  1.00  0.00     0.019 C 
HETATM    6  C   UNL     1      41.466 -12.141   2.313  1.00  0.00     0.162 C 
HETATM    7  C   UNL     1      40.287 -11.270   1.767  1.00  0.00     0.148 C 
HETATM    8  C   UNL     1      39.268 -12.301   1.381  1.00  0.00    -0.026 A 
HETATM    9  C   UNL     1      39.565 -13.559   1.911  1.00  0.00    -0.038 A 
HETATM   10  C   UNL     1      38.121 -12.091   0.625  1.00  0.00     0.010 A 
HETATM   11  C   UNL     1      37.257 -13.164   0.402  1.00  0.00     0.001 A 
HETATM   12  C   UNL     1      37.543 -14.424   0.942  1.00  0.00     0.001 A 
HETATM   13  C   UNL     1      38.698 -14.626   1.703  1.00  0.00     0.009 A 
HETATM   14  C   UNL     1      40.543 -13.616   4.223  1.00  0.00     0.037 C 
HETATM   15  C   UNL     1      41.813 -13.785   5.066  1.00  0.00     0.127 C 
HETATM   16  O   UNL     1      41.742 -16.260   6.241  1.00  0.00    -0.266 OA
ENDROOT
BRANCH   6  17
HETATM   17  O   UNL     1      42.486 -12.307   1.306  1.00  0.00    -0.380 OA
BRANCH  17  18
HETATM   18  C   UNL     1      42.355 -11.388   0.218  1.00  0.00     0.194 C 
BRANCH  18  19
HETATM   19  C   UNL     1      42.410 -12.162  -1.096  1.00  0.00     0.193 C 
BRANCH  19  20
HETATM   20  O   UNL     1      41.962 -13.499  -0.882  1.00  0.00    -0.394 OA
HETATM   21  C   UNL     1      40.789 -13.785  -1.632  1.00  0.00     0.201 C 
ENDBRANCH  19  20
ENDBRANCH  18  19
ENDBRANCH  17  18
ENDBRANCH   6  17
BRANCH   7  22
HETATM   22  N   UNL     1      39.725 -10.352   2.740  1.00  0.00    -0.350 N 
HETATM   23  C   UNL     1      40.129  -9.039   2.801  1.00  0.00     0.221 C 
HETATM   24  O   UNL     1      41.082  -8.613   2.158  1.00  0.00    -0.273 OA
HETATM   25  H   UNL     1      38.909 -10.650   3.259  1.00  0.00     0.163 HD
BRANCH  23  26
HETATM   26  C   UNL     1      39.284  -8.173   3.730  1.00  0.00     0.070 C 
HETATM   27  C   UNL     1      38.291  -9.024   4.518  1.00  0.00     0.019 C 
HETATM   28  C   UNL     1      40.184  -7.392   4.688  1.00  0.00     0.019 C 
ENDBRANCH  23  26
ENDBRANCH   7  22
BRANCH   1  29
HETATM   29  C   UNL     1      43.315 -17.289   4.854  1.00  0.00     0.154 A 
HETATM   30  N   UNL     1      44.253 -17.878   5.616  1.00  0.00    -0.123 NA
HETATM   31  O   UNL     1      44.810 -18.876   4.843  1.00  0.00    -0.217 OA
HETATM   32  C   UNL     1      44.160 -18.948   3.653  1.00  0.00     0.081 A 
HETATM   33  C   UNL     1      43.184 -17.984   3.620  1.00  0.00     0.074 A 
BRANCH  32  34
HETATM   34  C   UNL     1      44.654 -19.953   2.677  1.00  0.00     0.071 C 
BRANCH  34  35
HETATM   35  C   UNL     1      43.944 -21.315   2.769  1.00  0.00    -0.017 C 
HETATM   36  C   UNL     1      44.623 -22.260   3.766  1.00  0.00     0.010 C 
HETATM   37  C   UNL     1      43.920 -21.975   1.386  1.00  0.00     0.010 C 
ENDBRANCH  34  35
ENDBRANCH  32  34
ENDBRANCH   1  29
TORSDOF 9
ENDMDL
MODEL 2
REMARK VINA RESULT:      -7.2      2.747      4.585
REMARK  9 active torsions:
REMARK  status: ('A' for Active; 'I' for Inactive)
REMARK    1  A    between atoms: C_2  and  C_3 
REMARK    2  A    between atoms: C_3  and  C_4 
REMARK    3  A    between atoms: C_7  and  C_8 
REMARK       I    between atoms: C_8  and  N_9 
REMARK    4  A    between atoms: C_13  and  O_14 
REMARK    5  A    between atoms: O_14  and  C_15 
REMARK    6  A    between atoms: C_15  and  C_16 
REMARK    7  A    between atoms: C_16  and  O_17 
REMARK    8  A    between atoms: C_19  and  N_20 
REMARK       I    between atoms: N_20  and  C_21 
REMARK    9  A    between atoms: C_21  and  C_22 
ROOT
HETATM    1  C   UNL     1      42.272 -14.209   2.894  1.00  0.00     0.274 C 
HETATM    2  N   UNL     1      42.090 -14.094   1.503  1.00  0.00    -0.347 N 
HETATM    3  C   UNL     1      41.309 -15.034   0.695  1.00  0.00     0.127 C 
HETATM    4  C   UNL     1      39.895 -14.484   0.520  1.00  0.00     0.037 C 
HETATM    5  C   UNL     1      39.911 -13.090  -0.152  1.00  0.00     0.019 C 
HETATM    6  C   UNL     1      40.316 -13.138  -1.679  1.00  0.00     0.162 C 
HETATM    7  C   UNL     1      39.384 -12.132  -2.430  1.00  0.00     0.148 C 
HETATM    8  C   UNL     1      38.228 -11.985  -1.484  1.00  0.00    -0.026 A 
HETATM    9  C   UNL     1      38.517 -12.495  -0.217  1.00  0.00    -0.038 A 
HETATM   10  C   UNL     1      37.003 -11.388  -1.759  1.00  0.00     0.010 A 
HETATM   11  C   UNL     1      36.056 -11.300  -0.738  1.00  0.00     0.001 A 
HETATM   12  C   UNL     1      36.345 -11.797   0.538  1.00  0.00     0.001 A 
HETATM   13  C   UNL     1      37.580 -12.394   0.806  1.00  0.00     0.009 A 
HETATM   14  C   UNL     1      40.849 -12.143   0.645  1.00  0.00     0.037 C 
HETATM   15  C   UNL     1      42.225 -12.774   0.895  1.00  0.00     0.127 C 
HETATM   16  O   UNL     1      42.491 -13.214   3.587  1.00  0.00    -0.266 OA
ENDROOT
BRANCH   6  17
HETATM   17  O   UNL     1      40.142 -14.475  -2.194  1.00  0.00    -0.380 OA
BRANCH  17  18
HETATM   18  C   UNL     1      39.785 -14.501  -3.579  1.00  0.00     0.194 C 
BRANCH  18  19
HETATM   19  C   UNL     1      39.262 -15.890  -3.931  1.00  0.00     0.193 C 
BRANCH  19  20
HETATM   20  O   UNL     1      38.021 -15.772  -4.623  1.00  0.00    -0.394 OA
HETATM   21  C   UNL     1      37.173 -14.807  -4.017  1.00  0.00     0.201 C 
ENDBRANCH  19  20
ENDBRANCH  18  19
ENDBRANCH  17  18
ENDBRANCH   6  17
BRANCH   7  22
HETATM   22  N   UNL     1      39.989 -10.837  -2.682  1.00  0.00    -0.350 N 
HETATM   23  C   UNL     1      40.930 -10.668  -3.671  1.00  0.00     0.221 C 
HETATM   24  O   UNL     1      41.423 -11.611  -4.280  1.00  0.00    -0.273 OA
HETATM   25  H   UNL     1      39.582 -10.026  -2.234  1.00  0.00     0.163 HD
BRANCH  23  26
HETATM   26  C   UNL     1      41.294  -9.210  -3.938  1.00  0.00     0.070 C 
HETATM   27  C   UNL     1      42.138  -8.641  -2.800  1.00  0.00     0.019 C 
HETATM   28  C   UNL     1      42.046  -9.087  -5.263  1.00  0.00     0.019 C 
ENDBRANCH  23  26
ENDBRANCH   7  22
BRANCH   1  29
HETATM   29  C   UNL     1      42.168 -15.527   3.541  1.00  0.00     0.154 A 
HETATM   30  N   UNL     1      41.104 -15.929   4.258  1.00  0.00    -0.123 NA
HETATM   31  O   UNL     1      41.410 -17.186   4.736  1.00  0.00    -0.217 OA
HETATM   32  C   UNL     1      42.615 -17.580   4.246  1.00  0.00     0.081 A 
HETATM   33  C   UNL     1      43.123 -16.578   3.459  1.00  0.00     0.074 A 
BRANCH  32  34
HETATM   34  C   UNL     1      43.120 -18.904   4.689  1.00  0.00     0.071 C 
BRANCH  34  35
HETATM   35  C   UNL     1      44.257 -19.463   3.814  1.00  0.00    -0.017 C 
HETATM   36  C   UNL     1      43.747 -20.027   2.484  1.00  0.00     0.010 C 
HETATM   37  C   UNL     1      44.996 -20.567   4.579  1.00  0.00     0.010 C 
ENDBRANCH  34  35
ENDBRANCH  32  34
ENDBRANCH   1  29
TORSDOF 9
ENDMDL
MODEL 3
REMARK VINA RESULT:      -7.1      3.446      7.309
REMARK  9 active torsions:
REMARK  status: ('A' for Active; 'I' for Inactive)
REMARK    1  A    between atoms: C_2  and  C_3 
REMARK    2  A    between atoms: C_3  and  C_4 
REMARK    3  A    between atoms: C_7  and  C_8 
REMARK       I    between atoms: C_8  and  N_9 
REMARK    4  A    between atoms: C_13  and  O_14 
REMARK    5  A    between atoms: O_14  and  C_15 
REMARK    6  A    between atoms: C_15  and  C_16 
REMARK    7  A    between atoms: C_16  and  O_17 
REMARK    8  A    between atoms: C_19  and  N_20 
REMARK       I    between atoms: N_20  and  C_21 
REMARK    9  A    between atoms: C_21  and  C_22 
ROOT
HETATM    1  C   UNL     1      39.471 -11.355   5.183  1.00  0.00     0.274 C 
HETATM    2  N   UNL     1      39.895 -11.415   3.843  1.00  0.00    -0.347 N 
HETATM    3  C   UNL     1      41.298 -11.466   3.426  1.00  0.00     0.127 C 
HETATM    4  C   UNL     1      41.696 -12.923   3.194  1.00  0.00     0.037 C 
HETATM    5  C   UNL     1      40.797 -13.589   2.125  1.00  0.00     0.019 C 
HETATM    6  C   UNL     1      41.068 -13.055   0.662  1.00  0.00     0.162 C 
HETATM    7  C   UNL     1      41.016 -14.293  -0.292  1.00  0.00     0.148 C 
HETATM    8  C   UNL     1      41.254 -15.441   0.645  1.00  0.00    -0.026 A 
HETATM    9  C   UNL     1      41.116 -15.066   1.983  1.00  0.00    -0.038 A 
HETATM   10  C   UNL     1      41.540 -16.755   0.291  1.00  0.00     0.010 A 
HETATM   11  C   UNL     1      41.686 -17.705   1.301  1.00  0.00     0.001 A 
HETATM   12  C   UNL     1      41.535 -17.338   2.644  1.00  0.00     0.001 A 
HETATM   13  C   UNL     1      41.246 -16.015   2.990  1.00  0.00     0.009 A 
HETATM   14  C   UNL     1      39.306 -13.409   2.518  1.00  0.00     0.037 C 
HETATM   15  C   UNL     1      38.971 -11.949   2.848  1.00  0.00     0.127 C 
HETATM   16  O   UNL     1      38.366 -11.789   5.516  1.00  0.00    -0.266 OA
ENDROOT
BRANCH   6  17
HETATM   17  O   UNL     1      42.362 -12.419   0.601  1.00  0.00    -0.380 OA
BRANCH  17  18
HETATM   18  C   UNL     1      42.323 -11.123  -0.004  1.00  0.00     0.194 C 
BRANCH  18  19
HETATM   19  C   UNL     1      43.115 -11.159  -1.307  1.00  0.00     0.193 C 
BRANCH  19  20
HETATM   20  O   UNL     1      44.200 -10.236  -1.232  1.00  0.00    -0.394 OA
HETATM   21  C   UNL     1      43.744  -8.908  -1.013  1.00  0.00     0.201 C 
ENDBRANCH  19  20
ENDBRANCH  18  19
ENDBRANCH  17  18
ENDBRANCH   6  17
BRANCH   7  22
HETATM   22  N   UNL     1      39.748 -14.462  -0.977  1.00  0.00    -0.350 N 
HETATM   23  C   UNL     1      39.640 -14.281  -2.336  1.00  0.00     0.221 C 
HETATM   24  O   UNL     1      40.552 -13.819  -3.013  1.00  0.00    -0.273 OA
HETATM   25  H   UNL     1      38.983 -14.883  -0.465  1.00  0.00     0.163 HD
BRANCH  23  26
HETATM   26  C   UNL     1      38.294 -14.708  -2.914  1.00  0.00     0.070 C 
HETATM   27  C   UNL     1      37.528 -13.505  -3.459  1.00  0.00     0.019 C 
HETATM   28  C   UNL     1      38.498 -15.747  -4.016  1.00  0.00     0.019 C 
ENDBRANCH  23  26
ENDBRANCH   7  22
BRANCH   1  29
HETATM   29  C   UNL     1      40.365 -10.801   6.212  1.00  0.00     0.154 A 
HETATM   30  N   UNL     1      40.571  -9.485   6.397  1.00  0.00    -0.123 NA
HETATM   31  O   UNL     1      41.503  -9.377   7.408  1.00  0.00    -0.217 OA
HETATM   32  C   UNL     1      41.799 -10.612   7.890  1.00  0.00     0.081 A 
HETATM   33  C   UNL     1      41.082 -11.546   7.187  1.00  0.00     0.074 A 
BRANCH  32  34
HETATM   34  C   UNL     1      42.819 -10.686   8.968  1.00  0.00     0.071 C 
BRANCH  34  35
HETATM   35  C   UNL     1      42.360 -10.075  10.304  1.00  0.00    -0.017 C 
HETATM   36  C   UNL     1      43.508  -9.943  11.310  1.00  0.00     0.010 C 
HETATM   37  C   UNL     1      41.255 -10.945  10.913  1.00  0.00     0.010 C 
ENDBRANCH  34  35
ENDBRANCH  32  34
ENDBRANCH   1  29
TORSDOF 9
ENDMDL
MODEL 4
REMARK VINA RESULT:      -7.1      2.700      7.750
REMARK  9 active torsions:
REMARK  status: ('A' for Active; 'I' for Inactive)
REMARK    1  A    between atoms: C_2  and  C_3 
REMARK    2  A    between atoms: C_3  and  C_4 
REMARK    3  A    between atoms: C_7  and  C_8 
REMARK       I    between atoms: C_8  and  N_9 
REMARK    4  A    between atoms: C_13  and  O_14 
REMARK    5  A    between atoms: O_14  and  C_15 
REMARK    6  A    between atoms: C_15  and  C_16 
REMARK    7  A    between atoms: C_16  and  O_17 
REMARK    8  A    between atoms: C_19  and  N_20 
REMARK       I    between atoms: N_20  and  C_21 
REMARK    9  A    between atoms: C_21  and  C_22 
ROOT
HETATM    1  C   UNL     1      41.575 -12.794   0.514  1.00  0.00     0.274 C 
HETATM    2  N   UNL     1      41.436 -13.137   1.871  1.00  0.00    -0.347 N 
HETATM    3  C   UNL     1      40.428 -14.067   2.386  1.00  0.00     0.127 C 
HETATM    4  C   UNL     1      41.053 -15.455   2.515  1.00  0.00     0.037 C 
HETATM    5  C   UNL     1      42.285 -15.434   3.451  1.00  0.00     0.019 C 
HETATM    6  C   UNL     1      41.911 -15.222   4.971  1.00  0.00     0.162 C 
HETATM    7  C   UNL     1      42.830 -16.174   5.804  1.00  0.00     0.148 C 
HETATM    8  C   UNL     1      43.253 -17.195   4.790  1.00  0.00    -0.026 A 
HETATM    9  C   UNL     1      42.973 -16.786   3.484  1.00  0.00    -0.038 A 
HETATM   10  C   UNL     1      43.888 -18.405   5.045  1.00  0.00     0.010 A 
HETATM   11  C   UNL     1      44.251 -19.213   3.968  1.00  0.00     0.001 A 
HETATM   12  C   UNL     1      43.986 -18.802   2.656  1.00  0.00     0.001 A 
HETATM   13  C   UNL     1      43.348 -17.583   2.408  1.00  0.00     0.009 A 
HETATM   14  C   UNL     1      43.284 -14.349   2.965  1.00  0.00     0.037 C 
HETATM   15  C   UNL     1      42.598 -12.995   2.742  1.00  0.00     0.127 C 
HETATM   16  O   UNL     1      42.662 -12.430   0.061  1.00  0.00    -0.266 OA
ENDROOT
BRANCH   6  17
HETATM   17  O   UNL     1      40.520 -15.541   5.186  1.00  0.00    -0.380 OA
BRANCH  17  18
HETATM   18  C   UNL     1      39.890 -14.687   6.146  1.00  0.00     0.194 C 
BRANCH  18  19
HETATM   19  C   UNL     1      39.523 -13.368   5.472  1.00  0.00     0.193 C 
BRANCH  19  20
HETATM   20  O   UNL     1      38.834 -12.533   6.400  1.00  0.00    -0.394 OA
HETATM   21  C   UNL     1      39.737 -11.764   7.183  1.00  0.00     0.201 C 
ENDBRANCH  19  20
ENDBRANCH  18  19
ENDBRANCH  17  18
ENDBRANCH   6  17
BRANCH   7  22
HETATM   22  N   UNL     1      43.996 -15.525   6.375  1.00  0.00    -0.350 N 
HETATM   23  C   UNL     1      43.979 -14.192   6.711  1.00  0.00     0.221 C 
HETATM   24  O   UNL     1      43.053 -13.447   6.408  1.00  0.00    -0.273 OA
HETATM   25  H   UNL     1      44.763 -16.109   6.681  1.00  0.00     0.163 HD
BRANCH  23  26
HETATM   26  C   UNL     1      45.207 -13.733   7.492  1.00  0.00     0.070 C 
HETATM   27  C   UNL     1      46.319 -13.284   6.547  1.00  0.00     0.019 C 
HETATM   28  C   UNL     1      44.835 -12.597   8.445  1.00  0.00     0.019 C 
ENDBRANCH  23  26
ENDBRANCH   7  22
BRANCH   1  29
HETATM   29  C   UNL     1      40.419 -12.900  -0.392  1.00  0.00     0.154 A 
HETATM   30  N   UNL     1      39.811 -11.845  -0.960  1.00  0.00    -0.123 NA
HETATM   31  O   UNL     1      38.754 -12.350  -1.687  1.00  0.00    -0.217 OA
HETATM   32  C   UNL     1      38.768 -13.707  -1.630  1.00  0.00     0.081 A 
HETATM   33  C   UNL     1      39.821 -14.108  -0.847  1.00  0.00     0.074 A 
BRANCH  32  34
HETATM   34  C   UNL     1      37.672 -14.421  -2.333  1.00  0.00     0.071 C 
BRANCH  34  35
HETATM   35  C   UNL     1      37.855 -14.495  -3.860  1.00  0.00    -0.017 C 
HETATM   36  C   UNL     1      36.523 -14.412  -4.612  1.00  0.00     0.010 C 
HETATM   37  C   UNL     1      38.559 -15.806  -4.228  1.00  0.00     0.010 C 
ENDBRANCH  34  35
ENDBRANCH  32  34
ENDBRANCH   1  29
TORSDOF 9
ENDMDL
MODEL 5
REMARK VINA RESULT:      -7.0      2.243      2.904
REMARK  9 active torsions:
REMARK  status: ('A' for Active; 'I' for Inactive)
REMARK    1  A    between atoms: C_2  and  C_3 
REMARK    2  A    between atoms: C_3  and  C_4 
REMARK    3  A    between atoms: C_7  and  C_8 
REMARK       I    between atoms: C_8  and  N_9 
REMARK    4  A    between atoms: C_13  and  O_14 
REMARK    5  A    between atoms: O_14  and  C_15 
REMARK    6  A    between atoms: C_15  and  C_16 
REMARK    7  A    between atoms: C_16  and  O_17 
REMARK    8  A    between atoms: C_19  and  N_20 
REMARK       I    between atoms: N_20  and  C_21 
REMARK    9  A    between atoms: C_21  and  C_22 
ROOT
HETATM    1  C   UNL     1      42.719 -15.279   4.119  1.00  0.00     0.274 C 
HETATM    2  N   UNL     1      42.866 -14.695   2.848  1.00  0.00    -0.347 N 
HETATM    3  C   UNL     1      42.573 -15.383   1.588  1.00  0.00     0.127 C 
HETATM    4  C   UNL     1      41.155 -15.024   1.144  1.00  0.00     0.037 C 
HETATM    5  C   UNL     1      40.989 -13.496   0.968  1.00  0.00     0.019 C 
HETATM    6  C   UNL     1      41.760 -12.925  -0.288  1.00  0.00     0.162 C 
HETATM    7  C   UNL     1      40.824 -11.866  -0.956  1.00  0.00     0.148 C 
HETATM    8  C   UNL     1      39.470 -12.247  -0.433  1.00  0.00    -0.026 A 
HETATM    9  C   UNL     1      39.552 -13.133   0.643  1.00  0.00    -0.038 A 
HETATM   10  C   UNL     1      38.243 -11.782  -0.891  1.00  0.00     0.010 A 
HETATM   11  C   UNL     1      37.081 -12.212  -0.251  1.00  0.00     0.001 A 
HETATM   12  C   UNL     1      37.157 -13.090   0.837  1.00  0.00     0.001 A 
HETATM   13  C   UNL     1      38.395 -13.552   1.292  1.00  0.00     0.009 A 
HETATM   14  C   UNL     1      41.431 -12.775   2.270  1.00  0.00     0.037 C 
HETATM   15  C   UNL     1      42.813 -13.240   2.744  1.00  0.00     0.127 C 
HETATM   16  O   UNL     1      42.502 -14.582   5.113  1.00  0.00    -0.266 OA
ENDROOT
BRANCH   6  17
HETATM   17  O   UNL     1      42.060 -13.994  -1.210  1.00  0.00    -0.380 OA
BRANCH  17  18
HETATM   18  C   UNL     1      41.531 -13.770  -2.520  1.00  0.00     0.194 C 
BRANCH  18  19
HETATM   19  C   UNL     1      41.473 -15.099  -3.267  1.00  0.00     0.193 C 
BRANCH  19  20
HETATM   20  O   UNL     1      40.224 -15.214  -3.943  1.00  0.00    -0.394 OA
HETATM   21  C   UNL     1      39.294 -14.235  -3.497  1.00  0.00     0.201 C 
ENDBRANCH  19  20
ENDBRANCH  18  19
ENDBRANCH  17  18
ENDBRANCH   6  17
BRANCH   7  22
HETATM   22  N   UNL     1      41.129 -10.493  -0.597  1.00  0.00    -0.350 N 
HETATM   23  C   UNL     1      42.086  -9.774  -1.273  1.00  0.00     0.221 C 
HETATM   24  O   UNL     1      42.837 -10.286  -2.095  1.00  0.00    -0.273 OA
HETATM   25  H   UNL     1      40.505 -10.020   0.044  1.00  0.00     0.163 HD
BRANCH  23  26
HETATM   26  C   UNL     1      42.121  -8.293  -0.908  1.00  0.00     0.070 C 
HETATM   27  C   UNL     1      41.272  -8.015   0.330  1.00  0.00     0.019 C 
HETATM   28  C   UNL     1      43.562  -7.840  -0.671  1.00  0.00     0.019 C 
ENDBRANCH  23  26
ENDBRANCH   7  22
BRANCH   1  29
HETATM   29  C   UNL     1      42.790 -16.741   4.269  1.00  0.00     0.154 A 
HETATM   30  N   UNL     1      41.760 -17.505   4.673  1.00  0.00    -0.123 NA
HETATM   31  O   UNL     1      42.237 -18.798   4.735  1.00  0.00    -0.217 OA
HETATM   32  C   UNL     1      43.521 -18.833   4.292  1.00  0.00     0.081 A 
HETATM   33  C   UNL     1      43.909 -17.561   3.956  1.00  0.00     0.074 A 
BRANCH  32  34
HETATM   34  C   UNL     1      44.207 -20.150   4.323  1.00  0.00     0.071 C 
BRANCH  34  35
HETATM   35  C   UNL     1      44.466 -20.751   2.929  1.00  0.00    -0.017 C 
HETATM   36  C   UNL     1      43.404 -20.334   1.907  1.00  0.00     0.010 C 
HETATM   37  C   UNL     1      44.496 -22.280   3.029  1.00  0.00     0.010 C 
ENDBRANCH  34  35
ENDBRANCH  32  34
ENDBRANCH   1  29
TORSDOF 9
ENDMDL
MODEL 6
REMARK VINA RESULT:      -6.9      2.523      4.327
REMARK  9 active torsions:
REMARK  status: ('A' for Active; 'I' for Inactive)
REMARK    1  A    between atoms: C_2  and  C_3 
REMARK    2  A    between atoms: C_3  and  C_4 
REMARK    3  A    between atoms: C_7  and  C_8 
REMARK       I    between atoms: C_8  and  N_9 
REMARK    4  A    between atoms: C_13  and  O_14 
REMARK    5  A    between atoms: O_14  and  C_15 
REMARK    6  A    between atoms: C_15  and  C_16 
REMARK    7  A    between atoms: C_16  and  O_17 
REMARK    8  A    between atoms: C_19  and  N_20 
REMARK       I    between atoms: N_20  and  C_21 
REMARK    9  A    between atoms: C_21  and  C_22 
ROOT
HETATM    1  C   UNL     1      41.206 -17.116   2.117  1.00  0.00     0.274 C 
HETATM    2  N   UNL     1      40.812 -15.798   2.412  1.00  0.00    -0.347 N 
HETATM    3  C   UNL     1      41.717 -14.762   2.914  1.00  0.00     0.127 C 
HETATM    4  C   UNL     1      42.212 -13.922   1.738  1.00  0.00     0.037 C 
HETATM    5  C   UNL     1      41.034 -13.274   0.972  1.00  0.00     0.019 C 
HETATM    6  C   UNL     1      40.324 -12.117   1.782  1.00  0.00     0.162 C 
HETATM    7  C   UNL     1      40.010 -10.974   0.762  1.00  0.00     0.148 C 
HETATM    8  C   UNL     1      40.963 -11.262  -0.360  1.00  0.00    -0.026 A 
HETATM    9  C   UNL     1      41.519 -12.539  -0.263  1.00  0.00    -0.038 A 
HETATM   10  C   UNL     1      41.270 -10.421  -1.423  1.00  0.00     0.010 A 
HETATM   11  C   UNL     1      42.150 -10.876  -2.406  1.00  0.00     0.001 A 
HETATM   12  C   UNL     1      42.700 -12.160  -2.321  1.00  0.00     0.001 A 
HETATM   13  C   UNL     1      42.385 -13.000  -1.250  1.00  0.00     0.009 A 
HETATM   14  C   UNL     1      40.017 -14.374   0.563  1.00  0.00     0.037 C 
HETATM   15  C   UNL     1      39.626 -15.266   1.748  1.00  0.00     0.127 C 
HETATM   16  O   UNL     1      40.595 -17.787   1.282  1.00  0.00    -0.266 OA
ENDROOT
BRANCH   6  17
HETATM   17  O   UNL     1      41.196 -11.640   2.828  1.00  0.00    -0.380 OA
BRANCH  17  18
HETATM   18  C   UNL     1      40.503 -11.335   4.041  1.00  0.00     0.194 C 
BRANCH  18  19
HETATM   19  C   UNL     1      39.211 -12.145   4.092  1.00  0.00     0.193 C 
BRANCH  19  20
HETATM   20  O   UNL     1      38.564 -11.933   5.345  1.00  0.00    -0.394 OA
HETATM   21  C   UNL     1      39.327 -12.455   6.424  1.00  0.00     0.201 C 
ENDBRANCH  19  20
ENDBRANCH  18  19
ENDBRANCH  17  18
ENDBRANCH   6  17
BRANCH   7  22
HETATM   22  N   UNL     1      38.644 -10.976   0.270  1.00  0.00    -0.350 N 
HETATM   23  C   UNL     1      37.672 -10.202   0.858  1.00  0.00     0.221 C 
HETATM   24  O   UNL     1      37.856  -9.598   1.909  1.00  0.00    -0.273 OA
HETATM   25  H   UNL     1      38.459 -11.424  -0.618  1.00  0.00     0.163 HD
BRANCH  23  26
HETATM   26  C   UNL     1      36.358 -10.162   0.083  1.00  0.00     0.070 C 
HETATM   27  C   UNL     1      36.607 -10.269  -1.420  1.00  0.00     0.019 C 
HETATM   28  C   UNL     1      35.437 -11.291   0.546  1.00  0.00     0.019 C 
ENDBRANCH  23  26
ENDBRANCH   7  22
BRANCH   1  29
HETATM   29  C   UNL     1      42.382 -17.698   2.784  1.00  0.00     0.154 A 
HETATM   30  N   UNL     1      43.582 -17.844   2.197  1.00  0.00    -0.123 NA
HETATM   31  O   UNL     1      44.393 -18.468   3.122  1.00  0.00    -0.217 OA
HETATM   32  C   UNL     1      43.718 -18.625   4.290  1.00  0.00     0.081 A 
HETATM   33  C   UNL     1      42.449 -18.126   4.139  1.00  0.00     0.074 A 
BRANCH  32  34
HETATM   34  C   UNL     1      44.434 -19.315   5.393  1.00  0.00     0.071 C 
BRANCH  34  35
HETATM   35  C   UNL     1      43.601 -19.466   6.679  1.00  0.00    -0.017 C 
HETATM   36  C   UNL     1      44.103 -18.561   7.808  1.00  0.00     0.010 C 
HETATM   37  C   UNL     1      43.644 -20.925   7.148  1.00  0.00     0.010 C 
ENDBRANCH  34  35
ENDBRANCH  32  34
ENDBRANCH   1  29
TORSDOF 9
ENDMDL
MODEL 7
REMARK VINA RESULT:      -6.8      2.309      4.071
REMARK  9 active torsions:
REMARK  status: ('A' for Active; 'I' for Inactive)
REMARK    1  A    between atoms: C_2  and  C_3 
REMARK    2  A    between atoms: C_3  and  C_4 
REMARK    3  A    between atoms: C_7  and  C_8 
REMARK       I    between atoms: C_8  and  N_9 
REMARK    4  A    between atoms: C_13  and  O_14 
REMARK    5  A    between atoms: O_14  and  C_15 
REMARK    6  A    between atoms: C_15  and  C_16 
REMARK    7  A    between atoms: C_16  and  O_17 
REMARK    8  A    between atoms: C_19  and  N_20 
REMARK       I    between atoms: N_20  and  C_21 
REMARK    9  A    between atoms: C_21  and  C_22 
ROOT
HETATM    1  C   UNL     1      41.085 -16.532   2.763  1.00  0.00     0.274 C 
HETATM    2  N   UNL     1      40.854 -15.334   3.462  1.00  0.00    -0.347 N 
HETATM    3  C   UNL     1      41.909 -14.516   4.066  1.00  0.00     0.127 C 
HETATM    4  C   UNL     1      42.293 -13.403   3.093  1.00  0.00     0.037 C 
HETATM    5  C   UNL     1      41.074 -12.520   2.736  1.00  0.00     0.019 C 
HETATM    6  C   UNL     1      40.594 -11.606   3.933  1.00  0.00     0.162 C 
HETATM    7  C   UNL     1      40.230 -10.212   3.326  1.00  0.00     0.148 C 
HETATM    8  C   UNL     1      40.978 -10.215   2.024  1.00  0.00    -0.026 A 
HETATM    9  C   UNL     1      41.431 -11.490   1.681  1.00  0.00    -0.038 A 
HETATM   10  C   UNL     1      41.195  -9.124   1.190  1.00  0.00     0.010 A 
HETATM   11  C   UNL     1      41.876  -9.323  -0.011  1.00  0.00     0.001 A 
HETATM   12  C   UNL     1      42.321 -10.601  -0.367  1.00  0.00     0.001 A 
HETATM   13  C   UNL     1      42.098 -11.693   0.477  1.00  0.00     0.009 A 
HETATM   14  C   UNL     1      39.917 -13.419   2.222  1.00  0.00     0.037 C 
HETATM   15  C   UNL     1      39.632 -14.589   3.172  1.00  0.00     0.127 C 
HETATM   16  O   UNL     1      40.302 -16.918   1.892  1.00  0.00    -0.266 OA
ENDROOT
BRANCH   6  17
HETATM   17  O   UNL     1      41.650 -11.476   4.909  1.00  0.00    -0.380 OA
BRANCH  17  18
HETATM   18  C   UNL     1      41.165 -11.378   6.251  1.00  0.00     0.194 C 
BRANCH  18  19
HETATM   19  C   UNL     1      39.986 -12.330   6.425  1.00  0.00     0.193 C 
BRANCH  19  20
HETATM   20  O   UNL     1      39.103 -11.821   7.421  1.00  0.00    -0.394 OA
HETATM   21  C   UNL     1      39.779 -10.969   8.335  1.00  0.00     0.201 C 
ENDBRANCH  19  20
ENDBRANCH  18  19
ENDBRANCH  17  18
ENDBRANCH   6  17
BRANCH   7  22
HETATM   22  N   UNL     1      38.811 -10.020   3.086  1.00  0.00    -0.350 N 
HETATM   23  C   UNL     1      37.974  -9.567   4.077  1.00  0.00     0.221 C 
HETATM   24  O   UNL     1      38.335  -9.453   5.243  1.00  0.00    -0.273 OA
HETATM   25  H   UNL     1      38.481 -10.062   2.130  1.00  0.00     0.163 HD
BRANCH  23  26
HETATM   26  C   UNL     1      36.570  -9.220   3.592  1.00  0.00     0.070 C 
HETATM   27  C   UNL     1      35.922  -8.174   4.497  1.00  0.00     0.019 C 
HETATM   28  C   UNL     1      36.617  -8.713   2.151  1.00  0.00     0.019 C 
ENDBRANCH  23  26
ENDBRANCH   7  22
BRANCH   1  29
HETATM   29  C   UNL     1      42.293 -17.325   3.044  1.00  0.00     0.154 A 
HETATM   30  N   UNL     1      43.454 -17.183   2.382  1.00  0.00    -0.123 NA
HETATM   31  O   UNL     1      44.314 -18.131   2.897  1.00  0.00    -0.217 OA
HETATM   32  C   UNL     1      43.708 -18.787   3.921  1.00  0.00     0.081 A 
HETATM   33  C   UNL     1      42.437 -18.294   4.075  1.00  0.00     0.074 A 
BRANCH  32  34
HETATM   34  C   UNL     1      44.482 -19.874   4.574  1.00  0.00     0.071 C 
BRANCH  34  35
HETATM   35  C   UNL     1      44.855 -21.030   3.629  1.00  0.00    -0.017 C 
HETATM   36  C   UNL     1      43.899 -21.141   2.437  1.00  0.00     0.010 C 
HETATM   37  C   UNL     1      44.845 -22.351   4.407  1.00  0.00     0.010 C 
ENDBRANCH  34  35
ENDBRANCH  32  34
ENDBRANCH   1  29
TORSDOF 9
ENDMDL
MODEL 8
REMARK VINA RESULT:      -6.6      3.348      5.310
REMARK  9 active torsions:
REMARK  status: ('A' for Active; 'I' for Inactive)
REMARK    1  A    between atoms: C_2  and  C_3 
REMARK    2  A    between atoms: C_3  and  C_4 
REMARK    3  A    between atoms: C_7  and  C_8 
REMARK       I    between atoms: C_8  and  N_9 
REMARK    4  A    between atoms: C_13  and  O_14 
REMARK    5  A    between atoms: O_14  and  C_15 
REMARK    6  A    between atoms: C_15  and  C_16 
REMARK    7  A    between atoms: C_16  and  O_17 
REMARK    8  A    between atoms: C_19  and  N_20 
REMARK       I    between atoms: N_20  and  C_21 
REMARK    9  A    between atoms: C_21  and  C_22 
ROOT
HETATM    1  C   UNL     1      41.426 -13.608   1.968  1.00  0.00     0.274 C 
HETATM    2  N   UNL     1      40.874 -13.673   0.676  1.00  0.00    -0.347 N 
HETATM    3  C   UNL     1      39.819 -14.609   0.278  1.00  0.00     0.127 C 
HETATM    4  C   UNL     1      38.466 -13.907   0.383  1.00  0.00     0.037 C 
HETATM    5  C   UNL     1      38.417 -12.641  -0.505  1.00  0.00     0.019 C 
HETATM    6  C   UNL     1      38.374 -12.965  -2.051  1.00  0.00     0.162 C 
HETATM    7  C   UNL     1      37.362 -11.964  -2.699  1.00  0.00     0.148 C 
HETATM    8  C   UNL     1      36.533 -11.529  -1.526  1.00  0.00    -0.026 A 
HETATM    9  C   UNL     1      37.118 -11.882  -0.308  1.00  0.00    -0.038 A 
HETATM   10  C   UNL     1      35.338 -10.821  -1.573  1.00  0.00     0.010 A 
HETATM   11  C   UNL     1      34.725 -10.459  -0.373  1.00  0.00     0.001 A 
HETATM   12  C   UNL     1      35.314 -10.799   0.851  1.00  0.00     0.001 A 
HETATM   13  C   UNL     1      36.516 -11.510   0.889  1.00  0.00     0.009 A 
HETATM   14  C   UNL     1      39.620 -11.721  -0.160  1.00  0.00     0.037 C 
HETATM   15  C   UNL     1      40.950 -12.486  -0.170  1.00  0.00     0.127 C 
HETATM   16  O   UNL     1      41.917 -12.560   2.393  1.00  0.00    -0.266 OA
ENDROOT
BRANCH   6  17
HETATM   17  O   UNL     1      37.946 -14.327  -2.259  1.00  0.00    -0.380 OA
BRANCH  17  18
HETATM   18  C   UNL     1      38.402 -14.876  -3.498  1.00  0.00     0.194 C 
BRANCH  18  19
HETATM   19  C   UNL     1      39.737 -15.579  -3.270  1.00  0.00     0.193 C 
BRANCH  19  20
HETATM   20  O   UNL     1      40.750 -14.945  -4.046  1.00  0.00    -0.394 OA
HETATM   21  C   UNL     1      41.647 -14.202  -3.232  1.00  0.00     0.201 C 
ENDBRANCH  19  20
ENDBRANCH  18  19
ENDBRANCH  17  18
ENDBRANCH   6  17
BRANCH   7  22
HETATM   22  N   UNL     1      37.984 -10.811  -3.325  1.00  0.00    -0.350 N 
HETATM   23  C   UNL     1      37.658 -10.430  -4.604  1.00  0.00     0.221 C 
HETATM   24  O   UNL     1      36.956 -11.118  -5.338  1.00  0.00    -0.273 OA
HETATM   25  H   UNL     1      38.535 -10.193  -2.743  1.00  0.00     0.163 HD
BRANCH  23  26
HETATM   26  C   UNL     1      38.242  -9.083  -5.019  1.00  0.00     0.070 C 
HETATM   27  C   UNL     1      38.461  -8.185  -3.803  1.00  0.00     0.019 C 
HETATM   28  C   UNL     1      39.559  -9.285  -5.768  1.00  0.00     0.019 C 
ENDBRANCH  23  26
ENDBRANCH   7  22
BRANCH   1  29
HETATM   29  C   UNL     1      41.391 -14.792   2.842  1.00  0.00     0.154 A 
HETATM   30  N   UNL     1      40.545 -14.936   3.877  1.00  0.00    -0.123 NA
HETATM   31  O   UNL     1      40.858 -16.141   4.470  1.00  0.00    -0.217 OA
HETATM   32  C   UNL     1      41.830 -16.763   3.753  1.00  0.00     0.081 A 
HETATM   33  C   UNL     1      42.181 -15.965   2.694  1.00  0.00     0.074 A 
BRANCH  32  34
HETATM   34  C   UNL     1      42.317 -18.067   4.272  1.00  0.00     0.071 C 
BRANCH  34  35
HETATM   35  C   UNL     1      43.667 -18.509   3.680  1.00  0.00    -0.017 C 
HETATM   36  C   UNL     1      43.500 -19.479   2.506  1.00  0.00     0.010 C 
HETATM   37  C   UNL     1      44.509 -19.180   4.771  1.00  0.00     0.010 C 
ENDBRANCH  34  35
ENDBRANCH  32  34
ENDBRANCH   1  29
TORSDOF 9
ENDMDL
MODEL 9
REMARK VINA RESULT:      -6.4      3.582      4.889
REMARK  9 active torsions:
REMARK  status: ('A' for Active; 'I' for Inactive)
REMARK    1  A    between atoms: C_2  and  C_3 
REMARK    2  A    between atoms: C_3  and  C_4 
REMARK    3  A    between atoms: C_7  and  C_8 
REMARK       I    between atoms: C_8  and  N_9 
REMARK    4  A    between atoms: C_13  and  O_14 
REMARK    5  A    between atoms: O_14  and  C_15 
REMARK    6  A    between atoms: C_15  and  C_16 
REMARK    7  A    between atoms: C_16  and  O_17 
REMARK    8  A    between atoms: C_19  and  N_20 
REMARK       I    between atoms: N_20  and  C_21 
REMARK    9  A    between atoms: C_21  and  C_22 
ROOT
HETATM    1  C   UNL     1      40.052 -15.355   1.805  1.00  0.00     0.274 C 
HETATM    2  N   UNL     1      39.916 -14.097   1.189  1.00  0.00    -0.347 N 
HETATM    3  C   UNL     1      40.740 -13.636   0.070  1.00  0.00     0.127 C 
HETATM    4  C   UNL     1      39.999 -13.908  -1.238  1.00  0.00     0.037 C 
HETATM    5  C   UNL     1      38.622 -13.202  -1.264  1.00  0.00     0.019 C 
HETATM    6  C   UNL     1      38.730 -11.631  -1.398  1.00  0.00     0.162 C 
HETATM    7  C   UNL     1      37.605 -11.179  -2.386  1.00  0.00     0.148 C 
HETATM    8  C   UNL     1      37.297 -12.443  -3.134  1.00  0.00    -0.026 A 
HETATM    9  C   UNL     1      37.839 -13.569  -2.510  1.00  0.00    -0.038 A 
HETATM   10  C   UNL     1      36.536 -12.557  -4.292  1.00  0.00     0.010 A 
HETATM   11  C   UNL     1      36.315 -13.826  -4.827  1.00  0.00     0.001 A 
HETATM   12  C   UNL     1      36.844 -14.960  -4.199  1.00  0.00     0.001 A 
HETATM   13  C   UNL     1      37.607 -14.836  -3.034  1.00  0.00     0.009 A 
HETATM   14  C   UNL     1      37.813 -13.600   0.000  1.00  0.00     0.037 C 
HETATM   15  C   UNL     1      38.629 -13.416   1.286  1.00  0.00     0.127 C 
HETATM   16  O   UNL     1      39.096 -15.889   2.370  1.00  0.00    -0.266 OA
ENDROOT
BRANCH   6  17
HETATM   17  O   UNL     1      40.030 -11.266  -1.906  1.00  0.00    -0.380 OA
BRANCH  17  18
HETATM   18  C   UNL     1      40.117  -9.892  -2.295  1.00  0.00     0.194 C 
BRANCH  18  19
HETATM   19  C   UNL     1      41.576  -9.451  -2.238  1.00  0.00     0.193 C 
BRANCH  19  20
HETATM   20  O   UNL     1      42.196  -9.998  -1.077  1.00  0.00    -0.394 OA
HETATM   21  C   UNL     1      43.596 -10.164  -1.260  1.00  0.00     0.201 C 
ENDBRANCH  19  20
ENDBRANCH  18  19
ENDBRANCH  17  18
ENDBRANCH   6  17
BRANCH   7  22
HETATM   22  N   UNL     1      36.407 -10.680  -1.736  1.00  0.00    -0.350 N 
HETATM   23  C   UNL     1      35.682  -9.643  -2.272  1.00  0.00     0.221 C 
HETATM   24  O   UNL     1      36.081  -8.985  -3.227  1.00  0.00    -0.273 OA
HETATM   25  H   UNL     1      36.020 -11.220  -0.972  1.00  0.00     0.163 HD
BRANCH  23  26
HETATM   26  C   UNL     1      34.346  -9.395  -1.578  1.00  0.00     0.070 C 
HETATM   27  C   UNL     1      33.268  -9.011  -2.589  1.00  0.00     0.019 C 
HETATM   28  C   UNL     1      33.917 -10.638  -0.797  1.00  0.00     0.019 C 
ENDBRANCH  23  26
ENDBRANCH   7  22
BRANCH   1  29
HETATM   29  C   UNL     1      41.341 -16.063   1.751  1.00  0.00     0.154 A 
HETATM   30  N   UNL     1      42.536 -15.457   1.864  1.00  0.00    -0.123 NA
HETATM   31  O   UNL     1      43.488 -16.443   1.709  1.00  0.00    -0.217 OA
HETATM   32  C   UNL     1      42.878 -17.651   1.586  1.00  0.00     0.081 A 
HETATM   33  C   UNL     1      41.519 -17.469   1.637  1.00  0.00     0.074 A 
BRANCH  32  34
HETATM   34  C   UNL     1      43.757 -18.829   1.376  1.00  0.00     0.071 C 
BRANCH  34  35
HETATM   35  C   UNL     1      43.527 -19.968   2.386  1.00  0.00    -0.017 C 
HETATM   36  C   UNL     1      44.347 -19.788   3.666  1.00  0.00     0.010 C 
HETATM   37  C   UNL     1      43.893 -21.309   1.738  1.00  0.00     0.010 C 
ENDBRANCH  34  35
ENDBRANCH  32  34
ENDBRANCH   1  29
TORSDOF 9
ENDMDL
MODEL 10
REMARK VINA RESULT:      -6.4      2.237      4.035
REMARK  9 active torsions:
REMARK  status: ('A' for Active; 'I' for Inactive)
REMARK    1  A    between atoms: C_2  and  C_3 
REMARK    2  A    between atoms: C_3  and  C_4 
REMARK    3  A    between atoms: C_7  and  C_8 
REMARK       I    between atoms: C_8  and  N_9 
REMARK    4  A    between atoms: C_13  and  O_14 
REMARK    5  A    between atoms: O_14  and  C_15 
REMARK    6  A    between atoms: C_15  and  C_16 
REMARK    7  A    between atoms: C_16  and  O_17 
REMARK    8  A    between atoms: C_19  and  N_20 
REMARK       I    between atoms: N_20  and  C_21 
REMARK    9  A    between atoms: C_21  and  C_22 
ROOT
HETATM    1  C   UNL     1      41.393 -16.974   1.311  1.00  0.00     0.274 C 
HETATM    2  N   UNL     1      41.071 -15.827   2.059  1.00  0.00    -0.347 N 
HETATM    3  C   UNL     1      42.046 -15.038   2.815  1.00  0.00     0.127 C 
HETATM    4  C   UNL     1      42.503 -13.858   1.958  1.00  0.00     0.037 C 
HETATM    5  C   UNL     1      41.308 -12.969   1.540  1.00  0.00     0.019 C 
HETATM    6  C   UNL     1      40.696 -12.141   2.739  1.00  0.00     0.162 C 
HETATM    7  C   UNL     1      40.367 -10.715   2.188  1.00  0.00     0.148 C 
HETATM    8  C   UNL     1      41.239 -10.624   0.970  1.00  0.00    -0.026 A 
HETATM    9  C   UNL     1      41.748 -11.868   0.593  1.00  0.00    -0.038 A 
HETATM   10  C   UNL     1      41.516  -9.478   0.233  1.00  0.00     0.010 A 
HETATM   11  C   UNL     1      42.316  -9.589  -0.905  1.00  0.00     0.001 A 
HETATM   12  C   UNL     1      42.818 -10.836  -1.296  1.00  0.00     0.001 A 
HETATM   13  C   UNL     1      42.533 -11.983  -0.549  1.00  0.00     0.009 A 
HETATM   14  C   UNL     1      40.225 -13.847   0.856  1.00  0.00     0.037 C 
HETATM   15  C   UNL     1      39.870 -15.080   1.697  1.00  0.00     0.127 C 
HETATM   16  O   UNL     1      40.706 -17.312   0.344  1.00  0.00    -0.266 OA
ENDROOT
BRANCH   6  17
HETATM   17  O   UNL     1      41.648 -12.062   3.821  1.00  0.00    -0.380 OA
BRANCH  17  18
HETATM   18  C   UNL     1      41.085 -11.535   5.026  1.00  0.00     0.194 C 
BRANCH  18  19
HETATM   19  C   UNL     1      41.792 -12.167   6.221  1.00  0.00     0.193 C 
BRANCH  19  20
HETATM   20  O   UNL     1      42.184 -13.498   5.896  1.00  0.00    -0.394 OA
HETATM   21  C   UNL     1      43.530 -13.755   6.275  1.00  0.00     0.201 C 
ENDBRANCH  19  20
ENDBRANCH  18  19
ENDBRANCH  17  18
ENDBRANCH   6  17
BRANCH   7  22
HETATM   22  N   UNL     1      38.976 -10.526   1.821  1.00  0.00    -0.350 N 
HETATM   23  C   UNL     1      38.140  -9.734   2.572  1.00  0.00     0.221 C 
HETATM   24  O   UNL     1      38.468  -9.278   3.662  1.00  0.00    -0.273 OA
HETATM   25  H   UNL     1      38.676 -10.848   0.909  1.00  0.00     0.163 HD
BRANCH  23  26
HETATM   26  C   UNL     1      36.782  -9.476   1.925  1.00  0.00     0.070 C 
HETATM   27  C   UNL     1      36.266 -10.729   1.221  1.00  0.00     0.019 C 
HETATM   28  C   UNL     1      35.775  -9.010   2.976  1.00  0.00     0.019 C 
ENDBRANCH  23  26
ENDBRANCH   7  22
BRANCH   1  29
HETATM   29  C   UNL     1      42.582 -17.768   1.659  1.00  0.00     0.154 A 
HETATM   30  N   UNL     1      43.845 -17.354   1.460  1.00  0.00    -0.123 NA
HETATM   31  O   UNL     1      44.662 -18.391   1.863  1.00  0.00    -0.217 OA
HETATM   32  C   UNL     1      43.905 -19.393   2.381  1.00  0.00     0.081 A 
HETATM   33  C   UNL     1      42.582 -19.036   2.303  1.00  0.00     0.074 A 
BRANCH  32  34
HETATM   34  C   UNL     1      44.622 -20.611   2.836  1.00  0.00     0.071 C 
BRANCH  34  35
HETATM   35  C   UNL     1      45.119 -20.535   4.291  1.00  0.00    -0.017 C 
HETATM   36  C   UNL     1      45.034 -21.886   5.007  1.00  0.00     0.010 C 
HETATM   37  C   UNL     1      44.289 -19.503   5.063  1.00  0.00     0.010 C 
ENDBRANCH  34  35
ENDBRANCH  32  34
ENDBRANCH   1  29
TORSDOF 9
ENDMDL
