MODEL 1
REMARK VINA RESULT:      -9.6      0.000      0.000
REMARK  3 active torsions:
REMARK  status: ('A' for Active; 'I' for Inactive)
REMARK    1  A    between atoms: C_5  and  C_6 
REMARK    2  A    between atoms: C_10  and  C_11 
REMARK       I    between atoms: C_11  and  N_12 
REMARK    3  A    between atoms: N_12  and  N_13 
ROOT
HETATM    1  C   UNL     1      43.909 -14.405   5.456  1.00  0.00     0.289 C 
HETATM    2  N   UNL     1      43.571 -15.731   5.667  1.00  0.00    -0.241 N 
HETATM    3  O   UNL     1      44.022 -13.890   4.345  1.00  0.00    -0.264 OA
HETATM    4  H   UNL     1      43.505 -16.106   6.612  1.00  0.00     0.192 HD
ENDROOT
BRANCH   1   5
HETATM    5  C   UNL     1      44.140 -13.640   6.655  1.00  0.00     0.121 A 
HETATM    6  N   UNL     1      45.349 -13.677   7.291  1.00  0.00    -0.272 N 
HETATM    7  N   UNL     1      45.407 -12.940   8.408  1.00  0.00    -0.174 NA
HETATM    8  H   UNL     1      46.167 -14.205   7.004  1.00  0.00     0.189 HD
HETATM    9  C   UNL     1      44.194 -12.372   8.505  1.00  0.00     0.089 A 
HETATM   10  C   UNL     1      43.368 -12.788   7.421  1.00  0.00     0.071 A 
BRANCH   9  11
HETATM   11  C   UNL     1      43.856 -11.473   9.615  1.00  0.00    -0.006 A 
HETATM   12  C   UNL     1      42.752 -10.613   9.545  1.00  0.00     0.014 A 
HETATM   13  C   UNL     1      42.439  -9.765  10.613  1.00  0.00     0.007 A 
HETATM   14  C   UNL     1      43.227  -9.753  11.767  1.00  0.00    -0.062 A 
HETATM   15  C   UNL     1      42.882  -8.868  12.928  1.00  0.00     0.048 C 
HETATM   16  C   UNL     1      44.325 -10.616  11.847  1.00  0.00     0.007 A 
HETATM   17  C   UNL     1      44.638 -11.461  10.778  1.00  0.00     0.014 A 
ENDBRANCH   9  11
ENDBRANCH   1   5
BRANCH   2  18
HETATM   18  N   UNL     1      43.363 -16.571   4.607  1.00  0.00    -0.165 NA
HETATM   19  C   UNL     1      43.897 -17.747   4.685  1.00  0.00     0.157 A 
HETATM   20  C   UNL     1      44.739 -18.338   5.820  1.00  0.00     0.277 A 
HETATM   21  C   UNL     1      43.809 -18.789   3.670  1.00  0.00     0.027 A 
HETATM   22  O   UNL     1      45.024 -17.751   6.843  1.00  0.00    -0.266 OA
HETATM   23  N   UNL     1      45.068 -19.612   5.414  1.00  0.00    -0.321 N 
HETATM   24  C   UNL     1      44.528 -19.880   4.157  1.00  0.00     0.048 A 
HETATM   25  H   UNL     1      45.626 -20.247   5.964  1.00  0.00     0.169 HD
HETATM   26  C   UNL     1      44.645 -21.042   3.425  1.00  0.00     0.030 A 
HETATM   27  C   UNL     1      44.013 -21.080   2.175  1.00  0.00     0.002 A 
HETATM   28  C   UNL     1      43.287 -19.971   1.689  1.00  0.00     0.001 A 
HETATM   29  C   UNL     1      43.179 -18.801   2.443  1.00  0.00     0.016 A 
ENDBRANCH   2  18
TORSDOF 3
ENDMDL
MODEL 2
REMARK VINA RESULT:      -9.5      1.800      2.611
REMARK  3 active torsions:
REMARK  status: ('A' for Active; 'I' for Inactive)
REMARK    1  A    between atoms: C_5  and  C_6 
REMARK    2  A    between atoms: C_10  and  C_11 
REMARK       I    between atoms: C_11  and  N_12 
REMARK    3  A    between atoms: N_12  and  N_13 
ROOT
HETATM    1  C   UNL     1      45.095 -13.600   7.390  1.00  0.00     0.289 C 
HETATM    2  N   UNL     1      44.214 -14.669   7.408  1.00  0.00    -0.241 N 
HETATM    3  O   UNL     1      45.986 -13.455   6.557  1.00  0.00    -0.264 OA
HETATM    4  H   UNL     1      43.502 -14.743   8.133  1.00  0.00     0.192 HD
ENDROOT
BRANCH   1   5
HETATM    5  C   UNL     1      44.905 -12.642   8.450  1.00  0.00     0.121 A 
HETATM    6  N   UNL     1      45.765 -11.592   8.610  1.00  0.00    -0.272 N 
HETATM    7  N   UNL     1      45.480 -10.801   9.653  1.00  0.00    -0.174 NA
HETATM    8  H   UNL     1      46.574 -11.380   8.035  1.00  0.00     0.189 HD
HETATM    9  C   UNL     1      44.372 -11.334  10.193  1.00  0.00     0.089 A 
HETATM   10  C   UNL     1      43.979 -12.493   9.464  1.00  0.00     0.071 A 
BRANCH   9  11
HETATM   11  C   UNL     1      43.735 -10.742  11.374  1.00  0.00    -0.006 A 
HETATM   12  C   UNL     1      43.310 -11.537  12.448  1.00  0.00     0.014 A 
HETATM   13  C   UNL     1      42.708 -10.958  13.571  1.00  0.00     0.007 A 
HETATM   14  C   UNL     1      42.512  -9.576  13.640  1.00  0.00    -0.062 A 
HETATM   15  C   UNL     1      41.893  -8.945  14.852  1.00  0.00     0.048 C 
HETATM   16  C   UNL     1      42.942  -8.776  12.577  1.00  0.00     0.007 A 
HETATM   17  C   UNL     1      43.541  -9.356  11.454  1.00  0.00     0.014 A 
ENDBRANCH   9  11
ENDBRANCH   1   5
BRANCH   2  18
HETATM   18  N   UNL     1      44.314 -15.666   6.476  1.00  0.00    -0.165 NA
HETATM   19  C   UNL     1      44.102 -16.873   6.893  1.00  0.00     0.157 A 
HETATM   20  C   UNL     1      43.742 -17.345   8.305  1.00  0.00     0.277 A 
HETATM   21  C   UNL     1      44.166 -18.078   6.075  1.00  0.00     0.027 A 
HETATM   22  O   UNL     1      43.602 -16.610   9.261  1.00  0.00    -0.266 OA
HETATM   23  N   UNL     1      43.630 -18.714   8.221  1.00  0.00    -0.321 N 
HETATM   24  C   UNL     1      43.877 -19.148   6.921  1.00  0.00     0.048 A 
HETATM   25  H   UNL     1      43.401 -19.304   9.007  1.00  0.00     0.169 HD
HETATM   26  C   UNL     1      43.861 -20.444   6.451  1.00  0.00     0.030 A 
HETATM   27  C   UNL     1      44.146 -20.639   5.093  1.00  0.00     0.002 A 
HETATM   28  C   UNL     1      44.438 -19.550   4.244  1.00  0.00     0.001 A 
HETATM   29  C   UNL     1      44.450 -18.243   4.736  1.00  0.00     0.016 A 
ENDBRANCH   2  18
TORSDOF 3
ENDMDL
MODEL 3
REMARK VINA RESULT:      -9.2      2.166      9.731
REMARK  3 active torsions:
REMARK  status: ('A' for Active; 'I' for Inactive)
REMARK    1  A    between atoms: C_5  and  C_6 
REMARK    2  A    between atoms: C_10  and  C_11 
REMARK       I    between atoms: C_11  and  N_12 
REMARK    3  A    between atoms: N_12  and  N_13 
ROOT
HETATM    1  C   UNL     1      42.091 -12.781   5.950  1.00  0.00     0.289 C 
HETATM    2  N   UNL     1      42.941 -12.440   6.990  1.00  0.00    -0.241 N 
HETATM    3  O   UNL     1      40.993 -12.263   5.759  1.00  0.00    -0.264 OA
HETATM    4  H   UNL     1      43.835 -12.914   7.106  1.00  0.00     0.192 HD
ENDROOT
BRANCH   1   5
HETATM    5  C   UNL     1      42.582 -13.823   5.084  1.00  0.00     0.121 A 
HETATM    6  N   UNL     1      43.221 -13.522   3.914  1.00  0.00    -0.272 N 
HETATM    7  N   UNL     1      43.595 -14.591   3.200  1.00  0.00    -0.174 NA
HETATM    8  H   UNL     1      43.415 -12.593   3.554  1.00  0.00     0.189 HD
HETATM    9  C   UNL     1      43.210 -15.646   3.936  1.00  0.00     0.089 A 
HETATM   10  C   UNL     1      42.569 -15.204   5.130  1.00  0.00     0.071 A 
BRANCH   9  11
HETATM   11  C   UNL     1      43.448 -17.022   3.487  1.00  0.00    -0.006 A 
HETATM   12  C   UNL     1      43.744 -18.045   4.398  1.00  0.00     0.014 A 
HETATM   13  C   UNL     1      43.964 -19.354   3.956  1.00  0.00     0.007 A 
HETATM   14  C   UNL     1      43.901 -19.665   2.594  1.00  0.00    -0.062 A 
HETATM   15  C   UNL     1      44.107 -21.071   2.114  1.00  0.00     0.048 C 
HETATM   16  C   UNL     1      43.596 -18.651   1.681  1.00  0.00     0.007 A 
HETATM   17  C   UNL     1      43.379 -17.342   2.124  1.00  0.00     0.014 A 
ENDBRANCH   9  11
ENDBRANCH   1   5
BRANCH   2  18
HETATM   18  N   UNL     1      42.573 -11.489   7.902  1.00  0.00    -0.165 NA
HETATM   19  C   UNL     1      43.228 -11.473   9.018  1.00  0.00     0.157 A 
HETATM   20  C   UNL     1      44.379 -12.381   9.462  1.00  0.00     0.277 A 
HETATM   21  C   UNL     1      42.996 -10.555  10.127  1.00  0.00     0.027 A 
HETATM   22  O   UNL     1      44.849 -13.276   8.789  1.00  0.00    -0.266 OA
HETATM   23  N   UNL     1      44.720 -11.959  10.727  1.00  0.00    -0.321 N 
HETATM   24  C   UNL     1      43.914 -10.893  11.121  1.00  0.00     0.048 A 
HETATM   25  H   UNL     1      45.454 -12.379  11.277  1.00  0.00     0.169 HD
HETATM   26  C   UNL     1      43.953 -10.209  12.317  1.00  0.00     0.030 A 
HETATM   27  C   UNL     1      43.035  -9.165  12.491  1.00  0.00     0.002 A 
HETATM   28  C   UNL     1      42.108  -8.830  11.480  1.00  0.00     0.001 A 
HETATM   29  C   UNL     1      42.082  -9.534  10.274  1.00  0.00     0.016 A 
ENDBRANCH   2  18
TORSDOF 3
ENDMDL
MODEL 4
REMARK VINA RESULT:      -9.0      6.902     10.514
REMARK  3 active torsions:
REMARK  status: ('A' for Active; 'I' for Inactive)
REMARK    1  A    between atoms: C_5  and  C_6 
REMARK    2  A    between atoms: C_10  and  C_11 
REMARK       I    between atoms: C_11  and  N_12 
REMARK    3  A    between atoms: N_12  and  N_13 
ROOT
HETATM    1  C   UNL     1      41.055 -14.798  -1.149  1.00  0.00     0.289 C 
HETATM    2  N   UNL     1      42.212 -14.187  -1.605  1.00  0.00    -0.241 N 
HETATM    3  O   UNL     1      39.942 -14.618  -1.637  1.00  0.00    -0.264 OA
HETATM    4  H   UNL     1      43.107 -14.365  -1.152  1.00  0.00     0.192 HD
ENDROOT
BRANCH   1   5
HETATM    5  C   UNL     1      41.240 -15.678  -0.022  1.00  0.00     0.121 A 
HETATM    6  N   UNL     1      40.218 -15.927   0.850  1.00  0.00    -0.272 N 
HETATM    7  N   UNL     1      40.543 -16.740   1.863  1.00  0.00    -0.174 NA
HETATM    8  H   UNL     1      39.276 -15.551   0.801  1.00  0.00     0.189 HD
HETATM    9  C   UNL     1      41.828 -17.064   1.641  1.00  0.00     0.089 A 
HETATM   10  C   UNL     1      42.302 -16.416   0.464  1.00  0.00     0.071 A 
BRANCH   9  11
HETATM   11  C   UNL     1      42.560 -17.956   2.546  1.00  0.00    -0.006 A 
HETATM   12  C   UNL     1      42.486 -17.804   3.937  1.00  0.00     0.014 A 
HETATM   13  C   UNL     1      43.187 -18.665   4.789  1.00  0.00     0.007 A 
HETATM   14  C   UNL     1      43.981 -19.691   4.267  1.00  0.00    -0.062 A 
HETATM   15  C   UNL     1      44.712 -20.636   5.173  1.00  0.00     0.048 C 
HETATM   16  C   UNL     1      44.051 -19.855   2.881  1.00  0.00     0.007 A 
HETATM   17  C   UNL     1      43.353 -18.991   2.030  1.00  0.00     0.014 A 
ENDBRANCH   9  11
ENDBRANCH   1   5
BRANCH   2  18
HETATM   18  N   UNL     1      42.163 -13.301  -2.646  1.00  0.00    -0.165 NA
HETATM   19  C   UNL     1      42.341 -12.053  -2.354  1.00  0.00     0.157 A 
HETATM   20  C   UNL     1      42.608 -11.423  -0.983  1.00  0.00     0.277 A 
HETATM   21  C   UNL     1      42.320 -10.946  -3.302  1.00  0.00     0.027 A 
HETATM   22  O   UNL     1      42.693 -12.046   0.056  1.00  0.00    -0.266 OA
HETATM   23  N   UNL     1      42.716 -10.070  -1.210  1.00  0.00    -0.321 N 
HETATM   24  C   UNL     1      42.547  -9.786  -2.564  1.00  0.00     0.048 A 
HETATM   25  H   UNL     1      42.891  -9.394  -0.482  1.00  0.00     0.169 HD
HETATM   26  C   UNL     1      42.584  -8.549  -3.172  1.00  0.00     0.030 A 
HETATM   27  C   UNL     1      42.383  -8.508  -4.558  1.00  0.00     0.002 A 
HETATM   28  C   UNL     1      42.152  -9.688  -5.298  1.00  0.00     0.001 A 
HETATM   29  C   UNL     1      42.118 -10.933  -4.666  1.00  0.00     0.016 A 
ENDBRANCH   2  18
TORSDOF 3
ENDMDL
MODEL 5
REMARK VINA RESULT:      -8.6      6.285      9.013
REMARK  3 active torsions:
REMARK  status: ('A' for Active; 'I' for Inactive)
REMARK    1  A    between atoms: C_5  and  C_6 
REMARK    2  A    between atoms: C_10  and  C_11 
REMARK       I    between atoms: C_11  and  N_12 
REMARK    3  A    between atoms: N_12  and  N_13 
ROOT
HETATM    1  C   UNL     1      41.331 -16.153   1.640  1.00  0.00     0.289 C 
HETATM    2  N   UNL     1      42.546 -16.183   2.305  1.00  0.00    -0.241 N 
HETATM    3  O   UNL     1      40.318 -16.728   2.030  1.00  0.00    -0.264 OA
HETATM    4  H   UNL     1      43.358 -15.696   1.926  1.00  0.00     0.192 HD
ENDROOT
BRANCH   1   5
HETATM    5  C   UNL     1      41.329 -15.390   0.417  1.00  0.00     0.121 A 
HETATM    6  N   UNL     1      40.853 -15.928  -0.746  1.00  0.00    -0.272 N 
HETATM    7  N   UNL     1      40.941 -15.114  -1.806  1.00  0.00    -0.174 NA
HETATM    8  H   UNL     1      40.466 -16.859  -0.867  1.00  0.00     0.189 HD
HETATM    9  C   UNL     1      41.476 -13.981  -1.323  1.00  0.00     0.089 A 
HETATM   10  C   UNL     1      41.734 -14.116   0.072  1.00  0.00     0.071 A 
BRANCH   9  11
HETATM   11  C   UNL     1      41.733 -12.825  -2.189  1.00  0.00    -0.006 A 
HETATM   12  C   UNL     1      42.560 -11.773  -1.773  1.00  0.00     0.014 A 
HETATM   13  C   UNL     1      42.800 -10.679  -2.611  1.00  0.00     0.007 A 
HETATM   14  C   UNL     1      42.212 -10.611  -3.878  1.00  0.00    -0.062 A 
HETATM   15  C   UNL     1      42.487  -9.455  -4.794  1.00  0.00     0.048 C 
HETATM   16  C   UNL     1      41.394 -11.662  -4.303  1.00  0.00     0.007 A 
HETATM   17  C   UNL     1      41.152 -12.753  -3.463  1.00  0.00     0.014 A 
ENDBRANCH   9  11
ENDBRANCH   1   5
BRANCH   2  18
HETATM   18  N   UNL     1      42.687 -16.903   3.459  1.00  0.00    -0.165 NA
HETATM   19  C   UNL     1      43.342 -18.016   3.372  1.00  0.00     0.157 A 
HETATM   20  C   UNL     1      43.994 -18.644   2.137  1.00  0.00     0.277 A 
HETATM   21  C   UNL     1      43.600 -18.939   4.471  1.00  0.00     0.027 A 
HETATM   22  O   UNL     1      43.983 -18.153   1.027  1.00  0.00    -0.266 OA
HETATM   23  N   UNL     1      44.555 -19.824   2.572  1.00  0.00    -0.321 N 
HETATM   24  C   UNL     1      44.326 -20.001   3.935  1.00  0.00     0.048 A 
HETATM   25  H   UNL     1      45.056 -20.459   1.970  1.00  0.00     0.169 HD
HETATM   26  C   UNL     1      44.729 -21.059   4.722  1.00  0.00     0.030 A 
HETATM   27  C   UNL     1      44.378 -21.021   6.078  1.00  0.00     0.002 A 
HETATM   28  C   UNL     1      43.642 -19.941   6.612  1.00  0.00     0.001 A 
HETATM   29  C   UNL     1      43.241 -18.878   5.801  1.00  0.00     0.016 A 
ENDBRANCH   2  18
TORSDOF 3
ENDMDL
MODEL 6
REMARK VINA RESULT:      -8.3      2.203      2.544
REMARK  3 active torsions:
REMARK  status: ('A' for Active; 'I' for Inactive)
REMARK    1  A    between atoms: C_5  and  C_6 
REMARK    2  A    between atoms: C_10  and  C_11 
REMARK       I    between atoms: C_11  and  N_12 
REMARK    3  A    between atoms: N_12  and  N_13 
ROOT
HETATM    1  C   UNL     1      42.011 -12.465   5.020  1.00  0.00     0.289 C 
HETATM    2  N   UNL     1      42.894 -13.532   5.046  1.00  0.00    -0.241 N 
HETATM    3  O   UNL     1      41.293 -12.188   4.062  1.00  0.00    -0.264 OA
HETATM    4  H   UNL     1      43.474 -13.706   5.866  1.00  0.00     0.192 HD
ENDROOT
BRANCH   1   5
HETATM    5  C   UNL     1      41.992 -11.666   6.219  1.00  0.00     0.121 A 
HETATM    6  N   UNL     1      41.336 -10.467   6.254  1.00  0.00    -0.272 N 
HETATM    7  N   UNL     1      41.428  -9.823   7.425  1.00  0.00    -0.174 NA
HETATM    8  H   UNL     1      40.818 -10.039   5.493  1.00  0.00     0.189 HD
HETATM    9  C   UNL     1      42.155 -10.638   8.207  1.00  0.00     0.089 A 
HETATM   10  C   UNL     1      42.528 -11.808   7.484  1.00  0.00     0.071 A 
BRANCH   9  11
HETATM   11  C   UNL     1      42.479 -10.282   9.592  1.00  0.00    -0.006 A 
HETATM   12  C   UNL     1      41.607  -9.507  10.368  1.00  0.00     0.014 A 
HETATM   13  C   UNL     1      41.927  -9.178  11.690  1.00  0.00     0.007 A 
HETATM   14  C   UNL     1      43.128  -9.611  12.260  1.00  0.00    -0.062 A 
HETATM   15  C   UNL     1      43.466  -9.288  13.685  1.00  0.00     0.048 C 
HETATM   16  C   UNL     1      43.998 -10.393  11.494  1.00  0.00     0.007 A 
HETATM   17  C   UNL     1      43.678 -10.718  10.172  1.00  0.00     0.014 A 
ENDBRANCH   9  11
ENDBRANCH   1   5
BRANCH   2  18
HETATM   18  N   UNL     1      43.032 -14.345   3.954  1.00  0.00    -0.165 NA
HETATM   19  C   UNL     1      43.219 -15.604   4.189  1.00  0.00     0.157 A 
HETATM   20  C   UNL     1      43.304 -16.320   5.541  1.00  0.00     0.277 A 
HETATM   21  C   UNL     1      43.399 -16.639   3.178  1.00  0.00     0.027 A 
HETATM   22  O   UNL     1      43.198 -15.771   6.618  1.00  0.00    -0.266 OA
HETATM   23  N   UNL     1      43.517 -17.648   5.245  1.00  0.00    -0.321 N 
HETATM   24  C   UNL     1      43.574 -17.839   3.866  1.00  0.00     0.048 A 
HETATM   25  H   UNL     1      43.618 -18.366   5.946  1.00  0.00     0.169 HD
HETATM   26  C   UNL     1      43.777 -19.025   3.192  1.00  0.00     0.030 A 
HETATM   27  C   UNL     1      43.798 -18.972   1.792  1.00  0.00     0.002 A 
HETATM   28  C   UNL     1      43.620 -17.753   1.104  1.00  0.00     0.001 A 
HETATM   29  C   UNL     1      43.417 -16.561   1.802  1.00  0.00     0.016 A 
ENDBRANCH   2  18
TORSDOF 3
ENDMDL
MODEL 7
REMARK VINA RESULT:      -8.3      2.494      2.825
REMARK  3 active torsions:
REMARK  status: ('A' for Active; 'I' for Inactive)
REMARK    1  A    between atoms: C_5  and  C_6 
REMARK    2  A    between atoms: C_10  and  C_11 
REMARK       I    between atoms: C_11  and  N_12 
REMARK    3  A    between atoms: N_12  and  N_13 
ROOT
HETATM    1  C   UNL     1      42.074 -14.238   3.570  1.00  0.00     0.289 C 
HETATM    2  N   UNL     1      41.873 -15.489   4.132  1.00  0.00    -0.241 N 
HETATM    3  O   UNL     1      42.462 -14.054   2.419  1.00  0.00    -0.264 OA
HETATM    4  H   UNL     1      41.563 -15.580   5.098  1.00  0.00     0.192 HD
ENDROOT
BRANCH   1   5
HETATM    5  C   UNL     1      41.803 -13.129   4.449  1.00  0.00     0.121 A 
HETATM    6  N   UNL     1      41.794 -11.846   3.980  1.00  0.00    -0.272 N 
HETATM    7  N   UNL     1      41.556 -10.918   4.916  1.00  0.00    -0.174 NA
HETATM    8  H   UNL     1      41.957 -11.551   3.022  1.00  0.00     0.189 HD
HETATM    9  C   UNL     1      41.377 -11.615   6.050  1.00  0.00     0.089 A 
HETATM   10  C   UNL     1      41.525 -13.010   5.797  1.00  0.00     0.071 A 
BRANCH   9  11
HETATM   11  C   UNL     1      41.088 -10.947   7.323  1.00  0.00    -0.006 A 
HETATM   12  C   UNL     1      39.772 -10.674   7.720  1.00  0.00     0.014 A 
HETATM   13  C   UNL     1      39.510 -10.039   8.939  1.00  0.00     0.007 A 
HETATM   14  C   UNL     1      40.558  -9.658   9.782  1.00  0.00    -0.062 A 
HETATM   15  C   UNL     1      40.285  -9.003  11.104  1.00  0.00     0.048 C 
HETATM   16  C   UNL     1      41.873  -9.937   9.397  1.00  0.00     0.007 A 
HETATM   17  C   UNL     1      42.133 -10.568   8.177  1.00  0.00     0.014 A 
ENDBRANCH   9  11
ENDBRANCH   1   5
BRANCH   2  18
HETATM   18  N   UNL     1      42.131 -16.622   3.410  1.00  0.00    -0.165 NA
HETATM   19  C   UNL     1      42.967 -17.462   3.929  1.00  0.00     0.157 A 
HETATM   20  C   UNL     1      43.715 -17.363   5.262  1.00  0.00     0.277 A 
HETATM   21  C   UNL     1      43.389 -18.722   3.329  1.00  0.00     0.027 A 
HETATM   22  O   UNL     1      43.612 -16.439   6.042  1.00  0.00    -0.266 OA
HETATM   23  N   UNL     1      44.480 -18.504   5.344  1.00  0.00    -0.321 N 
HETATM   24  C   UNL     1      44.295 -19.301   4.217  1.00  0.00     0.048 A 
HETATM   25  H   UNL     1      45.088 -18.714   6.122  1.00  0.00     0.169 HD
HETATM   26  C   UNL     1      44.890 -20.513   3.939  1.00  0.00     0.030 A 
HETATM   27  C   UNL     1      44.548 -21.135   2.730  1.00  0.00     0.002 A 
HETATM   28  C   UNL     1      43.631 -20.541   1.837  1.00  0.00     0.001 A 
HETATM   29  C   UNL     1      43.037 -19.313   2.134  1.00  0.00     0.016 A 
ENDBRANCH   2  18
TORSDOF 3
ENDMDL
MODEL 8
REMARK VINA RESULT:      -8.1      4.097      9.840
REMARK  3 active torsions:
REMARK  status: ('A' for Active; 'I' for Inactive)
REMARK    1  A    between atoms: C_5  and  C_6 
REMARK    2  A    between atoms: C_10  and  C_11 
REMARK       I    between atoms: C_11  and  N_12 
REMARK    3  A    between atoms: N_12  and  N_13 
ROOT
HETATM    1  C   UNL     1      42.168 -14.107   2.463  1.00  0.00     0.289 C 
HETATM    2  N   UNL     1      40.943 -13.959   3.093  1.00  0.00    -0.241 N 
HETATM    3  O   UNL     1      42.867 -13.169   2.088  1.00  0.00    -0.264 OA
HETATM    4  H   UNL     1      40.400 -14.776   3.370  1.00  0.00     0.192 HD
ENDROOT
BRANCH   1   5
HETATM    5  C   UNL     1      42.582 -15.472   2.257  1.00  0.00     0.121 A 
HETATM    6  N   UNL     1      42.662 -16.000   0.999  1.00  0.00    -0.272 N 
HETATM    7  N   UNL     1      43.032 -17.286   0.964  1.00  0.00    -0.174 NA
HETATM    8  H   UNL     1      42.460 -15.519   0.128  1.00  0.00     0.189 HD
HETATM    9  C   UNL     1      43.229 -17.620   2.250  1.00  0.00     0.089 A 
HETATM   10  C   UNL     1      42.956 -16.505   3.094  1.00  0.00     0.071 A 
BRANCH   9  11
HETATM   11  C   UNL     1      43.653 -18.970   2.635  1.00  0.00    -0.006 A 
HETATM   12  C   UNL     1      43.505 -20.057   1.762  1.00  0.00     0.014 A 
HETATM   13  C   UNL     1      43.917 -21.339   2.140  1.00  0.00     0.007 A 
HETATM   14  C   UNL     1      44.479 -21.563   3.401  1.00  0.00    -0.062 A 
HETATM   15  C   UNL     1      44.950 -22.928   3.804  1.00  0.00     0.048 C 
HETATM   16  C   UNL     1      44.639 -20.481   4.273  1.00  0.00     0.007 A 
HETATM   17  C   UNL     1      44.223 -19.201   3.894  1.00  0.00     0.014 A 
ENDBRANCH   9  11
ENDBRANCH   1   5
BRANCH   2  18
HETATM   18  N   UNL     1      40.422 -12.713   3.313  1.00  0.00    -0.165 NA
HETATM   19  C   UNL     1      40.369 -12.317   4.544  1.00  0.00     0.157 A 
HETATM   20  C   UNL     1      40.820 -13.059   5.805  1.00  0.00     0.277 A 
HETATM   21  C   UNL     1      39.846 -11.035   5.002  1.00  0.00     0.027 A 
HETATM   22  O   UNL     1      41.311 -14.169   5.812  1.00  0.00    -0.266 OA
HETATM   23  N   UNL     1      40.544 -12.212   6.854  1.00  0.00    -0.321 N 
HETATM   24  C   UNL     1      39.973 -11.028   6.390  1.00  0.00     0.048 A 
HETATM   25  H   UNL     1      40.734 -12.437   7.819  1.00  0.00     0.169 HD
HETATM   26  C   UNL     1      39.560  -9.946   7.139  1.00  0.00     0.030 A 
HETATM   27  C   UNL     1      39.009  -8.859   6.448  1.00  0.00     0.002 A 
HETATM   28  C   UNL     1      38.883  -8.876   5.041  1.00  0.00     0.001 A 
HETATM   29  C   UNL     1      39.306  -9.980   4.299  1.00  0.00     0.016 A 
ENDBRANCH   2  18
TORSDOF 3
ENDMDL
MODEL 9
REMARK VINA RESULT:      -8.1      6.689     10.215
REMARK  3 active torsions:
REMARK  status: ('A' for Active; 'I' for Inactive)
REMARK    1  A    between atoms: C_5  and  C_6 
REMARK    2  A    between atoms: C_10  and  C_11 
REMARK       I    between atoms: C_11  and  N_12 
REMARK    3  A    between atoms: N_12  and  N_13 
ROOT
HETATM    1  C   UNL     1      41.457 -14.861   0.129  1.00  0.00     0.289 C 
HETATM    2  N   UNL     1      40.098 -15.085  -0.022  1.00  0.00    -0.241 N 
HETATM    3  O   UNL     1      42.094 -14.028  -0.510  1.00  0.00    -0.264 OA
HETATM    4  H   UNL     1      39.625 -15.800   0.528  1.00  0.00     0.192 HD
ENDROOT
BRANCH   1   5
HETATM    5  C   UNL     1      42.103 -15.701   1.106  1.00  0.00     0.121 A 
HETATM    6  N   UNL     1      42.637 -15.170   2.247  1.00  0.00    -0.272 N 
HETATM    7  N   UNL     1      43.230 -16.065   3.047  1.00  0.00    -0.174 NA
HETATM    8  H   UNL     1      42.630 -14.191   2.519  1.00  0.00     0.189 HD
HETATM    9  C   UNL     1      43.062 -17.243   2.424  1.00  0.00     0.089 A 
HETATM   10  C   UNL     1      42.358 -17.055   1.200  1.00  0.00     0.071 A 
BRANCH   9  11
HETATM   11  C   UNL     1      43.579 -18.491   2.995  1.00  0.00    -0.006 A 
HETATM   12  C   UNL     1      43.837 -19.609   2.189  1.00  0.00     0.014 A 
HETATM   13  C   UNL     1      44.334 -20.792   2.747  1.00  0.00     0.007 A 
HETATM   14  C   UNL     1      44.575 -20.885   4.121  1.00  0.00    -0.062 A 
HETATM   15  C   UNL     1      45.134 -22.140   4.722  1.00  0.00     0.048 C 
HETATM   16  C   UNL     1      44.329 -19.771   4.929  1.00  0.00     0.007 A 
HETATM   17  C   UNL     1      43.829 -18.590   4.371  1.00  0.00     0.014 A 
ENDBRANCH   9  11
ENDBRANCH   1   5
BRANCH   2  18
HETATM   18  N   UNL     1      39.378 -14.376  -0.945  1.00  0.00    -0.165 NA
HETATM   19  C   UNL     1      38.518 -13.528  -0.482  1.00  0.00     0.157 A 
HETATM   20  C   UNL     1      38.194 -13.199   0.978  1.00  0.00     0.277 A 
HETATM   21  C   UNL     1      37.644 -12.681  -1.284  1.00  0.00     0.027 A 
HETATM   22  O   UNL     1      38.732 -13.716   1.936  1.00  0.00    -0.266 OA
HETATM   23  N   UNL     1      37.209 -12.239   0.933  1.00  0.00    -0.321 N 
HETATM   24  C   UNL     1      36.882 -11.933  -0.386  1.00  0.00     0.048 A 
HETATM   25  H   UNL     1      36.791 -11.828   1.755  1.00  0.00     0.169 HD
HETATM   26  C   UNL     1      35.942 -11.027  -0.830  1.00  0.00     0.030 A 
HETATM   27  C   UNL     1      35.786 -10.890  -2.215  1.00  0.00     0.002 A 
HETATM   28  C   UNL     1      36.561 -11.651  -3.117  1.00  0.00     0.001 A 
HETATM   29  C   UNL     1      37.508 -12.565  -2.651  1.00  0.00     0.016 A 
ENDBRANCH   2  18
TORSDOF 3
ENDMDL
MODEL 10
REMARK VINA RESULT:      -8.0      6.031      9.874
REMARK  3 active torsions:
REMARK  status: ('A' for Active; 'I' for Inactive)
REMARK    1  A    between atoms: C_5  and  C_6 
REMARK    2  A    between atoms: C_10  and  C_11 
REMARK       I    between atoms: C_11  and  N_12 
REMARK    3  A    between atoms: N_12  and  N_13 
ROOT
HETATM    1  C   UNL     1      42.064 -14.106   2.439  1.00  0.00     0.289 C 
HETATM    2  N   UNL     1      40.750 -14.038   2.871  1.00  0.00    -0.241 N 
HETATM    3  O   UNL     1      42.716 -13.136   2.059  1.00  0.00    -0.264 OA
HETATM    4  H   UNL     1      40.254 -14.879   3.162  1.00  0.00     0.192 HD
ENDROOT
BRANCH   1   5
HETATM    5  C   UNL     1      42.637 -15.429   2.450  1.00  0.00     0.121 A 
HETATM    6  N   UNL     1      43.057 -16.023   1.293  1.00  0.00    -0.272 N 
HETATM    7  N   UNL     1      43.540 -17.261   1.453  1.00  0.00    -0.174 NA
HETATM    8  H   UNL     1      43.022 -15.622   0.361  1.00  0.00     0.189 HD
HETATM    9  C   UNL     1      43.459 -17.491   2.774  1.00  0.00     0.089 A 
HETATM   10  C   UNL     1      42.896 -16.361   3.435  1.00  0.00     0.071 A 
BRANCH   9  11
HETATM   11  C   UNL     1      43.901 -18.761   3.359  1.00  0.00    -0.006 A 
HETATM   12  C   UNL     1      44.199 -19.869   2.554  1.00  0.00     0.014 A 
HETATM   13  C   UNL     1      44.624 -21.074   3.126  1.00  0.00     0.007 A 
HETATM   14  C   UNL     1      44.752 -21.197   4.513  1.00  0.00    -0.062 A 
HETATM   15  C   UNL     1      45.234 -22.475   5.132  1.00  0.00     0.048 C 
HETATM   16  C   UNL     1      44.466 -20.092   5.321  1.00  0.00     0.007 A 
HETATM   17  C   UNL     1      44.039 -18.890   4.748  1.00  0.00     0.014 A 
ENDBRANCH   9  11
ENDBRANCH   1   5
BRANCH   2  18
HETATM   18  N   UNL     1      40.082 -12.843   2.873  1.00  0.00    -0.165 NA
HETATM   19  C   UNL     1      38.988 -12.790   2.183  1.00  0.00     0.157 A 
HETATM   20  C   UNL     1      38.326 -13.897   1.358  1.00  0.00     0.277 A 
HETATM   21  C   UNL     1      38.130 -11.620   2.041  1.00  0.00     0.027 A 
HETATM   22  O   UNL     1      38.763 -15.023   1.241  1.00  0.00    -0.266 OA
HETATM   23  N   UNL     1      37.193 -13.332   0.819  1.00  0.00    -0.321 N 
HETATM   24  C   UNL     1      37.074 -12.001   1.214  1.00  0.00     0.048 A 
HETATM   25  H   UNL     1      36.551 -13.829   0.220  1.00  0.00     0.169 HD
HETATM   26  C   UNL     1      36.077 -11.111   0.874  1.00  0.00     0.030 A 
HETATM   27  C   UNL     1      36.170  -9.813   1.394  1.00  0.00     0.002 A 
HETATM   28  C   UNL     1      37.243  -9.436   2.230  1.00  0.00     0.001 A 
HETATM   29  C   UNL     1      38.245 -10.350   2.564  1.00  0.00     0.016 A 
ENDBRANCH   2  18
TORSDOF 3
ENDMDL
