MODEL 1
REMARK VINA RESULT:      -8.6      0.000      0.000
REMARK  4 active torsions:
REMARK  status: ('A' for Active; 'I' for Inactive)
REMARK    1  A    between atoms: O_2  and  C_3 
REMARK    2  A    between atoms: C_5  and  C_6 
REMARK    3  A    between atoms: C_10  and  N_11 
REMARK    4  A    between atoms: C_14  and  C_15 
ROOT
HETATM    1  C   UNL     1      43.117 -18.204   3.690  1.00  0.00     0.164 C 
HETATM    2  N   UNL     1      42.465 -17.409   2.656  1.00  0.00    -0.074 N 
HETATM    3  C   UNL     1      41.366 -16.621   2.871  1.00  0.00     0.736 A 
HETATM    4  N   UNL     1      41.095 -15.957   1.778  1.00  0.00     0.131 NA
HETATM    5  C   UNL     1      42.102 -16.329   0.937  1.00  0.00     0.753 A 
HETATM    6  N   UNL     1      42.983 -17.193   1.433  1.00  0.00     0.037 NA
HETATM    7  N   UNL     1      40.772 -16.556   4.082  1.00  0.00    -0.214 N 
HETATM    8  C   UNL     1      41.496 -17.017   5.263  1.00  0.00     0.135 C 
HETATM    9  C   UNL     1      42.207 -18.342   4.929  1.00  0.00     0.063 C 
HETATM   10  H   UNL     1      40.131 -15.781   4.231  1.00  0.00     0.178 HD
ENDROOT
BRANCH   1  11
HETATM   11  C   UNL     1      43.538 -19.576   3.182  1.00  0.00    -0.030 A 
HETATM   12  C   UNL     1      44.259 -20.470   3.995  1.00  0.00     0.046 A 
HETATM   13  C   UNL     1      44.627 -21.735   3.532  1.00  0.00     0.068 A 
HETATM   14  C   UNL     1      44.310 -22.106   2.226  1.00  0.00     0.037 A 
HETATM   15  C   UNL     1      43.610 -21.224   1.400  1.00  0.00     0.003 A 
HETATM   16  C   UNL     1      43.223 -19.969   1.875  1.00  0.00     0.009 A 
BRANCH  13  17
HETATM   17  O   UNL     1      45.309 -22.505   4.433  1.00  0.00    -0.356 OA
HETATM   18  C   UNL     1      44.889 -22.393   5.788  1.00  0.00     0.210 C 
ENDBRANCH  13  17
ENDBRANCH   1  11
BRANCH   8  19
HETATM   19  C   UNL     1      42.423 -15.963   5.864  1.00  0.00    -0.035 A 
HETATM   20  C   UNL     1      42.353 -14.596   5.541  1.00  0.00     0.010 A 
HETATM   21  C   UNL     1      43.225 -13.670   6.123  1.00  0.00     0.019 A 
HETATM   22  C   UNL     1      44.180 -14.097   7.040  1.00  0.00     0.011 A 
HETATM   23 BR   UNL     1      45.357 -12.846   7.825  1.00  0.00    -0.051 Br
HETATM   24  C   UNL     1      44.267 -15.443   7.383  1.00  0.00     0.019 A 
HETATM   25  C   UNL     1      43.393 -16.367   6.802  1.00  0.00     0.010 A 
ENDBRANCH   8  19
BRANCH   5  26
HETATM   26  N   UNL     1      42.129 -15.818  -0.290  1.00  0.00    -0.229 N 
HETATM   27  H   UNL     1      42.313 -16.469  -1.042  1.00  0.00     0.174 HD
HETATM   28  H   UNL     1      42.583 -14.920  -0.389  1.00  0.00     0.174 HD
ENDBRANCH   5  26
TORSDOF 4
ENDMDL
MODEL 2
REMARK VINA RESULT:      -8.5      3.098      4.838
REMARK  4 active torsions:
REMARK  status: ('A' for Active; 'I' for Inactive)
REMARK    1  A    between atoms: O_2  and  C_3 
REMARK    2  A    between atoms: C_5  and  C_6 
REMARK    3  A    between atoms: C_10  and  N_11 
REMARK    4  A    between atoms: C_14  and  C_15 
ROOT
HETATM    1  C   UNL     1      42.644 -17.586   2.664  1.00  0.00     0.164 C 
HETATM    2  N   UNL     1      42.076 -17.087   3.912  1.00  0.00    -0.074 N 
HETATM    3  C   UNL     1      42.175 -15.789   4.336  1.00  0.00     0.736 A 
HETATM    4  N   UNL     1      41.471 -15.641   5.428  1.00  0.00     0.131 NA
HETATM    5  C   UNL     1      40.906 -16.870   5.597  1.00  0.00     0.753 A 
HETATM    6  N   UNL     1      41.221 -17.784   4.683  1.00  0.00     0.037 NA
HETATM    7  N   UNL     1      42.856 -14.865   3.624  1.00  0.00    -0.214 N 
HETATM    8  C   UNL     1      43.177 -15.130   2.225  1.00  0.00     0.135 C 
HETATM    9  C   UNL     1      43.668 -16.584   2.090  1.00  0.00     0.063 C 
HETATM   10  H   UNL     1      42.682 -13.892   3.862  1.00  0.00     0.178 HD
ENDROOT
BRANCH   1  11
HETATM   11  C   UNL     1      43.277 -18.960   2.829  1.00  0.00    -0.030 A 
HETATM   12  C   UNL     1      43.877 -19.351   4.040  1.00  0.00     0.046 A 
HETATM   13  C   UNL     1      44.439 -20.621   4.194  1.00  0.00     0.068 A 
HETATM   14  C   UNL     1      44.443 -21.504   3.115  1.00  0.00     0.037 A 
HETATM   15  C   UNL     1      43.867 -21.125   1.901  1.00  0.00     0.003 A 
HETATM   16  C   UNL     1      43.285 -19.864   1.758  1.00  0.00     0.009 A 
BRANCH  13  17
HETATM   17  O   UNL     1      44.972 -20.871   5.428  1.00  0.00    -0.356 OA
HETATM   18  C   UNL     1      44.035 -21.078   6.478  1.00  0.00     0.210 C 
ENDBRANCH  13  17
ENDBRANCH   1  11
BRANCH   8  19
HETATM   19  C   UNL     1      42.050 -14.775   1.259  1.00  0.00    -0.035 A 
HETATM   20  C   UNL     1      41.786 -15.495   0.080  1.00  0.00     0.010 A 
HETATM   21  C   UNL     1      40.738 -15.130  -0.771  1.00  0.00     0.019 A 
HETATM   22  C   UNL     1      39.935 -14.040  -0.454  1.00  0.00     0.011 A 
HETATM   23 BR   UNL     1      38.519 -13.547  -1.604  1.00  0.00    -0.051 Br
HETATM   24  C   UNL     1      40.169 -13.313   0.709  1.00  0.00     0.019 A 
HETATM   25  C   UNL     1      41.216 -13.681   1.560  1.00  0.00     0.010 A 
ENDBRANCH   8  19
BRANCH   5  26
HETATM   26  N   UNL     1      40.106 -17.067   6.640  1.00  0.00    -0.229 N 
HETATM   27  H   UNL     1      39.112 -17.050   6.451  1.00  0.00     0.174 HD
HETATM   28  H   UNL     1      40.379 -16.616   7.502  1.00  0.00     0.174 HD
ENDBRANCH   5  26
TORSDOF 4
ENDMDL
MODEL 3
REMARK VINA RESULT:      -8.1      3.187      5.058
REMARK  4 active torsions:
REMARK  status: ('A' for Active; 'I' for Inactive)
REMARK    1  A    between atoms: O_2  and  C_3 
REMARK    2  A    between atoms: C_5  and  C_6 
REMARK    3  A    between atoms: C_10  and  N_11 
REMARK    4  A    between atoms: C_14  and  C_15 
ROOT
HETATM    1  C   UNL     1      42.905 -17.131   3.227  1.00  0.00     0.164 C 
HETATM    2  N   UNL     1      42.100 -16.680   4.357  1.00  0.00    -0.074 N 
HETATM    3  C   UNL     1      41.934 -15.367   4.707  1.00  0.00     0.736 A 
HETATM    4  N   UNL     1      41.073 -15.291   5.688  1.00  0.00     0.131 NA
HETATM    5  C   UNL     1      40.692 -16.589   5.862  1.00  0.00     0.753 A 
HETATM    6  N   UNL     1      41.269 -17.475   5.055  1.00  0.00     0.037 NA
HETATM    7  N   UNL     1      42.551 -14.374   4.031  1.00  0.00    -0.214 N 
HETATM    8  C   UNL     1      43.098 -14.641   2.703  1.00  0.00     0.135 C 
HETATM    9  C   UNL     1      43.826 -15.999   2.725  1.00  0.00     0.063 C 
HETATM   10  H   UNL     1      42.195 -13.434   4.182  1.00  0.00     0.178 HD
ENDROOT
BRANCH   1  11
HETATM   11  C   UNL     1      43.718 -18.373   3.558  1.00  0.00    -0.030 A 
HETATM   12  C   UNL     1      43.854 -19.428   2.637  1.00  0.00     0.046 A 
HETATM   13  C   UNL     1      44.618 -20.559   2.937  1.00  0.00     0.068 A 
HETATM   14  C   UNL     1      45.224 -20.665   4.188  1.00  0.00     0.037 A 
HETATM   15  C   UNL     1      45.085 -19.634   5.120  1.00  0.00     0.003 A 
HETATM   16  C   UNL     1      44.340 -18.495   4.808  1.00  0.00     0.009 A 
BRANCH  13  17
HETATM   17  O   UNL     1      44.677 -21.496   1.944  1.00  0.00    -0.356 OA
HETATM   18  C   UNL     1      43.425 -21.954   1.446  1.00  0.00     0.210 C 
ENDBRANCH  13  17
ENDBRANCH   1  11
BRANCH   8  19
HETATM   19  C   UNL     1      42.071 -14.518   1.581  1.00  0.00    -0.035 A 
HETATM   20  C   UNL     1      41.125 -13.480   1.507  1.00  0.00     0.010 A 
HETATM   21  C   UNL     1      40.206 -13.412   0.455  1.00  0.00     0.019 A 
HETATM   22  C   UNL     1      40.222 -14.380  -0.543  1.00  0.00     0.011 A 
HETATM   23 BR   UNL     1      38.981 -14.288  -1.964  1.00  0.00    -0.051 Br
HETATM   24  C   UNL     1      41.151 -15.415  -0.499  1.00  0.00     0.019 A 
HETATM   25  C   UNL     1      42.070 -15.480   0.553  1.00  0.00     0.010 A 
ENDBRANCH   8  19
BRANCH   5  26
HETATM   26  N   UNL     1      39.798 -16.870   6.804  1.00  0.00    -0.229 N 
HETATM   27  H   UNL     1      39.067 -17.520   6.548  1.00  0.00     0.174 HD
HETATM   28  H   UNL     1      39.492 -16.093   7.374  1.00  0.00     0.174 HD
ENDBRANCH   5  26
TORSDOF 4
ENDMDL
MODEL 4
REMARK VINA RESULT:      -8.0      4.410      7.436
REMARK  4 active torsions:
REMARK  status: ('A' for Active; 'I' for Inactive)
REMARK    1  A    between atoms: O_2  and  C_3 
REMARK    2  A    between atoms: C_5  and  C_6 
REMARK    3  A    between atoms: C_10  and  N_11 
REMARK    4  A    between atoms: C_14  and  C_15 
ROOT
HETATM    1  C   UNL     1      41.809 -15.173   5.326  1.00  0.00     0.164 C 
HETATM    2  N   UNL     1      42.956 -14.838   6.163  1.00  0.00    -0.074 N 
HETATM    3  C   UNL     1      43.442 -15.642   7.159  1.00  0.00     0.736 A 
HETATM    4  N   UNL     1      44.535 -15.112   7.642  1.00  0.00     0.131 NA
HETATM    5  C   UNL     1      44.711 -14.009   6.860  1.00  0.00     0.753 A 
HETATM    6  N   UNL     1      43.790 -13.809   5.922  1.00  0.00     0.037 NA
HETATM    7  N   UNL     1      42.851 -16.817   7.467  1.00  0.00    -0.214 N 
HETATM    8  C   UNL     1      41.928 -17.427   6.515  1.00  0.00     0.135 C 
HETATM    9  C   UNL     1      41.003 -16.335   5.943  1.00  0.00     0.063 C 
HETATM   10  H   UNL     1      43.396 -17.463   8.032  1.00  0.00     0.178 HD
ENDROOT
BRANCH   1  11
HETATM   11  C   UNL     1      40.908 -13.972   5.077  1.00  0.00    -0.030 A 
HETATM   12  C   UNL     1      40.320 -13.263   6.140  1.00  0.00     0.046 A 
HETATM   13  C   UNL     1      39.509 -12.149   5.907  1.00  0.00     0.068 A 
HETATM   14  C   UNL     1      39.243 -11.756   4.597  1.00  0.00     0.037 A 
HETATM   15  C   UNL     1      39.805 -12.460   3.529  1.00  0.00     0.003 A 
HETATM   16  C   UNL     1      40.634 -13.558   3.766  1.00  0.00     0.009 A 
BRANCH  13  17
HETATM   17  O   UNL     1      39.018 -11.547   7.033  1.00  0.00    -0.356 OA
HETATM   18  C   UNL     1      39.623 -10.308   7.388  1.00  0.00     0.210 C 
ENDBRANCH  13  17
ENDBRANCH   1  11
BRANCH   8  19
HETATM   19  C   UNL     1      42.617 -18.265   5.442  1.00  0.00    -0.035 A 
HETATM   20  C   UNL     1      42.322 -18.162   4.071  1.00  0.00     0.010 A 
HETATM   21  C   UNL     1      42.985 -18.952   3.126  1.00  0.00     0.019 A 
HETATM   22  C   UNL     1      43.958 -19.856   3.539  1.00  0.00     0.011 A 
HETATM   23 BR   UNL     1      44.854 -20.923   2.263  1.00  0.00    -0.051 Br
HETATM   24  C   UNL     1      44.276 -19.975   4.889  1.00  0.00     0.019 A 
HETATM   25  C   UNL     1      43.612 -19.183   5.831  1.00  0.00     0.010 A 
ENDBRANCH   8  19
BRANCH   5  26
HETATM   26  N   UNL     1      45.762 -13.227   7.088  1.00  0.00    -0.229 N 
HETATM   27  H   UNL     1      46.586 -13.681   7.458  1.00  0.00     0.174 HD
HETATM   28  H   UNL     1      45.564 -12.320   7.488  1.00  0.00     0.174 HD
ENDBRANCH   5  26
TORSDOF 4
ENDMDL
MODEL 5
REMARK VINA RESULT:      -8.0      4.148      6.890
REMARK  4 active torsions:
REMARK  status: ('A' for Active; 'I' for Inactive)
REMARK    1  A    between atoms: O_2  and  C_3 
REMARK    2  A    between atoms: C_5  and  C_6 
REMARK    3  A    between atoms: C_10  and  N_11 
REMARK    4  A    between atoms: C_14  and  C_15 
ROOT
HETATM    1  C   UNL     1      41.625 -14.932   0.774  1.00  0.00     0.164 C 
HETATM    2  N   UNL     1      41.328 -14.011   1.865  1.00  0.00    -0.074 N 
HETATM    3  C   UNL     1      40.483 -14.296   2.903  1.00  0.00     0.736 A 
HETATM    4  N   UNL     1      40.518 -13.314   3.766  1.00  0.00     0.131 NA
HETATM    5  C   UNL     1      41.453 -12.475   3.236  1.00  0.00     0.753 A 
HETATM    6  N   UNL     1      42.000 -12.867   2.089  1.00  0.00     0.037 NA
HETATM    7  N   UNL     1      39.819 -15.470   2.969  1.00  0.00    -0.214 N 
HETATM    8  C   UNL     1      40.266 -16.595   2.153  1.00  0.00     0.135 C 
HETATM    9  C   UNL     1      40.599 -16.085   0.737  1.00  0.00     0.063 C 
HETATM   10  H   UNL     1      39.413 -15.711   3.870  1.00  0.00     0.178 HD
ENDROOT
BRANCH   1  11
HETATM   11  C   UNL     1      41.685 -14.229  -0.574  1.00  0.00    -0.030 A 
HETATM   12  C   UNL     1      41.118 -14.802  -1.727  1.00  0.00     0.046 A 
HETATM   13  C   UNL     1      41.158 -14.144  -2.959  1.00  0.00     0.068 A 
HETATM   14  C   UNL     1      41.808 -12.915  -3.059  1.00  0.00     0.037 A 
HETATM   15  C   UNL     1      42.392 -12.340  -1.927  1.00  0.00     0.003 A 
HETATM   16  C   UNL     1      42.328 -12.989  -0.693  1.00  0.00     0.009 A 
BRANCH  13  17
HETATM   17  O   UNL     1      40.554 -14.809  -3.989  1.00  0.00    -0.356 OA
HETATM   18  C   UNL     1      39.691 -15.877  -3.617  1.00  0.00     0.210 C 
ENDBRANCH  13  17
ENDBRANCH   1  11
BRANCH   8  19
HETATM   19  C   UNL     1      41.392 -17.406   2.789  1.00  0.00    -0.035 A 
HETATM   20  C   UNL     1      41.603 -17.479   4.177  1.00  0.00     0.010 A 
HETATM   21  C   UNL     1      42.650 -18.239   4.710  1.00  0.00     0.019 A 
HETATM   22  C   UNL     1      43.500 -18.941   3.861  1.00  0.00     0.011 A 
HETATM   23 BR   UNL     1      44.913 -19.968   4.581  1.00  0.00    -0.051 Br
HETATM   24  C   UNL     1      43.310 -18.892   2.484  1.00  0.00     0.019 A 
HETATM   25  C   UNL     1      42.262 -18.132   1.953  1.00  0.00     0.010 A 
ENDBRANCH   8  19
BRANCH   5  26
HETATM   26  N   UNL     1      41.741 -11.351   3.884  1.00  0.00    -0.229 N 
HETATM   27  H   UNL     1      42.719 -11.185   4.080  1.00  0.00     0.174 HD
HETATM   28  H   UNL     1      41.112 -11.094   4.632  1.00  0.00     0.174 HD
ENDBRANCH   5  26
TORSDOF 4
ENDMDL
MODEL 6
REMARK VINA RESULT:      -7.9      3.104      4.519
REMARK  4 active torsions:
REMARK  status: ('A' for Active; 'I' for Inactive)
REMARK    1  A    between atoms: O_2  and  C_3 
REMARK    2  A    between atoms: C_5  and  C_6 
REMARK    3  A    between atoms: C_10  and  N_11 
REMARK    4  A    between atoms: C_14  and  C_15 
ROOT
HETATM    1  C   UNL     1      43.026 -16.262   4.248  1.00  0.00     0.164 C 
HETATM    2  N   UNL     1      43.387 -16.269   5.661  1.00  0.00    -0.074 N 
HETATM    3  C   UNL     1      44.039 -15.242   6.292  1.00  0.00     0.736 A 
HETATM    4  N   UNL     1      44.115 -15.506   7.570  1.00  0.00     0.131 NA
HETATM    5  C   UNL     1      43.436 -16.683   7.681  1.00  0.00     0.753 A 
HETATM    6  N   UNL     1      42.946 -17.179   6.548  1.00  0.00     0.037 NA
HETATM    7  N   UNL     1      44.435 -14.140   5.619  1.00  0.00    -0.214 N 
HETATM    8  C   UNL     1      43.856 -13.850   4.311  1.00  0.00     0.135 C 
HETATM    9  C   UNL     1      43.789 -15.154   3.493  1.00  0.00     0.063 C 
HETATM   10  H   UNL     1      44.683 -13.331   6.183  1.00  0.00     0.178 HD
ENDROOT
BRANCH   1  11
HETATM   11  C   UNL     1      43.258 -17.614   3.588  1.00  0.00    -0.030 A 
HETATM   12  C   UNL     1      44.167 -18.545   4.124  1.00  0.00     0.046 A 
HETATM   13  C   UNL     1      44.362 -19.793   3.526  1.00  0.00     0.068 A 
HETATM   14  C   UNL     1      43.675 -20.108   2.355  1.00  0.00     0.037 A 
HETATM   15  C   UNL     1      42.782 -19.188   1.801  1.00  0.00     0.003 A 
HETATM   16  C   UNL     1      42.572 -17.951   2.414  1.00  0.00     0.009 A 
BRANCH  13  17
HETATM   17  O   UNL     1      45.262 -20.604   4.163  1.00  0.00    -0.356 OA
HETATM   18  C   UNL     1      44.750 -21.366   5.249  1.00  0.00     0.210 C 
ENDBRANCH  13  17
ENDBRANCH   1  11
BRANCH   8  19
HETATM   19  C   UNL     1      42.525 -13.106   4.380  1.00  0.00    -0.035 A 
HETATM   20  C   UNL     1      41.964 -12.634   5.580  1.00  0.00     0.010 A 
HETATM   21  C   UNL     1      40.741 -11.955   5.590  1.00  0.00     0.019 A 
HETATM   22  C   UNL     1      40.061 -11.736   4.396  1.00  0.00     0.011 A 
HETATM   23 BR   UNL     1      38.409 -10.818   4.409  1.00  0.00    -0.051 Br
HETATM   24  C   UNL     1      40.596 -12.186   3.193  1.00  0.00     0.019 A 
HETATM   25  C   UNL     1      41.819 -12.863   3.186  1.00  0.00     0.010 A 
ENDBRANCH   8  19
BRANCH   5  26
HETATM   26  N   UNL     1      43.318 -17.241   8.882  1.00  0.00    -0.229 N 
HETATM   27  H   UNL     1      43.858 -16.820   9.625  1.00  0.00     0.174 HD
HETATM   28  H   UNL     1      43.286 -18.251   8.902  1.00  0.00     0.174 HD
ENDBRANCH   5  26
TORSDOF 4
ENDMDL
MODEL 7
REMARK VINA RESULT:      -7.7      4.375      7.322
REMARK  4 active torsions:
REMARK  status: ('A' for Active; 'I' for Inactive)
REMARK    1  A    between atoms: O_2  and  C_3 
REMARK    2  A    between atoms: C_5  and  C_6 
REMARK    3  A    between atoms: C_10  and  N_11 
REMARK    4  A    between atoms: C_14  and  C_15 
ROOT
HETATM    1  C   UNL     1      42.341 -14.922   3.939  1.00  0.00     0.164 C 
HETATM    2  N   UNL     1      43.134 -14.682   5.139  1.00  0.00    -0.074 N 
HETATM    3  C   UNL     1      43.042 -15.428   6.283  1.00  0.00     0.736 A 
HETATM    4  N   UNL     1      43.957 -15.031   7.128  1.00  0.00     0.131 NA
HETATM    5  C   UNL     1      44.628 -14.074   6.425  1.00  0.00     0.753 A 
HETATM    6  N   UNL     1      44.184 -13.841   5.193  1.00  0.00     0.037 NA
HETATM    7  N   UNL     1      42.159 -16.444   6.393  1.00  0.00    -0.214 N 
HETATM    8  C   UNL     1      41.556 -17.005   5.187  1.00  0.00     0.135 C 
HETATM    9  C   UNL     1      41.150 -15.853   4.248  1.00  0.00     0.063 C 
HETATM   10  H   UNL     1      42.313 -17.098   7.156  1.00  0.00     0.178 HD
ENDROOT
BRANCH   1  11
HETATM   11  C   UNL     1      41.856 -13.629   3.300  1.00  0.00    -0.030 A 
HETATM   12  C   UNL     1      42.387 -13.169   2.081  1.00  0.00     0.046 A 
HETATM   13  C   UNL     1      41.926 -11.991   1.488  1.00  0.00     0.068 A 
HETATM   14  C   UNL     1      40.949 -11.235   2.134  1.00  0.00     0.037 A 
HETATM   15  C   UNL     1      40.424 -11.669   3.353  1.00  0.00     0.003 A 
HETATM   16  C   UNL     1      40.870 -12.859   3.931  1.00  0.00     0.009 A 
BRANCH  13  17
HETATM   17  O   UNL     1      42.519 -11.673   0.298  1.00  0.00    -0.356 OA
HETATM   18  C   UNL     1      41.857 -10.683  -0.481  1.00  0.00     0.210 C 
ENDBRANCH  13  17
ENDBRANCH   1  11
BRANCH   8  19
HETATM   19  C   UNL     1      42.416 -18.069   4.509  1.00  0.00    -0.035 A 
HETATM   20  C   UNL     1      43.358 -18.855   5.196  1.00  0.00     0.010 A 
HETATM   21  C   UNL     1      44.121 -19.819   4.529  1.00  0.00     0.019 A 
HETATM   22  C   UNL     1      43.949 -20.014   3.162  1.00  0.00     0.011 A 
HETATM   23 BR   UNL     1      44.979 -21.316   2.260  1.00  0.00    -0.051 Br
HETATM   24  C   UNL     1      43.019 -19.255   2.458  1.00  0.00     0.019 A 
HETATM   25  C   UNL     1      42.257 -18.293   3.129  1.00  0.00     0.010 A 
ENDBRANCH   8  19
BRANCH   5  26
HETATM   26  N   UNL     1      45.650 -13.454   7.006  1.00  0.00    -0.229 N 
HETATM   27  H   UNL     1      45.984 -13.857   7.872  1.00  0.00     0.174 HD
HETATM   28  H   UNL     1      45.624 -12.444   6.993  1.00  0.00     0.174 HD
ENDBRANCH   5  26
TORSDOF 4
ENDMDL
MODEL 8
REMARK VINA RESULT:      -7.7      4.249      6.915
REMARK  4 active torsions:
REMARK  status: ('A' for Active; 'I' for Inactive)
REMARK    1  A    between atoms: O_2  and  C_3 
REMARK    2  A    between atoms: C_5  and  C_6 
REMARK    3  A    between atoms: C_10  and  N_11 
REMARK    4  A    between atoms: C_14  and  C_15 
ROOT
HETATM    1  C   UNL     1      41.573 -15.120   0.580  1.00  0.00     0.164 C 
HETATM    2  N   UNL     1      41.284 -14.144   1.625  1.00  0.00    -0.074 N 
HETATM    3  C   UNL     1      40.464 -14.384   2.696  1.00  0.00     0.736 A 
HETATM    4  N   UNL     1      40.502 -13.356   3.502  1.00  0.00     0.131 NA
HETATM    5  C   UNL     1      41.413 -12.534   2.908  1.00  0.00     0.753 A 
HETATM    6  N   UNL     1      41.943 -12.980   1.773  1.00  0.00     0.037 NA
HETATM    7  N   UNL     1      39.820 -15.563   2.839  1.00  0.00    -0.214 N 
HETATM    8  C   UNL     1      40.268 -16.724   2.076  1.00  0.00     0.135 C 
HETATM    9  C   UNL     1      40.565 -16.287   0.628  1.00  0.00     0.063 C 
HETATM   10  H   UNL     1      39.437 -15.760   3.760  1.00  0.00     0.178 HD
ENDROOT
BRANCH   1  11
HETATM   11  C   UNL     1      41.595 -14.490  -0.805  1.00  0.00    -0.030 A 
HETATM   12  C   UNL     1      42.198 -13.239  -1.032  1.00  0.00     0.046 A 
HETATM   13  C   UNL     1      42.233 -12.674  -2.310  1.00  0.00     0.068 A 
HETATM   14  C   UNL     1      41.625 -13.340  -3.372  1.00  0.00     0.037 A 
HETATM   15  C   UNL     1      41.008 -14.575  -3.160  1.00  0.00     0.003 A 
HETATM   16  C   UNL     1      40.995 -15.148  -1.887  1.00  0.00     0.009 A 
BRANCH  13  17
HETATM   17  O   UNL     1      42.865 -11.463  -2.388  1.00  0.00    -0.356 OA
HETATM   18  C   UNL     1      43.186 -10.849  -1.145  1.00  0.00     0.210 C 
ENDBRANCH  13  17
ENDBRANCH   1  11
BRANCH   8  19
HETATM   19  C   UNL     1      41.419 -17.482   2.731  1.00  0.00    -0.035 A 
HETATM   20  C   UNL     1      42.400 -18.179   2.003  1.00  0.00     0.010 A 
HETATM   21  C   UNL     1      43.437 -18.858   2.652  1.00  0.00     0.019 A 
HETATM   22  C   UNL     1      43.510 -18.845   4.041  1.00  0.00     0.011 A 
HETATM   23 BR   UNL     1      44.911 -19.761   4.918  1.00  0.00    -0.051 Br
HETATM   24  C   UNL     1      42.558 -18.158   4.786  1.00  0.00     0.019 A 
HETATM   25  C   UNL     1      41.523 -17.479   4.135  1.00  0.00     0.010 A 
ENDBRANCH   8  19
BRANCH   5  26
HETATM   26  N   UNL     1      41.697 -11.372   3.488  1.00  0.00    -0.229 N 
HETATM   27  H   UNL     1      42.173 -10.690   2.913  1.00  0.00     0.174 HD
HETATM   28  H   UNL     1      42.022 -11.419   4.444  1.00  0.00     0.174 HD
ENDBRANCH   5  26
TORSDOF 4
ENDMDL
MODEL 9
REMARK VINA RESULT:      -7.6      2.499      3.730
REMARK  4 active torsions:
REMARK  status: ('A' for Active; 'I' for Inactive)
REMARK    1  A    between atoms: O_2  and  C_3 
REMARK    2  A    between atoms: C_5  and  C_6 
REMARK    3  A    between atoms: C_10  and  N_11 
REMARK    4  A    between atoms: C_14  and  C_15 
ROOT
HETATM    1  C   UNL     1      42.363 -15.601   4.546  1.00  0.00     0.164 C 
HETATM    2  N   UNL     1      41.904 -15.742   3.169  1.00  0.00    -0.074 N 
HETATM    3  C   UNL     1      40.629 -15.465   2.753  1.00  0.00     0.736 A 
HETATM    4  N   UNL     1      40.569 -15.586   1.452  1.00  0.00     0.131 NA
HETATM    5  C   UNL     1      41.856 -15.879   1.112  1.00  0.00     0.753 A 
HETATM    6  N   UNL     1      42.719 -15.959   2.121  1.00  0.00     0.037 NA
HETATM    7  N   UNL     1      39.675 -15.066   3.621  1.00  0.00    -0.214 N 
HETATM    8  C   UNL     1      40.065 -14.563   4.935  1.00  0.00     0.135 C 
HETATM    9  C   UNL     1      41.167 -15.472   5.512  1.00  0.00     0.063 C 
HETATM   10  H   UNL     1      38.841 -14.647   3.216  1.00  0.00     0.178 HD
ENDROOT
BRANCH   1  11
HETATM   11  C   UNL     1      43.271 -16.746   4.971  1.00  0.00    -0.030 A 
HETATM   12  C   UNL     1      43.375 -17.922   4.206  1.00  0.00     0.046 A 
HETATM   13  C   UNL     1      44.224 -18.963   4.589  1.00  0.00     0.068 A 
HETATM   14  C   UNL     1      44.954 -18.854   5.772  1.00  0.00     0.037 A 
HETATM   15  C   UNL     1      44.849 -17.699   6.551  1.00  0.00     0.003 A 
HETATM   16  C   UNL     1      44.017 -16.651   6.153  1.00  0.00     0.009 A 
BRANCH  13  17
HETATM   17  O   UNL     1      44.238 -20.038   3.744  1.00  0.00    -0.356 OA
HETATM   18  C   UNL     1      43.722 -19.808   2.438  1.00  0.00     0.210 C 
ENDBRANCH  13  17
ENDBRANCH   1  11
BRANCH   8  19
HETATM   19  C   UNL     1      40.433 -13.082   4.941  1.00  0.00    -0.035 A 
HETATM   20  C   UNL     1      40.140 -12.208   3.879  1.00  0.00     0.010 A 
HETATM   21  C   UNL     1      40.497 -10.856   3.935  1.00  0.00     0.019 A 
HETATM   22  C   UNL     1      41.150 -10.358   5.057  1.00  0.00     0.011 A 
HETATM   23 BR   UNL     1      41.631  -8.532   5.133  1.00  0.00    -0.051 Br
HETATM   24  C   UNL     1      41.445 -11.198   6.126  1.00  0.00     0.019 A 
HETATM   25  C   UNL     1      41.086 -12.548   6.069  1.00  0.00     0.010 A 
ENDBRANCH   8  19
BRANCH   5  26
HETATM   26  N   UNL     1      42.150 -16.065  -0.171  1.00  0.00    -0.229 N 
HETATM   27  H   UNL     1      41.373 -16.040  -0.817  1.00  0.00     0.174 HD
HETATM   28  H   UNL     1      42.843 -16.773  -0.371  1.00  0.00     0.174 HD
ENDBRANCH   5  26
TORSDOF 4
ENDMDL
MODEL 10
REMARK VINA RESULT:      -7.5      2.395      3.289
REMARK  4 active torsions:
REMARK  status: ('A' for Active; 'I' for Inactive)
REMARK    1  A    between atoms: O_2  and  C_3 
REMARK    2  A    between atoms: C_5  and  C_6 
REMARK    3  A    between atoms: C_10  and  N_11 
REMARK    4  A    between atoms: C_14  and  C_15 
ROOT
HETATM    1  C   UNL     1      42.036 -16.103   3.260  1.00  0.00     0.164 C 
HETATM    2  N   UNL     1      41.535 -15.815   1.920  1.00  0.00    -0.074 N 
HETATM    3  C   UNL     1      40.273 -15.354   1.654  1.00  0.00     0.736 A 
HETATM    4  N   UNL     1      40.174 -15.092   0.377  1.00  0.00     0.131 NA
HETATM    5  C   UNL     1      41.430 -15.353  -0.087  1.00  0.00     0.753 A 
HETATM    6  N   UNL     1      42.308 -15.771   0.820  1.00  0.00     0.037 NA
HETATM    7  N   UNL     1      39.370 -15.164   2.640  1.00  0.00    -0.214 N 
HETATM    8  C   UNL     1      39.825 -15.084   4.025  1.00  0.00     0.135 C 
HETATM    9  C   UNL     1      40.874 -16.185   4.272  1.00  0.00     0.063 C 
HETATM   10  H   UNL     1      38.559 -14.597   2.407  1.00  0.00     0.178 HD
ENDROOT
BRANCH   1  11
HETATM   11  C   UNL     1      42.871 -17.374   3.302  1.00  0.00    -0.030 A 
HETATM   12  C   UNL     1      43.694 -17.675   4.403  1.00  0.00     0.046 A 
HETATM   13  C   UNL     1      44.445 -18.853   4.446  1.00  0.00     0.068 A 
HETATM   14  C   UNL     1      44.411 -19.728   3.362  1.00  0.00     0.037 A 
HETATM   15  C   UNL     1      43.612 -19.435   2.254  1.00  0.00     0.003 A 
HETATM   16  C   UNL     1      42.845 -18.269   2.224  1.00  0.00     0.009 A 
BRANCH  13  17
HETATM   17  O   UNL     1      45.185 -19.024   5.583  1.00  0.00    -0.356 OA
HETATM   18  C   UNL     1      45.101 -17.976   6.542  1.00  0.00     0.210 C 
ENDBRANCH  13  17
ENDBRANCH   1  11
BRANCH   8  19
HETATM   19  C   UNL     1      40.295 -13.691   4.437  1.00  0.00    -0.035 A 
HETATM   20  C   UNL     1      41.250 -13.464   5.444  1.00  0.00     0.010 A 
HETATM   21  C   UNL     1      41.649 -12.167   5.783  1.00  0.00     0.019 A 
HETATM   22  C   UNL     1      41.101 -11.076   5.115  1.00  0.00     0.011 A 
HETATM   23 BR   UNL     1      41.641  -9.324   5.573  1.00  0.00    -0.051 Br
HETATM   24  C   UNL     1      40.160 -11.272   4.109  1.00  0.00     0.019 A 
HETATM   25  C   UNL     1      39.764 -12.570   3.771  1.00  0.00     0.010 A 
ENDBRANCH   8  19
BRANCH   5  26
HETATM   26  N   UNL     1      41.680 -15.180  -1.381  1.00  0.00    -0.229 N 
HETATM   27  H   UNL     1      40.895 -15.297  -2.008  1.00  0.00     0.174 HD
HETATM   28  H   UNL     1      42.553 -15.561  -1.721  1.00  0.00     0.174 HD
ENDBRANCH   5  26
TORSDOF 4
ENDMDL
