MODEL 1
REMARK VINA RESULT:      -8.9      0.000      0.000
REMARK  7 active torsions:
REMARK  status: ('A' for Active; 'I' for Inactive)
REMARK    1  A    between atoms: C_4  and  C_5 
REMARK    2  A    between atoms: C_5  and  N_6 
REMARK       I    between atoms: N_6  and  C_7 
REMARK       I    between atoms: C_7  and  N_8 
REMARK    3  A    between atoms: N_8  and  C_9 
REMARK    4  A    between atoms: C_9  and  C_10 
REMARK    5  A    between atoms: C_12  and  O_13 
REMARK    6  A    between atoms: O_13  and  C_14 
REMARK    7  A    between atoms: C_23  and  O_24 
ROOT
HETATM    1  N   UNL     1      42.946 -15.961   5.734  1.00  0.00    -0.335 N 
HETATM    2  C   UNL     1      42.729 -14.623   5.658  1.00  0.00     0.316 C 
HETATM    3  N   UNL     1      43.416 -13.847   6.531  1.00  0.00    -0.339 N 
HETATM    4  O   UNL     1      41.973 -14.077   4.862  1.00  0.00    -0.247 OA
HETATM    5  H   UNL     1      43.235 -16.302   6.634  1.00  0.00     0.165 HD
HETATM    6  H   UNL     1      43.255 -12.863   6.353  1.00  0.00     0.164 HD
ENDROOT
BRANCH   1   7
HETATM    7  C   UNL     1      42.270 -16.984   4.930  1.00  0.00     0.118 C 
HETATM    8  C   UNL     1      40.906 -17.438   5.452  1.00  0.00     0.037 C 
BRANCH   7   9
HETATM    9  C   UNL     1      43.180 -18.164   4.610  1.00  0.00    -0.002 A 
HETATM   10  C   UNL     1      43.097 -18.811   3.361  1.00  0.00     0.018 A 
HETATM   11  C   UNL     1      43.909 -19.907   3.048  1.00  0.00    -0.061 A 
HETATM   12  C   UNL     1      43.802 -20.566   1.705  1.00  0.00     0.048 C 
HETATM   13  C   UNL     1      44.854 -20.334   3.980  1.00  0.00     0.009 A 
HETATM   14  C   UNL     1      44.973 -19.689   5.214  1.00  0.00     0.038 A 
HETATM   15  C   UNL     1      44.147 -18.607   5.537  1.00  0.00     0.076 A 
BRANCH  15  16
HETATM   16  O   UNL     1      44.208 -17.919   6.723  1.00  0.00    -0.355 OA
HETATM   17  C   UNL     1      44.013 -18.656   7.923  1.00  0.00     0.210 C 
ENDBRANCH  15  16
ENDBRANCH   7   9
ENDBRANCH   1   7
BRANCH   3  18
HETATM   18  C   UNL     1      44.503 -14.178   7.425  1.00  0.00     0.163 C 
BRANCH  18  19
HETATM   19  C   UNL     1      45.066 -12.947   8.080  1.00  0.00    -0.035 A 
HETATM   20  C   UNL     1      44.283 -12.179   8.946  1.00  0.00     0.066 A 
HETATM   21  C   UNL     1      44.842 -11.048   9.520  1.00  0.00     0.164 A 
HETATM   22  N   UNL     1      46.109 -10.641   9.305  1.00  0.00    -0.237 NA
HETATM   23  C   UNL     1      46.856 -11.409   8.485  1.00  0.00     0.120 A 
HETATM   24  C   UNL     1      46.389 -12.554   7.858  1.00  0.00     0.028 A 
BRANCH  21  25
HETATM   25  O   UNL     1      44.024 -10.309  10.354  1.00  0.00    -0.329 OA
BRANCH  25  26
HETATM   26  C   UNL     1      43.882 -10.801  11.702  1.00  0.00     0.130 C 
HETATM   27  C   UNL     1      43.656  -9.745  12.818  1.00  0.00     0.032 C 
HETATM   28  C   UNL     1      42.643 -10.715  13.449  1.00  0.00     0.005 C 
HETATM   29  C   UNL     1      42.467 -11.333  12.051  1.00  0.00     0.032 C 
ENDBRANCH  25  26
ENDBRANCH  21  25
ENDBRANCH  18  19
ENDBRANCH   3  18
TORSDOF 7
ENDMDL
MODEL 2
REMARK VINA RESULT:      -8.8      1.289      2.194
REMARK  7 active torsions:
REMARK  status: ('A' for Active; 'I' for Inactive)
REMARK    1  A    between atoms: C_4  and  C_5 
REMARK    2  A    between atoms: C_5  and  N_6 
REMARK       I    between atoms: N_6  and  C_7 
REMARK       I    between atoms: C_7  and  N_8 
REMARK    3  A    between atoms: N_8  and  C_9 
REMARK    4  A    between atoms: C_9  and  C_10 
REMARK    5  A    between atoms: C_12  and  O_13 
REMARK    6  A    between atoms: O_13  and  C_14 
REMARK    7  A    between atoms: C_23  and  O_24 
ROOT
HETATM    1  N   UNL     1      42.905 -15.804   5.595  1.00  0.00    -0.335 N 
HETATM    2  C   UNL     1      43.494 -14.689   5.093  1.00  0.00     0.316 C 
HETATM    3  N   UNL     1      44.217 -13.942   5.962  1.00  0.00    -0.339 N 
HETATM    4  O   UNL     1      43.425 -14.321   3.925  1.00  0.00    -0.247 OA
HETATM    5  H   UNL     1      42.691 -15.775   6.576  1.00  0.00     0.165 HD
HETATM    6  H   UNL     1      44.683 -13.177   5.490  1.00  0.00     0.164 HD
ENDROOT
BRANCH   1   7
HETATM    7  C   UNL     1      42.035 -16.720   4.851  1.00  0.00     0.118 C 
HETATM    8  C   UNL     1      40.904 -17.359   5.658  1.00  0.00     0.037 C 
BRANCH   7   9
HETATM    9  C   UNL     1      42.826 -17.755   4.059  1.00  0.00    -0.002 A 
HETATM   10  C   UNL     1      43.526 -18.779   4.725  1.00  0.00     0.018 A 
HETATM   11  C   UNL     1      44.274 -19.731   4.024  1.00  0.00    -0.061 A 
HETATM   12  C   UNL     1      45.000 -20.815   4.764  1.00  0.00     0.048 C 
HETATM   13  C   UNL     1      44.283 -19.689   2.630  1.00  0.00     0.009 A 
HETATM   14  C   UNL     1      43.572 -18.699   1.948  1.00  0.00     0.038 A 
HETATM   15  C   UNL     1      42.841 -17.732   2.648  1.00  0.00     0.076 A 
BRANCH  15  16
HETATM   16  O   UNL     1      42.113 -16.734   2.051  1.00  0.00    -0.355 OA
HETATM   17  C   UNL     1      40.957 -17.111   1.315  1.00  0.00     0.210 C 
ENDBRANCH  15  16
ENDBRANCH   7   9
ENDBRANCH   1   7
BRANCH   3  18
HETATM   18  C   UNL     1      44.638 -14.224   7.317  1.00  0.00     0.163 C 
BRANCH  18  19
HETATM   19  C   UNL     1      45.154 -12.987   7.997  1.00  0.00    -0.035 A 
HETATM   20  C   UNL     1      44.328 -12.241   8.844  1.00  0.00     0.066 A 
HETATM   21  C   UNL     1      44.846 -11.104   9.444  1.00  0.00     0.164 A 
HETATM   22  N   UNL     1      46.110 -10.669   9.270  1.00  0.00    -0.237 NA
HETATM   23  C   UNL     1      46.898 -11.414   8.469  1.00  0.00     0.120 A 
HETATM   24  C   UNL     1      46.474 -12.564   7.819  1.00  0.00     0.028 A 
BRANCH  21  25
HETATM   25  O   UNL     1      43.987 -10.388  10.257  1.00  0.00    -0.329 OA
BRANCH  25  26
HETATM   26  C   UNL     1      43.938 -10.794  11.640  1.00  0.00     0.130 C 
HETATM   27  C   UNL     1      43.604  -9.695  12.685  1.00  0.00     0.032 C 
HETATM   28  C   UNL     1      42.737 -10.737  13.414  1.00  0.00     0.005 C 
HETATM   29  C   UNL     1      42.611 -11.473  12.069  1.00  0.00     0.032 C 
ENDBRANCH  25  26
ENDBRANCH  21  25
ENDBRANCH  18  19
ENDBRANCH   3  18
TORSDOF 7
ENDMDL
MODEL 3
REMARK VINA RESULT:      -8.3      2.593      3.905
REMARK  7 active torsions:
REMARK  status: ('A' for Active; 'I' for Inactive)
REMARK    1  A    between atoms: C_4  and  C_5 
REMARK    2  A    between atoms: C_5  and  N_6 
REMARK       I    between atoms: N_6  and  C_7 
REMARK       I    between atoms: C_7  and  N_8 
REMARK    3  A    between atoms: N_8  and  C_9 
REMARK    4  A    between atoms: C_9  and  C_10 
REMARK    5  A    between atoms: C_12  and  O_13 
REMARK    6  A    between atoms: O_13  and  C_14 
REMARK    7  A    between atoms: C_23  and  O_24 
ROOT
HETATM    1  N   UNL     1      42.104 -15.849   5.552  1.00  0.00    -0.335 N 
HETATM    2  C   UNL     1      40.859 -15.844   6.094  1.00  0.00     0.316 C 
HETATM    3  N   UNL     1      40.225 -14.647   6.146  1.00  0.00    -0.339 N 
HETATM    4  O   UNL     1      40.274 -16.833   6.523  1.00  0.00    -0.247 OA
HETATM    5  H   UNL     1      42.609 -14.983   5.623  1.00  0.00     0.165 HD
HETATM    6  H   UNL     1      39.277 -14.748   6.490  1.00  0.00     0.164 HD
ENDROOT
BRANCH   1   7
HETATM    7  C   UNL     1      42.987 -17.015   5.450  1.00  0.00     0.118 C 
HETATM    8  C   UNL     1      44.269 -16.947   6.281  1.00  0.00     0.037 C 
BRANCH   7   9
HETATM    9  C   UNL     1      43.264 -17.405   4.003  1.00  0.00    -0.002 A 
HETATM   10  C   UNL     1      43.294 -18.762   3.623  1.00  0.00     0.018 A 
HETATM   11  C   UNL     1      43.563 -19.148   2.306  1.00  0.00    -0.061 A 
HETATM   12  C   UNL     1      43.576 -20.601   1.933  1.00  0.00     0.048 C 
HETATM   13  C   UNL     1      43.758 -18.161   1.340  1.00  0.00     0.009 A 
HETATM   14  C   UNL     1      43.705 -16.810   1.689  1.00  0.00     0.038 A 
HETATM   15  C   UNL     1      43.458 -16.421   3.011  1.00  0.00     0.076 A 
BRANCH  15  16
HETATM   16  O   UNL     1      43.384 -15.117   3.429  1.00  0.00    -0.355 OA
HETATM   17  C   UNL     1      42.864 -14.160   2.516  1.00  0.00     0.210 C 
ENDBRANCH  15  16
ENDBRANCH   7   9
ENDBRANCH   1   7
BRANCH   3  18
HETATM   18  C   UNL     1      40.569 -13.377   5.547  1.00  0.00     0.163 C 
BRANCH  18  19
HETATM   19  C   UNL     1      40.613 -12.282   6.576  1.00  0.00    -0.035 A 
HETATM   20  C   UNL     1      41.836 -11.795   7.048  1.00  0.00     0.066 A 
HETATM   21  C   UNL     1      41.826 -10.790   8.002  1.00  0.00     0.164 A 
HETATM   22  N   UNL     1      40.704 -10.237   8.504  1.00  0.00    -0.237 NA
HETATM   23  C   UNL     1      39.535 -10.703   8.019  1.00  0.00     0.120 A 
HETATM   24  C   UNL     1      39.437 -11.708   7.068  1.00  0.00     0.028 A 
BRANCH  21  25
HETATM   25  O   UNL     1      43.058 -10.355   8.454  1.00  0.00    -0.329 OA
BRANCH  25  26
HETATM   26  C   UNL     1      43.705 -11.192   9.435  1.00  0.00     0.130 C 
HETATM   27  C   UNL     1      45.167 -11.624   9.137  1.00  0.00     0.032 C 
HETATM   28  C   UNL     1      45.473 -11.400  10.628  1.00  0.00     0.005 C 
HETATM   29  C   UNL     1      44.280 -10.429  10.658  1.00  0.00     0.032 C 
ENDBRANCH  25  26
ENDBRANCH  21  25
ENDBRANCH  18  19
ENDBRANCH   3  18
TORSDOF 7
ENDMDL
MODEL 4
REMARK VINA RESULT:      -8.2      4.390      6.844
REMARK  7 active torsions:
REMARK  status: ('A' for Active; 'I' for Inactive)
REMARK    1  A    between atoms: C_4  and  C_5 
REMARK    2  A    between atoms: C_5  and  N_6 
REMARK       I    between atoms: N_6  and  C_7 
REMARK       I    between atoms: C_7  and  N_8 
REMARK    3  A    between atoms: N_8  and  C_9 
REMARK    4  A    between atoms: C_9  and  C_10 
REMARK    5  A    between atoms: C_12  and  O_13 
REMARK    6  A    between atoms: O_13  and  C_14 
REMARK    7  A    between atoms: C_23  and  O_24 
ROOT
HETATM    1  N   UNL     1      43.443 -16.779   5.948  1.00  0.00    -0.335 N 
HETATM    2  C   UNL     1      42.265 -16.539   6.580  1.00  0.00     0.316 C 
HETATM    3  N   UNL     1      41.822 -15.258   6.571  1.00  0.00    -0.339 N 
HETATM    4  O   UNL     1      41.582 -17.389   7.140  1.00  0.00    -0.247 OA
HETATM    5  H   UNL     1      44.074 -15.998   5.901  1.00  0.00     0.165 HD
HETATM    6  H   UNL     1      40.904 -15.185   6.992  1.00  0.00     0.164 HD
ENDROOT
BRANCH   1   7
HETATM    7  C   UNL     1      44.132 -18.071   5.886  1.00  0.00     0.118 C 
HETATM    8  C   UNL     1      45.539 -18.099   6.485  1.00  0.00     0.037 C 
BRANCH   7   9
HETATM    9  C   UNL     1      44.094 -18.681   4.489  1.00  0.00    -0.002 A 
HETATM   10  C   UNL     1      43.834 -17.872   3.365  1.00  0.00     0.018 A 
HETATM   11  C   UNL     1      43.777 -18.409   2.075  1.00  0.00    -0.061 A 
HETATM   12  C   UNL     1      43.508 -17.518   0.899  1.00  0.00     0.048 C 
HETATM   13  C   UNL     1      44.032 -19.768   1.897  1.00  0.00     0.009 A 
HETATM   14  C   UNL     1      44.320 -20.583   2.995  1.00  0.00     0.038 A 
HETATM   15  C   UNL     1      44.356 -20.052   4.289  1.00  0.00     0.076 A 
BRANCH  15  16
HETATM   16  O   UNL     1      44.638 -20.785   5.414  1.00  0.00    -0.355 OA
HETATM   17  C   UNL     1      44.965 -22.158   5.242  1.00  0.00     0.210 C 
ENDBRANCH  15  16
ENDBRANCH   7   9
ENDBRANCH   1   7
BRANCH   3  18
HETATM   18  C   UNL     1      42.295 -14.107   5.834  1.00  0.00     0.163 C 
BRANCH  18  19
HETATM   19  C   UNL     1      41.982 -14.231   4.369  1.00  0.00    -0.035 A 
HETATM   20  C   UNL     1      40.663 -14.388   3.932  1.00  0.00     0.066 A 
HETATM   21  C   UNL     1      40.423 -14.505   2.572  1.00  0.00     0.164 A 
HETATM   22  N   UNL     1      41.388 -14.466   1.630  1.00  0.00    -0.237 NA
HETATM   23  C   UNL     1      42.651 -14.290   2.070  1.00  0.00     0.120 A 
HETATM   24  C   UNL     1      42.995 -14.168   3.408  1.00  0.00     0.028 A 
BRANCH  21  25
HETATM   25  O   UNL     1      39.107 -14.679   2.189  1.00  0.00    -0.329 OA
BRANCH  25  26
HETATM   26  C   UNL     1      38.630 -13.804   1.144  1.00  0.00     0.130 C 
HETATM   27  C   UNL     1      37.184 -14.044   0.632  1.00  0.00     0.032 C 
HETATM   28  C   UNL     1      37.014 -12.515   0.578  1.00  0.00     0.005 C 
HETATM   29  C   UNL     1      38.126 -12.423   1.638  1.00  0.00     0.032 C 
ENDBRANCH  25  26
ENDBRANCH  21  25
ENDBRANCH  18  19
ENDBRANCH   3  18
TORSDOF 7
ENDMDL
MODEL 5
REMARK VINA RESULT:      -8.2      4.610      7.403
REMARK  7 active torsions:
REMARK  status: ('A' for Active; 'I' for Inactive)
REMARK    1  A    between atoms: C_4  and  C_5 
REMARK    2  A    between atoms: C_5  and  N_6 
REMARK       I    between atoms: N_6  and  C_7 
REMARK       I    between atoms: C_7  and  N_8 
REMARK    3  A    between atoms: N_8  and  C_9 
REMARK    4  A    between atoms: C_9  and  C_10 
REMARK    5  A    between atoms: C_12  and  O_13 
REMARK    6  A    between atoms: O_13  and  C_14 
REMARK    7  A    between atoms: C_23  and  O_24 
ROOT
HETATM    1  N   UNL     1      42.111 -15.903   5.836  1.00  0.00    -0.335 N 
HETATM    2  C   UNL     1      40.807 -15.971   6.210  1.00  0.00     0.316 C 
HETATM    3  N   UNL     1      40.149 -14.793   6.333  1.00  0.00    -0.339 N 
HETATM    4  O   UNL     1      40.192 -17.009   6.432  1.00  0.00    -0.247 OA
HETATM    5  H   UNL     1      42.586 -15.052   6.080  1.00  0.00     0.165 HD
HETATM    6  H   UNL     1      39.168 -14.940   6.537  1.00  0.00     0.164 HD
ENDROOT
BRANCH   1   7
HETATM    7  C   UNL     1      43.022 -17.043   5.700  1.00  0.00     0.118 C 
HETATM    8  C   UNL     1      44.284 -16.986   6.561  1.00  0.00     0.037 C 
BRANCH   7   9
HETATM    9  C   UNL     1      43.340 -17.359   4.243  1.00  0.00    -0.002 A 
HETATM   10  C   UNL     1      43.292 -18.687   3.774  1.00  0.00     0.018 A 
HETATM   11  C   UNL     1      43.595 -19.006   2.446  1.00  0.00    -0.061 A 
HETATM   12  C   UNL     1      43.524 -20.429   1.977  1.00  0.00     0.048 C 
HETATM   13  C   UNL     1      43.904 -17.976   1.558  1.00  0.00     0.009 A 
HETATM   14  C   UNL     1      43.930 -16.650   1.995  1.00  0.00     0.038 A 
HETATM   15  C   UNL     1      43.648 -16.330   3.328  1.00  0.00     0.076 A 
BRANCH  15  16
HETATM   16  O   UNL     1      43.647 -15.054   3.830  1.00  0.00    -0.355 OA
HETATM   17  C   UNL     1      43.307 -13.996   2.942  1.00  0.00     0.210 C 
ENDBRANCH  15  16
ENDBRANCH   7   9
ENDBRANCH   1   7
BRANCH   3  18
HETATM   18  C   UNL     1      40.542 -13.455   5.950  1.00  0.00     0.163 C 
BRANCH  18  19
HETATM   19  C   UNL     1      39.823 -13.010   4.706  1.00  0.00    -0.035 A 
HETATM   20  C   UNL     1      39.767 -13.838   3.581  1.00  0.00     0.066 A 
HETATM   21  C   UNL     1      39.099 -13.382   2.455  1.00  0.00     0.164 A 
HETATM   22  N   UNL     1      38.485 -12.185   2.375  1.00  0.00    -0.237 NA
HETATM   23  C   UNL     1      38.530 -11.411   3.479  1.00  0.00     0.120 A 
HETATM   24  C   UNL     1      39.176 -11.773   4.652  1.00  0.00     0.028 A 
BRANCH  21  25
HETATM   25  O   UNL     1      39.086 -14.226   1.360  1.00  0.00    -0.329 OA
BRANCH  25  26
HETATM   26  C   UNL     1      40.377 -14.623   0.851  1.00  0.00     0.130 C 
HETATM   27  C   UNL     1      40.696 -16.143   0.851  1.00  0.00     0.032 C 
HETATM   28  C   UNL     1      41.358 -15.943  -0.523  1.00  0.00     0.005 C 
HETATM   29  C   UNL     1      40.467 -14.700  -0.696  1.00  0.00     0.032 C 
ENDBRANCH  25  26
ENDBRANCH  21  25
ENDBRANCH  18  19
ENDBRANCH   3  18
TORSDOF 7
ENDMDL
MODEL 6
REMARK VINA RESULT:      -8.2      3.772      4.668
REMARK  7 active torsions:
REMARK  status: ('A' for Active; 'I' for Inactive)
REMARK    1  A    between atoms: C_4  and  C_5 
REMARK    2  A    between atoms: C_5  and  N_6 
REMARK       I    between atoms: N_6  and  C_7 
REMARK       I    between atoms: C_7  and  N_8 
REMARK    3  A    between atoms: N_8  and  C_9 
REMARK    4  A    between atoms: C_9  and  C_10 
REMARK    5  A    between atoms: C_12  and  O_13 
REMARK    6  A    between atoms: O_13  and  C_14 
REMARK    7  A    between atoms: C_23  and  O_24 
ROOT
HETATM    1  N   UNL     1      42.604 -16.537   3.634  1.00  0.00    -0.335 N 
HETATM    2  C   UNL     1      41.278 -16.743   3.428  1.00  0.00     0.316 C 
HETATM    3  N   UNL     1      40.430 -16.175   4.320  1.00  0.00    -0.339 N 
HETATM    4  O   UNL     1      40.802 -17.390   2.501  1.00  0.00    -0.247 OA
HETATM    5  H   UNL     1      42.871 -16.367   4.588  1.00  0.00     0.165 HD
HETATM    6  H   UNL     1      39.465 -16.312   4.047  1.00  0.00     0.164 HD
ENDROOT
BRANCH   1   7
HETATM    7  C   UNL     1      43.692 -17.104   2.832  1.00  0.00     0.118 C 
HETATM    8  C   UNL     1      43.561 -16.923   1.319  1.00  0.00     0.037 C 
BRANCH   7   9
HETATM    9  C   UNL     1      43.998 -18.549   3.209  1.00  0.00    -0.002 A 
HETATM   10  C   UNL     1      43.957 -19.565   2.234  1.00  0.00     0.018 A 
HETATM   11  C   UNL     1      44.216 -20.901   2.557  1.00  0.00    -0.061 A 
HETATM   12  C   UNL     1      44.175 -21.956   1.491  1.00  0.00     0.048 C 
HETATM   13  C   UNL     1      44.569 -21.222   3.867  1.00  0.00     0.009 A 
HETATM   14  C   UNL     1      44.643 -20.227   4.844  1.00  0.00     0.038 A 
HETATM   15  C   UNL     1      44.363 -18.892   4.528  1.00  0.00     0.076 A 
BRANCH  15  16
HETATM   16  O   UNL     1      44.420 -17.859   5.429  1.00  0.00    -0.355 OA
HETATM   17  C   UNL     1      45.189 -18.055   6.608  1.00  0.00     0.210 C 
ENDBRANCH  15  16
ENDBRANCH   7   9
ENDBRANCH   1   7
BRANCH   3  18
HETATM   18  C   UNL     1      40.680 -15.212   5.369  1.00  0.00     0.163 C 
BRANCH  18  19
HETATM   19  C   UNL     1      40.088 -13.872   5.033  1.00  0.00    -0.035 A 
HETATM   20  C   UNL     1      39.931 -12.894   6.020  1.00  0.00     0.066 A 
HETATM   21  C   UNL     1      39.373 -11.676   5.665  1.00  0.00     0.164 A 
HETATM   22  N   UNL     1      38.976 -11.364   4.415  1.00  0.00    -0.237 NA
HETATM   23  C   UNL     1      39.157 -12.312   3.473  1.00  0.00     0.120 A 
HETATM   24  C   UNL     1      39.701 -13.562   3.727  1.00  0.00     0.028 A 
BRANCH  21  25
HETATM   25  O   UNL     1      39.220 -10.747   6.678  1.00  0.00    -0.329 OA
BRANCH  25  26
HETATM   26  C   UNL     1      39.601 -11.182   7.999  1.00  0.00     0.130 C 
HETATM   27  C   UNL     1      40.878 -10.543   8.609  1.00  0.00     0.032 C 
HETATM   28  C   UNL     1      40.136 -10.491   9.956  1.00  0.00     0.005 C 
HETATM   29  C   UNL     1      38.822 -10.501   9.155  1.00  0.00     0.032 C 
ENDBRANCH  25  26
ENDBRANCH  21  25
ENDBRANCH  18  19
ENDBRANCH   3  18
TORSDOF 7
ENDMDL
MODEL 7
REMARK VINA RESULT:      -8.2      3.701      7.091
REMARK  7 active torsions:
REMARK  status: ('A' for Active; 'I' for Inactive)
REMARK    1  A    between atoms: C_4  and  C_5 
REMARK    2  A    between atoms: C_5  and  N_6 
REMARK       I    between atoms: N_6  and  C_7 
REMARK       I    between atoms: C_7  and  N_8 
REMARK    3  A    between atoms: N_8  and  C_9 
REMARK    4  A    between atoms: C_9  and  C_10 
REMARK    5  A    between atoms: C_12  and  O_13 
REMARK    6  A    between atoms: O_13  and  C_14 
REMARK    7  A    between atoms: C_23  and  O_24 
ROOT
HETATM    1  N   UNL     1      42.370 -14.181   4.899  1.00  0.00    -0.335 N 
HETATM    2  C   UNL     1      43.686 -13.940   4.670  1.00  0.00     0.316 C 
HETATM    3  N   UNL     1      44.517 -14.053   5.735  1.00  0.00    -0.339 N 
HETATM    4  O   UNL     1      44.168 -13.642   3.583  1.00  0.00    -0.247 OA
HETATM    5  H   UNL     1      42.056 -14.009   5.838  1.00  0.00     0.165 HD
HETATM    6  H   UNL     1      45.485 -13.935   5.460  1.00  0.00     0.164 HD
ENDROOT
BRANCH   1   7
HETATM    7  C   UNL     1      41.294 -14.060   3.911  1.00  0.00     0.118 C 
HETATM    8  C   UNL     1      39.885 -13.904   4.484  1.00  0.00     0.037 C 
BRANCH   7   9
HETATM    9  C   UNL     1      41.360 -15.150   2.847  1.00  0.00    -0.002 A 
HETATM   10  C   UNL     1      41.241 -14.822   1.482  1.00  0.00     0.018 A 
HETATM   11  C   UNL     1      41.281 -15.805   0.487  1.00  0.00    -0.061 A 
HETATM   12  C   UNL     1      41.161 -15.421  -0.958  1.00  0.00     0.048 C 
HETATM   13  C   UNL     1      41.493 -17.132   0.858  1.00  0.00     0.009 A 
HETATM   14  C   UNL     1      41.642 -17.475   2.203  1.00  0.00     0.038 A 
HETATM   15  C   UNL     1      41.581 -16.497   3.202  1.00  0.00     0.076 A 
BRANCH  15  16
HETATM   16  O   UNL     1      41.725 -16.754   4.542  1.00  0.00    -0.355 OA
HETATM   17  C   UNL     1      40.960 -17.817   5.095  1.00  0.00     0.210 C 
ENDBRANCH  15  16
ENDBRANCH   7   9
ENDBRANCH   1   7
BRANCH   3  18
HETATM   18  C   UNL     1      44.276 -14.576   7.062  1.00  0.00     0.163 C 
BRANCH  18  19
HETATM   19  C   UNL     1      44.147 -16.074   7.042  1.00  0.00    -0.035 A 
HETATM   20  C   UNL     1      44.753 -16.829   6.034  1.00  0.00     0.066 A 
HETATM   21  C   UNL     1      44.600 -18.207   6.054  1.00  0.00     0.164 A 
HETATM   22  N   UNL     1      43.906 -18.875   6.997  1.00  0.00    -0.237 NA
HETATM   23  C   UNL     1      43.348 -18.131   7.974  1.00  0.00     0.120 A 
HETATM   24  C   UNL     1      43.439 -16.749   8.041  1.00  0.00     0.028 A 
BRANCH  21  25
HETATM   25  O   UNL     1      45.200 -18.910   5.026  1.00  0.00    -0.329 OA
BRANCH  25  26
HETATM   26  C   UNL     1      44.336 -19.778   4.263  1.00  0.00     0.130 C 
HETATM   27  C   UNL     1      44.466 -19.719   2.717  1.00  0.00     0.032 C 
HETATM   28  C   UNL     1      44.309 -21.250   2.706  1.00  0.00     0.005 C 
HETATM   29  C   UNL     1      44.826 -21.246   4.155  1.00  0.00     0.032 C 
ENDBRANCH  25  26
ENDBRANCH  21  25
ENDBRANCH  18  19
ENDBRANCH   3  18
TORSDOF 7
ENDMDL
MODEL 8
REMARK VINA RESULT:      -8.2      4.574      6.897
REMARK  7 active torsions:
REMARK  status: ('A' for Active; 'I' for Inactive)
REMARK    1  A    between atoms: C_4  and  C_5 
REMARK    2  A    between atoms: C_5  and  N_6 
REMARK       I    between atoms: N_6  and  C_7 
REMARK       I    between atoms: C_7  and  N_8 
REMARK    3  A    between atoms: N_8  and  C_9 
REMARK    4  A    between atoms: C_9  and  C_10 
REMARK    5  A    between atoms: C_12  and  O_13 
REMARK    6  A    between atoms: O_13  and  C_14 
REMARK    7  A    between atoms: C_23  and  O_24 
ROOT
HETATM    1  N   UNL     1      42.928 -17.571   5.994  1.00  0.00    -0.335 N 
HETATM    2  C   UNL     1      42.568 -16.939   7.141  1.00  0.00     0.316 C 
HETATM    3  N   UNL     1      41.567 -16.030   7.043  1.00  0.00    -0.339 N 
HETATM    4  O   UNL     1      43.072 -17.136   8.241  1.00  0.00    -0.247 OA
HETATM    5  H   UNL     1      42.754 -17.060   5.147  1.00  0.00     0.165 HD
HETATM    6  H   UNL     1      41.312 -15.667   7.954  1.00  0.00     0.164 HD
ENDROOT
BRANCH   1   7
HETATM    7  C   UNL     1      44.018 -18.542   5.860  1.00  0.00     0.118 C 
HETATM    8  C   UNL     1      45.379 -18.083   6.384  1.00  0.00     0.037 C 
BRANCH   7   9
HETATM    9  C   UNL     1      44.113 -19.114   4.450  1.00  0.00    -0.002 A 
HETATM   10  C   UNL     1      43.843 -18.301   3.331  1.00  0.00     0.018 A 
HETATM   11  C   UNL     1      43.905 -18.805   2.027  1.00  0.00    -0.061 A 
HETATM   12  C   UNL     1      43.622 -17.909   0.858  1.00  0.00     0.048 C 
HETATM   13  C   UNL     1      44.292 -20.131   1.834  1.00  0.00     0.009 A 
HETATM   14  C   UNL     1      44.591 -20.946   2.928  1.00  0.00     0.038 A 
HETATM   15  C   UNL     1      44.508 -20.451   4.234  1.00  0.00     0.076 A 
BRANCH  15  16
HETATM   16  O   UNL     1      44.792 -21.186   5.357  1.00  0.00    -0.355 OA
HETATM   17  C   UNL     1      45.173 -22.544   5.176  1.00  0.00     0.210 C 
ENDBRANCH  15  16
ENDBRANCH   7   9
ENDBRANCH   1   7
BRANCH   3  18
HETATM   18  C   UNL     1      40.666 -15.740   5.950  1.00  0.00     0.163 C 
BRANCH  18  19
HETATM   19  C   UNL     1      41.293 -14.796   4.962  1.00  0.00    -0.035 A 
HETATM   20  C   UNL     1      41.541 -15.200   3.647  1.00  0.00     0.066 A 
HETATM   21  C   UNL     1      42.127 -14.297   2.774  1.00  0.00     0.164 A 
HETATM   22  N   UNL     1      42.469 -13.037   3.110  1.00  0.00    -0.237 NA
HETATM   23  C   UNL     1      42.200 -12.658   4.376  1.00  0.00     0.120 A 
HETATM   24  C   UNL     1      41.622 -13.487   5.326  1.00  0.00     0.028 A 
BRANCH  21  25
HETATM   25  O   UNL     1      42.371 -14.747   1.490  1.00  0.00    -0.329 OA
BRANCH  25  26
HETATM   26  C   UNL     1      41.337 -14.485   0.519  1.00  0.00     0.130 C 
HETATM   27  C   UNL     1      41.686 -13.503  -0.633  1.00  0.00     0.032 C 
HETATM   28  C   UNL     1      40.915 -14.437  -1.581  1.00  0.00     0.005 C 
HETATM   29  C   UNL     1      41.189 -15.571  -0.579  1.00  0.00     0.032 C 
ENDBRANCH  25  26
ENDBRANCH  21  25
ENDBRANCH  18  19
ENDBRANCH   3  18
TORSDOF 7
ENDMDL
MODEL 9
REMARK VINA RESULT:      -8.0      1.510      2.265
REMARK  7 active torsions:
REMARK  status: ('A' for Active; 'I' for Inactive)
REMARK    1  A    between atoms: C_4  and  C_5 
REMARK    2  A    between atoms: C_5  and  N_6 
REMARK       I    between atoms: N_6  and  C_7 
REMARK       I    between atoms: C_7  and  N_8 
REMARK    3  A    between atoms: N_8  and  C_9 
REMARK    4  A    between atoms: C_9  and  C_10 
REMARK    5  A    between atoms: C_12  and  O_13 
REMARK    6  A    between atoms: O_13  and  C_14 
REMARK    7  A    between atoms: C_23  and  O_24 
ROOT
HETATM    1  N   UNL     1      43.609 -16.595   5.992  1.00  0.00    -0.335 N 
HETATM    2  C   UNL     1      42.375 -16.255   6.443  1.00  0.00     0.316 C 
HETATM    3  N   UNL     1      42.083 -14.932   6.474  1.00  0.00    -0.339 N 
HETATM    4  O   UNL     1      41.516 -17.050   6.811  1.00  0.00    -0.247 OA
HETATM    5  H   UNL     1      44.321 -15.897   6.116  1.00  0.00     0.165 HD
HETATM    6  H   UNL     1      41.120 -14.774   6.747  1.00  0.00     0.164 HD
ENDROOT
BRANCH   1   7
HETATM    7  C   UNL     1      44.153 -17.955   5.931  1.00  0.00     0.118 C 
HETATM    8  C   UNL     1      45.534 -18.144   6.559  1.00  0.00     0.037 C 
BRANCH   7   9
HETATM    9  C   UNL     1      44.079 -18.544   4.527  1.00  0.00    -0.002 A 
HETATM   10  C   UNL     1      43.784 -17.721   3.422  1.00  0.00     0.018 A 
HETATM   11  C   UNL     1      43.694 -18.239   2.126  1.00  0.00    -0.061 A 
HETATM   12  C   UNL     1      43.388 -17.333   0.971  1.00  0.00     0.048 C 
HETATM   13  C   UNL     1      43.951 -19.594   1.921  1.00  0.00     0.009 A 
HETATM   14  C   UNL     1      44.274 -20.423   2.998  1.00  0.00     0.038 A 
HETATM   15  C   UNL     1      44.343 -19.912   4.299  1.00  0.00     0.076 A 
BRANCH  15  16
HETATM   16  O   UNL     1      44.659 -20.659   5.405  1.00  0.00    -0.355 OA
HETATM   17  C   UNL     1      44.874 -22.052   5.220  1.00  0.00     0.210 C 
ENDBRANCH  15  16
ENDBRANCH   7   9
ENDBRANCH   1   7
BRANCH   3  18
HETATM   18  C   UNL     1      42.798 -13.801   5.926  1.00  0.00     0.163 C 
BRANCH  18  19
HETATM   19  C   UNL     1      43.663 -13.145   6.966  1.00  0.00    -0.035 A 
HETATM   20  C   UNL     1      43.175 -12.082   7.731  1.00  0.00     0.066 A 
HETATM   21  C   UNL     1      44.011 -11.504   8.674  1.00  0.00     0.164 A 
HETATM   22  N   UNL     1      45.275 -11.910   8.911  1.00  0.00    -0.237 NA
HETATM   23  C   UNL     1      45.718 -12.952   8.180  1.00  0.00     0.120 A 
HETATM   24  C   UNL     1      44.963 -13.595   7.210  1.00  0.00     0.028 A 
BRANCH  21  25
HETATM   25  O   UNL     1      43.493 -10.443   9.392  1.00  0.00    -0.329 OA
BRANCH  25  26
HETATM   26  C   UNL     1      43.902 -10.352  10.773  1.00  0.00     0.130 C 
HETATM   27  C   UNL     1      43.090  -9.393  11.686  1.00  0.00     0.032 C 
HETATM   28  C   UNL     1      43.195 -10.457  12.793  1.00  0.00     0.005 C 
HETATM   29  C   UNL     1      43.386 -11.501  11.678  1.00  0.00     0.032 C 
ENDBRANCH  25  26
ENDBRANCH  21  25
ENDBRANCH  18  19
ENDBRANCH   3  18
TORSDOF 7
ENDMDL
MODEL 10
REMARK VINA RESULT:      -8.0      1.858      9.209
REMARK  7 active torsions:
REMARK  status: ('A' for Active; 'I' for Inactive)
REMARK    1  A    between atoms: C_4  and  C_5 
REMARK    2  A    between atoms: C_5  and  N_6 
REMARK       I    between atoms: N_6  and  C_7 
REMARK       I    between atoms: C_7  and  N_8 
REMARK    3  A    between atoms: N_8  and  C_9 
REMARK    4  A    between atoms: C_9  and  C_10 
REMARK    5  A    between atoms: C_12  and  O_13 
REMARK    6  A    between atoms: O_13  and  C_14 
REMARK    7  A    between atoms: C_23  and  O_24 
ROOT
HETATM    1  N   UNL     1      42.362 -11.789   7.521  1.00  0.00    -0.335 N 
HETATM    2  C   UNL     1      41.823 -12.295   6.383  1.00  0.00     0.316 C 
HETATM    3  N   UNL     1      42.565 -13.213   5.716  1.00  0.00    -0.339 N 
HETATM    4  O   UNL     1      40.726 -11.990   5.928  1.00  0.00    -0.247 OA
HETATM    5  H   UNL     1      43.366 -11.792   7.562  1.00  0.00     0.165 HD
HETATM    6  H   UNL     1      42.056 -13.593   4.927  1.00  0.00     0.164 HD
ENDROOT
BRANCH   1   7
HETATM    7  C   UNL     1      41.763 -10.748   8.362  1.00  0.00     0.118 C 
HETATM    8  C   UNL     1      41.785  -9.335   7.780  1.00  0.00     0.037 C 
BRANCH   7   9
HETATM    9  C   UNL     1      42.290 -10.785   9.792  1.00  0.00    -0.002 A 
HETATM   10  C   UNL     1      41.397 -10.847  10.880  1.00  0.00     0.018 A 
HETATM   11  C   UNL     1      41.854 -10.865  12.203  1.00  0.00    -0.061 A 
HETATM   12  C   UNL     1      40.876 -10.942  13.337  1.00  0.00     0.048 C 
HETATM   13  C   UNL     1      43.228 -10.869  12.442  1.00  0.00     0.009 A 
HETATM   14  C   UNL     1      44.131 -10.837  11.377  1.00  0.00     0.038 A 
HETATM   15  C   UNL     1      43.677 -10.797  10.054  1.00  0.00     0.076 A 
BRANCH  15  16
HETATM   16  O   UNL     1      44.500 -10.771   8.957  1.00  0.00    -0.355 OA
HETATM   17  C   UNL     1      45.707 -11.518   9.021  1.00  0.00     0.210 C 
ENDBRANCH  15  16
ENDBRANCH   7   9
ENDBRANCH   1   7
BRANCH   3  18
HETATM   18  C   UNL     1      43.774 -13.904   6.106  1.00  0.00     0.163 C 
BRANCH  18  19
HETATM   19  C   UNL     1      43.525 -15.374   6.299  1.00  0.00    -0.035 A 
HETATM   20  C   UNL     1      43.211 -16.192   5.209  1.00  0.00     0.066 A 
HETATM   21  C   UNL     1      42.982 -17.540   5.436  1.00  0.00     0.164 A 
HETATM   22  N   UNL     1      43.053 -18.124   6.650  1.00  0.00    -0.237 NA
HETATM   23  C   UNL     1      43.379 -17.322   7.684  1.00  0.00     0.120 A 
HETATM   24  C   UNL     1      43.622 -15.962   7.563  1.00  0.00     0.028 A 
BRANCH  21  25
HETATM   25  O   UNL     1      42.656 -18.306   4.332  1.00  0.00    -0.329 OA
BRANCH  25  26
HETATM   26  C   UNL     1      43.765 -18.781   3.540  1.00  0.00     0.130 C 
HETATM   27  C   UNL     1      44.493 -20.057   4.043  1.00  0.00     0.032 C 
HETATM   28  C   UNL     1      44.579 -20.513   2.576  1.00  0.00     0.005 C 
HETATM   29  C   UNL     1      43.361 -19.616   2.297  1.00  0.00     0.032 C 
ENDBRANCH  25  26
ENDBRANCH  21  25
ENDBRANCH  18  19
ENDBRANCH   3  18
TORSDOF 7
ENDMDL
