MODEL 1
REMARK VINA RESULT:     -10.2      0.000      0.000
REMARK  6 active torsions:
REMARK  status: ('A' for Active; 'I' for Inactive)
REMARK    1  A    between atoms: C_2  and  C_3 
REMARK    2  A    between atoms: C_3  and  C_4 
REMARK    3  A    between atoms: N_7  and  C_9 
REMARK    4  A    between atoms: C_9  and  C_10 
REMARK    5  A    between atoms: N_23  and  C_24 
REMARK    6  A    between atoms: C_24  and  C_25 
ROOT
HETATM    1  C   UNL     1      41.004 -14.075   1.500  1.00  0.00     0.119 A 
HETATM    2  N   UNL     1      42.434 -13.924   1.619  1.00  0.00    -0.324 N 
HETATM    3  C   UNL     1      42.830 -13.723   2.927  1.00  0.00     0.326 A 
HETATM    4  O   UNL     1      44.006 -13.660   3.241  1.00  0.00    -0.247 OA
HETATM    5  N   UNL     1      41.731 -13.713   3.722  1.00  0.00    -0.264 N 
HETATM    6  C   UNL     1      40.594 -13.848   2.975  1.00  0.00     0.257 A 
HETATM    7  O   UNL     1      39.446 -13.884   3.390  1.00  0.00    -0.270 OA
HETATM    8  H   UNL     1      43.066 -13.606   0.892  1.00  0.00     0.165 HD
ENDROOT
BRANCH   1   9
HETATM    9  C   UNL     1      40.384 -13.003   0.583  1.00  0.00     0.037 C 
HETATM   10  C   UNL     1      39.185 -13.472  -0.238  1.00  0.00     0.008 C 
ENDBRANCH   1   9
BRANCH   1  11
HETATM   11  C   UNL     1      40.591 -15.540   1.088  1.00  0.00     0.026 C 
HETATM   12  C   UNL     1      40.230 -16.488   2.252  1.00  0.00     0.035 C 
HETATM   13  C   UNL     1      41.422 -17.008   3.045  1.00  0.00     0.235 C 
HETATM   14  N   UNL     1      42.458 -17.631   2.142  1.00  0.00    -0.067 N 
HETATM   15  H   UNL     1      42.054 -18.513   1.802  1.00  0.00     0.280 HD
HETATM   16  C   UNL     1      42.823 -16.799   0.934  1.00  0.00     0.235 C 
HETATM   17  C   UNL     1      41.593 -16.293   0.196  1.00  0.00     0.035 C 
BRANCH  14  18
HETATM   18  C   UNL     1      43.732 -17.998   2.898  1.00  0.00     0.273 C 
BRANCH  18  19
HETATM   19  C   UNL     1      44.032 -19.470   2.974  1.00  0.00    -0.027 A 
HETATM   20  C   UNL     1      43.806 -20.316   1.880  1.00  0.00     0.051 A 
HETATM   21  C   UNL     1      44.082 -21.681   1.985  1.00  0.00     0.119 A 
HETATM   22  F   UNL     1      43.858 -22.470   0.927  1.00  0.00    -0.206 F 
HETATM   23  C   UNL     1      44.575 -22.232   3.158  1.00  0.00     0.084 A 
HETATM   24  C   UNL     1      44.797 -21.396   4.240  1.00  0.00     0.119 A 
HETATM   25  F   UNL     1      45.264 -21.904   5.387  1.00  0.00    -0.206 F 
HETATM   26  C   UNL     1      44.532 -20.030   4.162  1.00  0.00     0.051 A 
ENDBRANCH  18  19
ENDBRANCH  14  18
ENDBRANCH   1  11
BRANCH   5  27
HETATM   27  C   UNL     1      41.761 -13.643   5.166  1.00  0.00     0.175 C 
BRANCH  27  28
HETATM   28  C   UNL     1      42.086 -14.962   5.817  1.00  0.00    -0.037 A 
HETATM   29  C   UNL     1      43.426 -15.337   6.012  1.00  0.00     0.048 A 
HETATM   30  C   UNL     1      43.682 -16.575   6.561  1.00  0.00     0.105 A 
HETATM   31  C   UNL     1      42.670 -17.427   6.929  1.00  0.00     0.105 A 
HETATM   32  O   UNL     1      44.915 -17.101   6.787  1.00  0.00    -0.323 OA
HETATM   33  O   UNL     1      43.138 -18.600   7.433  1.00  0.00    -0.323 OA
HETATM   34  C   UNL     1      41.343 -17.085   6.778  1.00  0.00     0.040 A 
HETATM   35  C   UNL     1      44.563 -18.403   7.305  1.00  0.00     0.352 A 
HETATM   36  C   UNL     1      41.050 -15.838   6.216  1.00  0.00     0.012 A 
ENDBRANCH  27  28
ENDBRANCH   5  27
TORSDOF 6
ENDMDL
MODEL 2
REMARK VINA RESULT:      -9.3      2.703      6.503
REMARK  6 active torsions:
REMARK  status: ('A' for Active; 'I' for Inactive)
REMARK    1  A    between atoms: C_2  and  C_3 
REMARK    2  A    between atoms: C_3  and  C_4 
REMARK    3  A    between atoms: N_7  and  C_9 
REMARK    4  A    between atoms: C_9  and  C_10 
REMARK    5  A    between atoms: N_23  and  C_24 
REMARK    6  A    between atoms: C_24  and  C_25 
ROOT
HETATM    1  C   UNL     1      41.722 -14.999   3.351  1.00  0.00     0.119 A 
HETATM    2  N   UNL     1      42.640 -14.012   2.834  1.00  0.00    -0.324 N 
HETATM    3  C   UNL     1      42.092 -13.282   1.798  1.00  0.00     0.326 A 
HETATM    4  O   UNL     1      42.680 -12.344   1.289  1.00  0.00    -0.247 OA
HETATM    5  N   UNL     1      40.833 -13.731   1.561  1.00  0.00    -0.264 N 
HETATM    6  C   UNL     1      40.537 -14.786   2.378  1.00  0.00     0.257 A 
HETATM    7  O   UNL     1      39.486 -15.408   2.419  1.00  0.00    -0.270 OA
HETATM    8  H   UNL     1      43.652 -14.048   2.887  1.00  0.00     0.165 HD
ENDROOT
BRANCH   1   9
HETATM    9  C   UNL     1      42.284 -16.428   3.231  1.00  0.00     0.037 C 
HETATM   10  C   UNL     1      43.627 -16.535   2.512  1.00  0.00     0.008 C 
ENDBRANCH   1   9
BRANCH   1  11
HETATM   11  C   UNL     1      41.237 -14.656   4.811  1.00  0.00     0.026 C 
HETATM   12  C   UNL     1      42.203 -13.798   5.656  1.00  0.00     0.035 C 
HETATM   13  C   UNL     1      43.415 -14.547   6.195  1.00  0.00     0.235 C 
HETATM   14  N   UNL     1      43.010 -15.795   6.939  1.00  0.00    -0.067 N 
HETATM   15  H   UNL     1      42.572 -15.482   7.815  1.00  0.00     0.280 HD
HETATM   16  C   UNL     1      42.008 -16.664   6.213  1.00  0.00     0.235 C 
HETATM   17  C   UNL     1      40.832 -15.858   5.682  1.00  0.00     0.035 C 
BRANCH  14  18
HETATM   18  C   UNL     1      44.214 -16.646   7.334  1.00  0.00     0.273 C 
BRANCH  18  19
HETATM   19  C   UNL     1      44.203 -18.056   6.812  1.00  0.00    -0.027 A 
HETATM   20  C   UNL     1      43.760 -19.122   7.605  1.00  0.00     0.051 A 
HETATM   21  C   UNL     1      43.773 -20.422   7.096  1.00  0.00     0.119 A 
HETATM   22  F   UNL     1      43.344 -21.426   7.872  1.00  0.00    -0.206 F 
HETATM   23  C   UNL     1      44.226 -20.694   5.814  1.00  0.00     0.084 A 
HETATM   24  C   UNL     1      44.666 -19.640   5.030  1.00  0.00     0.119 A 
HETATM   25  F   UNL     1      45.115 -19.876   3.792  1.00  0.00    -0.206 F 
HETATM   26  C   UNL     1      44.661 -18.332   5.511  1.00  0.00     0.051 A 
ENDBRANCH  18  19
ENDBRANCH  14  18
ENDBRANCH   1  11
BRANCH   5  27
HETATM   27  C   UNL     1      39.908 -13.131   0.626  1.00  0.00     0.175 C 
BRANCH  27  28
HETATM   28  C   UNL     1      39.873 -13.833  -0.707  1.00  0.00    -0.037 A 
HETATM   29  C   UNL     1      38.671 -13.903  -1.431  1.00  0.00     0.048 A 
HETATM   30  C   UNL     1      38.667 -14.601  -2.619  1.00  0.00     0.105 A 
HETATM   31  C   UNL     1      39.800 -15.204  -3.108  1.00  0.00     0.105 A 
HETATM   32  O   UNL     1      37.587 -14.790  -3.423  1.00  0.00    -0.323 OA
HETATM   33  O   UNL     1      39.576 -15.850  -4.283  1.00  0.00    -0.323 OA
HETATM   34  C   UNL     1      41.003 -15.135  -2.441  1.00  0.00     0.040 A 
HETATM   35  C   UNL     1      38.162 -15.617  -4.458  1.00  0.00     0.352 A 
HETATM   36  C   UNL     1      41.039 -14.441  -1.227  1.00  0.00     0.012 A 
ENDBRANCH  27  28
ENDBRANCH   5  27
TORSDOF 6
ENDMDL
MODEL 3
REMARK VINA RESULT:      -9.3      2.857      3.729
REMARK  6 active torsions:
REMARK  status: ('A' for Active; 'I' for Inactive)
REMARK    1  A    between atoms: C_2  and  C_3 
REMARK    2  A    between atoms: C_3  and  C_4 
REMARK    3  A    between atoms: N_7  and  C_9 
REMARK    4  A    between atoms: C_9  and  C_10 
REMARK    5  A    between atoms: N_23  and  C_24 
REMARK    6  A    between atoms: C_24  and  C_25 
ROOT
HETATM    1  C   UNL     1      41.239 -14.163   4.277  1.00  0.00     0.119 A 
HETATM    2  N   UNL     1      42.385 -13.726   3.516  1.00  0.00    -0.324 N 
HETATM    3  C   UNL     1      43.570 -13.924   4.197  1.00  0.00     0.326 A 
HETATM    4  O   UNL     1      44.652 -13.699   3.684  1.00  0.00    -0.247 OA
HETATM    5  N   UNL     1      43.295 -14.466   5.410  1.00  0.00    -0.264 N 
HETATM    6  C   UNL     1      41.945 -14.590   5.587  1.00  0.00     0.257 A 
HETATM    7  O   UNL     1      41.374 -15.048   6.565  1.00  0.00    -0.270 OA
HETATM    8  H   UNL     1      42.386 -13.025   2.783  1.00  0.00     0.165 HD
ENDROOT
BRANCH   1   9
HETATM    9  C   UNL     1      40.246 -13.014   4.535  1.00  0.00     0.037 C 
HETATM   10  C   UNL     1      40.000 -12.093   3.341  1.00  0.00     0.008 C 
ENDBRANCH   1   9
BRANCH   1  11
HETATM   11  C   UNL     1      40.550 -15.431   3.645  1.00  0.00     0.026 C 
HETATM   12  C   UNL     1      40.743 -16.755   4.417  1.00  0.00     0.035 C 
HETATM   13  C   UNL     1      42.121 -17.385   4.270  1.00  0.00     0.235 C 
HETATM   14  N   UNL     1      42.505 -17.545   2.820  1.00  0.00    -0.067 N 
HETATM   15  H   UNL     1      41.911 -18.294   2.443  1.00  0.00     0.280 HD
HETATM   16  C   UNL     1      42.284 -16.315   1.969  1.00  0.00     0.235 C 
HETATM   17  C   UNL     1      40.899 -15.721   2.175  1.00  0.00     0.035 C 
BRANCH  14  18
HETATM   18  C   UNL     1      43.949 -18.011   2.656  1.00  0.00     0.273 C 
BRANCH  18  19
HETATM   19  C   UNL     1      44.166 -19.493   2.798  1.00  0.00    -0.027 A 
HETATM   20  C   UNL     1      43.916 -20.370   1.736  1.00  0.00     0.051 A 
HETATM   21  C   UNL     1      44.115 -21.742   1.902  1.00  0.00     0.119 A 
HETATM   22  F   UNL     1      43.869 -22.562   0.873  1.00  0.00    -0.206 F 
HETATM   23  C   UNL     1      44.553 -22.269   3.108  1.00  0.00     0.084 A 
HETATM   24  C   UNL     1      44.799 -21.402   4.159  1.00  0.00     0.119 A 
HETATM   25  F   UNL     1      45.215 -21.886   5.336  1.00  0.00    -0.206 F 
HETATM   26  C   UNL     1      44.611 -20.028   4.020  1.00  0.00     0.051 A 
ENDBRANCH  18  19
ENDBRANCH  14  18
ENDBRANCH   1  11
BRANCH   5  27
HETATM   27  C   UNL     1      44.292 -14.919   6.354  1.00  0.00     0.175 C 
BRANCH  27  28
HETATM   28  C   UNL     1      44.843 -13.809   7.211  1.00  0.00    -0.037 A 
HETATM   29  C   UNL     1      44.046 -13.240   8.220  1.00  0.00     0.048 A 
HETATM   30  C   UNL     1      44.566 -12.191   8.946  1.00  0.00     0.105 A 
HETATM   31  C   UNL     1      45.831 -11.710   8.718  1.00  0.00     0.105 A 
HETATM   32  O   UNL     1      43.919 -11.512   9.931  1.00  0.00    -0.323 OA
HETATM   33  O   UNL     1      46.142 -10.665   9.531  1.00  0.00    -0.323 OA
HETATM   34  C   UNL     1      46.653 -12.257   7.756  1.00  0.00     0.040 A 
HETATM   35  C   UNL     1      44.911 -10.520  10.271  1.00  0.00     0.352 A 
HETATM   36  C   UNL     1      46.151 -13.319   6.996  1.00  0.00     0.012 A 
ENDBRANCH  27  28
ENDBRANCH   5  27
TORSDOF 6
ENDMDL
MODEL 4
REMARK VINA RESULT:      -9.1      3.443      4.633
REMARK  6 active torsions:
REMARK  status: ('A' for Active; 'I' for Inactive)
REMARK    1  A    between atoms: C_2  and  C_3 
REMARK    2  A    between atoms: C_3  and  C_4 
REMARK    3  A    between atoms: N_7  and  C_9 
REMARK    4  A    between atoms: C_9  and  C_10 
REMARK    5  A    between atoms: N_23  and  C_24 
REMARK    6  A    between atoms: C_24  and  C_25 
ROOT
HETATM    1  C   UNL     1      40.800 -13.752   4.686  1.00  0.00     0.119 A 
HETATM    2  N   UNL     1      41.337 -12.623   3.966  1.00  0.00    -0.324 N 
HETATM    3  C   UNL     1      40.953 -11.419   4.523  1.00  0.00     0.326 A 
HETATM    4  O   UNL     1      41.377 -10.354   4.108  1.00  0.00    -0.247 OA
HETATM    5  N   UNL     1      40.158 -11.664   5.594  1.00  0.00    -0.264 N 
HETATM    6  C   UNL     1      39.949 -13.006   5.742  1.00  0.00     0.257 A 
HETATM    7  O   UNL     1      39.287 -13.553   6.611  1.00  0.00    -0.270 OA
HETATM    8  H   UNL     1      41.616 -12.611   2.991  1.00  0.00     0.165 HD
ENDROOT
BRANCH   1   9
HETATM    9  C   UNL     1      39.915 -14.639   3.791  1.00  0.00     0.037 C 
HETATM   10  C   UNL     1      40.053 -14.385   2.291  1.00  0.00     0.008 C 
ENDBRANCH   1   9
BRANCH   1  11
HETATM   11  C   UNL     1      41.920 -14.570   5.435  1.00  0.00     0.026 C 
HETATM   12  C   UNL     1      43.289 -14.641   4.724  1.00  0.00     0.035 C 
HETATM   13  C   UNL     1      43.341 -15.590   3.534  1.00  0.00     0.235 C 
HETATM   14  N   UNL     1      42.851 -16.969   3.903  1.00  0.00    -0.067 N 
HETATM   15  H   UNL     1      43.572 -17.380   4.508  1.00  0.00     0.280 HD
HETATM   16  C   UNL     1      41.547 -16.991   4.666  1.00  0.00     0.235 C 
HETATM   17  C   UNL     1      41.549 -16.010   5.829  1.00  0.00     0.035 C 
BRANCH  14  18
HETATM   18  C   UNL     1      42.732 -17.882   2.685  1.00  0.00     0.273 C 
BRANCH  18  19
HETATM   19  C   UNL     1      43.378 -19.232   2.830  1.00  0.00    -0.027 A 
HETATM   20  C   UNL     1      44.081 -19.582   3.989  1.00  0.00     0.051 A 
HETATM   21  C   UNL     1      44.681 -20.839   4.089  1.00  0.00     0.119 A 
HETATM   22  F   UNL     1      45.348 -21.151   5.207  1.00  0.00    -0.206 F 
HETATM   23  C   UNL     1      44.604 -21.762   3.057  1.00  0.00     0.084 A 
HETATM   24  C   UNL     1      43.910 -21.416   1.909  1.00  0.00     0.119 A 
HETATM   25  F   UNL     1      43.828 -22.285   0.895  1.00  0.00    -0.206 F 
HETATM   26  C   UNL     1      43.300 -20.169   1.784  1.00  0.00     0.051 A 
ENDBRANCH  18  19
ENDBRANCH  14  18
ENDBRANCH   1  11
BRANCH   5  27
HETATM   27  C   UNL     1      39.659 -10.650   6.497  1.00  0.00     0.175 C 
BRANCH  27  28
HETATM   28  C   UNL     1      40.366 -10.643   7.828  1.00  0.00    -0.037 A 
HETATM   29  C   UNL     1      41.762 -10.487   7.879  1.00  0.00     0.048 A 
HETATM   30  C   UNL     1      42.378 -10.541   9.111  1.00  0.00     0.105 A 
HETATM   31  C   UNL     1      41.664 -10.723  10.270  1.00  0.00     0.105 A 
HETATM   32  O   UNL     1      43.715 -10.439   9.333  1.00  0.00    -0.323 OA
HETATM   33  O   UNL     1      42.463 -10.761  11.369  1.00  0.00    -0.323 OA
HETATM   34  C   UNL     1      40.292 -10.853  10.263  1.00  0.00     0.040 A 
HETATM   35  C   UNL     1      43.766 -10.619  10.765  1.00  0.00     0.352 A 
HETATM   36  C   UNL     1      39.638 -10.812   9.027  1.00  0.00     0.012 A 
ENDBRANCH  27  28
ENDBRANCH   5  27
TORSDOF 6
ENDMDL
MODEL 5
REMARK VINA RESULT:      -9.1      2.558      5.892
REMARK  6 active torsions:
REMARK  status: ('A' for Active; 'I' for Inactive)
REMARK    1  A    between atoms: C_2  and  C_3 
REMARK    2  A    between atoms: C_3  and  C_4 
REMARK    3  A    between atoms: N_7  and  C_9 
REMARK    4  A    between atoms: C_9  and  C_10 
REMARK    5  A    between atoms: N_23  and  C_24 
REMARK    6  A    between atoms: C_24  and  C_25 
ROOT
HETATM    1  C   UNL     1      40.920 -13.761   4.403  1.00  0.00     0.119 A 
HETATM    2  N   UNL     1      40.066 -14.790   3.860  1.00  0.00    -0.324 N 
HETATM    3  C   UNL     1      39.443 -14.389   2.695  1.00  0.00     0.326 A 
HETATM    4  O   UNL     1      38.751 -15.148   2.041  1.00  0.00    -0.247 OA
HETATM    5  N   UNL     1      39.817 -13.115   2.412  1.00  0.00    -0.264 N 
HETATM    6  C   UNL     1      40.637 -12.626   3.390  1.00  0.00     0.257 A 
HETATM    7  O   UNL     1      41.149 -11.517   3.428  1.00  0.00    -0.270 OA
HETATM    8  H   UNL     1      39.630 -15.543   4.380  1.00  0.00     0.165 HD
ENDROOT
BRANCH   1   9
HETATM    9  C   UNL     1      40.495 -13.350   5.826  1.00  0.00     0.037 C 
HETATM   10  C   UNL     1      39.110 -12.716   5.927  1.00  0.00     0.008 C 
ENDBRANCH   1   9
BRANCH   1  11
HETATM   11  C   UNL     1      42.447 -14.142   4.311  1.00  0.00     0.026 C 
HETATM   12  C   UNL     1      43.013 -14.305   2.884  1.00  0.00     0.035 C 
HETATM   13  C   UNL     1      42.611 -15.594   2.181  1.00  0.00     0.235 C 
HETATM   14  N   UNL     1      42.920 -16.805   3.026  1.00  0.00    -0.067 N 
HETATM   15  H   UNL     1      43.943 -16.901   3.032  1.00  0.00     0.280 HD
HETATM   16  C   UNL     1      42.462 -16.705   4.463  1.00  0.00     0.235 C 
HETATM   17  C   UNL     1      42.875 -15.389   5.103  1.00  0.00     0.035 C 
BRANCH  14  18
HETATM   18  C   UNL     1      42.367 -18.090   2.414  1.00  0.00     0.273 C 
BRANCH  18  19
HETATM   19  C   UNL     1      43.206 -19.318   2.632  1.00  0.00    -0.027 A 
HETATM   20  C   UNL     1      44.025 -19.450   3.761  1.00  0.00     0.051 A 
HETATM   21  C   UNL     1      44.802 -20.597   3.929  1.00  0.00     0.119 A 
HETATM   22  F   UNL     1      45.577 -20.701   5.016  1.00  0.00    -0.206 F 
HETATM   23  C   UNL     1      44.793 -21.622   2.994  1.00  0.00     0.084 A 
HETATM   24  C   UNL     1      43.985 -21.491   1.877  1.00  0.00     0.119 A 
HETATM   25  F   UNL     1      43.965 -22.462   0.956  1.00  0.00    -0.206 F 
HETATM   26  C   UNL     1      43.197 -20.358   1.685  1.00  0.00     0.051 A 
ENDBRANCH  18  19
ENDBRANCH  14  18
ENDBRANCH   1  11
BRANCH   5  27
HETATM   27  C   UNL     1      39.457 -12.401   1.208  1.00  0.00     0.175 C 
BRANCH  27  28
HETATM   28  C   UNL     1      39.940 -13.077  -0.049  1.00  0.00    -0.037 A 
HETATM   29  C   UNL     1      39.013 -13.629  -0.949  1.00  0.00     0.048 A 
HETATM   30  C   UNL     1      39.497 -14.286  -2.060  1.00  0.00     0.105 A 
HETATM   31  C   UNL     1      40.843 -14.396  -2.307  1.00  0.00     0.105 A 
HETATM   32  O   UNL     1      38.740 -14.900  -3.008  1.00  0.00    -0.323 OA
HETATM   33  O   UNL     1      41.105 -15.094  -3.444  1.00  0.00    -0.323 OA
HETATM   34  C   UNL     1      41.782 -13.846  -1.463  1.00  0.00     0.040 A 
HETATM   35  C   UNL     1      39.768 -15.445  -3.864  1.00  0.00     0.352 A 
HETATM   36  C   UNL     1      41.324 -13.179  -0.322  1.00  0.00     0.012 A 
ENDBRANCH  27  28
ENDBRANCH   5  27
TORSDOF 6
ENDMDL
MODEL 6
REMARK VINA RESULT:      -9.0      3.638      6.362
REMARK  6 active torsions:
REMARK  status: ('A' for Active; 'I' for Inactive)
REMARK    1  A    between atoms: C_2  and  C_3 
REMARK    2  A    between atoms: C_3  and  C_4 
REMARK    3  A    between atoms: N_7  and  C_9 
REMARK    4  A    between atoms: C_9  and  C_10 
REMARK    5  A    between atoms: N_23  and  C_24 
REMARK    6  A    between atoms: C_24  and  C_25 
ROOT
HETATM    1  C   UNL     1      40.979 -15.008   5.150  1.00  0.00     0.119 A 
HETATM    2  N   UNL     1      42.240 -14.310   5.229  1.00  0.00    -0.324 N 
HETATM    3  C   UNL     1      43.128 -14.933   6.084  1.00  0.00     0.326 A 
HETATM    4  O   UNL     1      44.275 -14.543   6.217  1.00  0.00    -0.247 OA
HETATM    5  N   UNL     1      42.531 -16.029   6.616  1.00  0.00    -0.264 N 
HETATM    6  C   UNL     1      41.239 -16.132   6.182  1.00  0.00     0.257 A 
HETATM    7  O   UNL     1      40.438 -17.007   6.470  1.00  0.00    -0.270 OA
HETATM    8  H   UNL     1      42.393 -13.324   5.045  1.00  0.00     0.165 HD
ENDROOT
BRANCH   1   9
HETATM    9  C   UNL     1      39.799 -14.119   5.587  1.00  0.00     0.037 C 
HETATM   10  C   UNL     1      40.163 -12.667   5.890  1.00  0.00     0.008 C 
ENDBRANCH   1   9
BRANCH   1  11
HETATM   11  C   UNL     1      40.751 -15.670   3.738  1.00  0.00     0.026 C 
HETATM   12  C   UNL     1      42.021 -15.899   2.891  1.00  0.00     0.035 C 
HETATM   13  C   UNL     1      42.595 -14.643   2.249  1.00  0.00     0.235 C 
HETATM   14  N   UNL     1      41.548 -13.895   1.462  1.00  0.00    -0.067 N 
HETATM   15  H   UNL     1      41.351 -14.463   0.628  1.00  0.00     0.280 HD
HETATM   16  C   UNL     1      40.241 -13.685   2.191  1.00  0.00     0.235 C 
HETATM   17  C   UNL     1      39.729 -14.969   2.826  1.00  0.00     0.035 C 
BRANCH  14  18
HETATM   18  C   UNL     1      42.060 -12.548   0.959  1.00  0.00     0.273 C 
BRANCH  18  19
HETATM   19  C   UNL     1      42.177 -12.423  -0.535  1.00  0.00    -0.027 A 
HETATM   20  C   UNL     1      41.872 -13.496  -1.382  1.00  0.00     0.051 A 
HETATM   21  C   UNL     1      42.002 -13.353  -2.764  1.00  0.00     0.119 A 
HETATM   22  F   UNL     1      41.704 -14.393  -3.554  1.00  0.00    -0.206 F 
HETATM   23  C   UNL     1      42.437 -12.165  -3.332  1.00  0.00     0.084 A 
HETATM   24  C   UNL     1      42.741 -11.104  -2.495  1.00  0.00     0.119 A 
HETATM   25  F   UNL     1      43.171  -9.949  -3.017  1.00  0.00    -0.206 F 
HETATM   26  C   UNL     1      42.617 -11.218  -1.112  1.00  0.00     0.051 A 
ENDBRANCH  18  19
ENDBRANCH  14  18
ENDBRANCH   1  11
BRANCH   5  27
HETATM   27  C   UNL     1      43.191 -16.995   7.465  1.00  0.00     0.175 C 
BRANCH  27  28
HETATM   28  C   UNL     1      43.618 -18.238   6.729  1.00  0.00    -0.037 A 
HETATM   29  C   UNL     1      43.948 -18.167   5.365  1.00  0.00     0.048 A 
HETATM   30  C   UNL     1      44.280 -19.335   4.714  1.00  0.00     0.105 A 
HETATM   31  C   UNL     1      44.309 -20.544   5.365  1.00  0.00     0.105 A 
HETATM   32  O   UNL     1      44.593 -19.445   3.395  1.00  0.00    -0.323 OA
HETATM   33  O   UNL     1      44.645 -21.569   4.538  1.00  0.00    -0.323 OA
HETATM   34  C   UNL     1      44.018 -20.651   6.707  1.00  0.00     0.040 A 
HETATM   35  C   UNL     1      44.786 -20.872   3.282  1.00  0.00     0.352 A 
HETATM   36  C   UNL     1      43.669 -19.484   7.395  1.00  0.00     0.012 A 
ENDBRANCH  27  28
ENDBRANCH   5  27
TORSDOF 6
ENDMDL
MODEL 7
REMARK VINA RESULT:      -8.8      3.313      6.523
REMARK  6 active torsions:
REMARK  status: ('A' for Active; 'I' for Inactive)
REMARK    1  A    between atoms: C_2  and  C_3 
REMARK    2  A    between atoms: C_3  and  C_4 
REMARK    3  A    between atoms: N_7  and  C_9 
REMARK    4  A    between atoms: C_9  and  C_10 
REMARK    5  A    between atoms: N_23  and  C_24 
REMARK    6  A    between atoms: C_24  and  C_25 
ROOT
HETATM    1  C   UNL     1      41.147 -15.338   2.641  1.00  0.00     0.119 A 
HETATM    2  N   UNL     1      40.374 -16.226   3.476  1.00  0.00    -0.324 N 
HETATM    3  C   UNL     1      41.174 -17.016   4.278  1.00  0.00     0.326 A 
HETATM    4  O   UNL     1      40.705 -17.768   5.114  1.00  0.00    -0.247 OA
HETATM    5  N   UNL     1      42.475 -16.725   4.024  1.00  0.00    -0.264 N 
HETATM    6  C   UNL     1      42.574 -15.794   3.029  1.00  0.00     0.257 A 
HETATM    7  O   UNL     1      43.602 -15.316   2.574  1.00  0.00    -0.270 OA
HETATM    8  H   UNL     1      39.436 -16.563   3.287  1.00  0.00     0.165 HD
ENDROOT
BRANCH   1   9
HETATM    9  C   UNL     1      40.879 -15.576   1.143  1.00  0.00     0.037 C 
HETATM   10  C   UNL     1      41.344 -16.930   0.612  1.00  0.00     0.008 C 
ENDBRANCH   1   9
BRANCH   1  11
HETATM   11  C   UNL     1      40.975 -13.828   3.057  1.00  0.00     0.026 C 
HETATM   12  C   UNL     1      39.616 -13.184   2.706  1.00  0.00     0.035 C 
HETATM   13  C   UNL     1      39.435 -12.838   1.234  1.00  0.00     0.235 C 
HETATM   14  N   UNL     1      40.578 -12.000   0.719  1.00  0.00    -0.067 N 
HETATM   15  H   UNL     1      40.475 -11.072   1.149  1.00  0.00     0.280 HD
HETATM   16  C   UNL     1      41.953 -12.518   1.076  1.00  0.00     0.235 C 
HETATM   17  C   UNL     1      42.065 -12.866   2.553  1.00  0.00     0.035 C 
BRANCH  14  18
HETATM   18  C   UNL     1      40.502 -11.790  -0.791  1.00  0.00     0.273 C 
BRANCH  18  19
HETATM   19  C   UNL     1      40.147 -13.012  -1.593  1.00  0.00    -0.027 A 
HETATM   20  C   UNL     1      41.129 -13.924  -2.002  1.00  0.00     0.051 A 
HETATM   21  C   UNL     1      40.770 -15.044  -2.755  1.00  0.00     0.119 A 
HETATM   22  F   UNL     1      41.725 -15.901  -3.136  1.00  0.00    -0.206 F 
HETATM   23  C   UNL     1      39.454 -15.279  -3.121  1.00  0.00     0.084 A 
HETATM   24  C   UNL     1      38.483 -14.377  -2.718  1.00  0.00     0.119 A 
HETATM   25  F   UNL     1      37.206 -14.576  -3.065  1.00  0.00    -0.206 F 
HETATM   26  C   UNL     1      38.813 -13.252  -1.963  1.00  0.00     0.051 A 
ENDBRANCH  18  19
ENDBRANCH  14  18
ENDBRANCH   1  11
BRANCH   5  27
HETATM   27  C   UNL     1      43.597 -17.269   4.755  1.00  0.00     0.175 C 
BRANCH  27  28
HETATM   28  C   UNL     1      43.957 -18.670   4.333  1.00  0.00    -0.037 A 
HETATM   29  C   UNL     1      43.803 -19.059   2.991  1.00  0.00     0.048 A 
HETATM   30  C   UNL     1      44.091 -20.364   2.655  1.00  0.00     0.105 A 
HETATM   31  C   UNL     1      44.533 -21.271   3.586  1.00  0.00     0.105 A 
HETATM   32  O   UNL     1      43.967 -20.908   1.415  1.00  0.00    -0.323 OA
HETATM   33  O   UNL     1      44.742 -22.502   3.050  1.00  0.00    -0.323 OA
HETATM   34  C   UNL     1      44.721 -20.921   4.906  1.00  0.00     0.040 A 
HETATM   35  C   UNL     1      44.345 -22.276   1.681  1.00  0.00     0.352 A 
HETATM   36  C   UNL     1      44.430 -19.605   5.281  1.00  0.00     0.012 A 
ENDBRANCH  27  28
ENDBRANCH   5  27
TORSDOF 6
ENDMDL
MODEL 8
REMARK VINA RESULT:      -8.8      3.465      6.068
REMARK  6 active torsions:
REMARK  status: ('A' for Active; 'I' for Inactive)
REMARK    1  A    between atoms: C_2  and  C_3 
REMARK    2  A    between atoms: C_3  and  C_4 
REMARK    3  A    between atoms: N_7  and  C_9 
REMARK    4  A    between atoms: C_9  and  C_10 
REMARK    5  A    between atoms: N_23  and  C_24 
REMARK    6  A    between atoms: C_24  and  C_25 
ROOT
HETATM    1  C   UNL     1      41.019 -14.490   3.879  1.00  0.00     0.119 A 
HETATM    2  N   UNL     1      42.219 -13.871   3.371  1.00  0.00    -0.324 N 
HETATM    3  C   UNL     1      43.287 -14.016   4.235  1.00  0.00     0.326 A 
HETATM    4  O   UNL     1      44.407 -13.637   3.943  1.00  0.00    -0.247 OA
HETATM    5  N   UNL     1      42.874 -14.699   5.332  1.00  0.00    -0.264 N 
HETATM    6  C   UNL     1      41.537 -14.972   5.255  1.00  0.00     0.257 A 
HETATM    7  O   UNL     1      40.865 -15.577   6.076  1.00  0.00    -0.270 OA
HETATM    8  H   UNL     1      42.265 -13.105   2.708  1.00  0.00     0.165 HD
ENDROOT
BRANCH   1   9
HETATM    9  C   UNL     1      39.872 -13.475   4.045  1.00  0.00     0.037 C 
HETATM   10  C   UNL     1      40.172 -12.071   3.523  1.00  0.00     0.008 C 
ENDBRANCH   1   9
BRANCH   1  11
HETATM   11  C   UNL     1      40.596 -15.752   3.036  1.00  0.00     0.026 C 
HETATM   12  C   UNL     1      41.651 -16.278   2.037  1.00  0.00     0.035 C 
HETATM   13  C   UNL     1      41.806 -15.441   0.774  1.00  0.00     0.235 C 
HETATM   14  N   UNL     1      40.480 -15.217   0.091  1.00  0.00    -0.067 N 
HETATM   15  H   UNL     1      40.205 -16.122  -0.311  1.00  0.00     0.280 HD
HETATM   16  C   UNL     1      39.366 -14.767   1.008  1.00  0.00     0.235 C 
HETATM   17  C   UNL     1      39.274 -15.628   2.259  1.00  0.00     0.035 C 
BRANCH  14  18
HETATM   18  C   UNL     1      40.592 -14.239  -1.075  1.00  0.00     0.273 C 
BRANCH  18  19
HETATM   19  C   UNL     1      39.596 -14.445  -2.183  1.00  0.00    -0.027 A 
HETATM   20  C   UNL     1      39.752 -15.475  -3.120  1.00  0.00     0.051 A 
HETATM   21  C   UNL     1      38.817 -15.633  -4.145  1.00  0.00     0.119 A 
HETATM   22  F   UNL     1      38.986 -16.625  -5.028  1.00  0.00    -0.206 F 
HETATM   23  C   UNL     1      37.728 -14.784  -4.269  1.00  0.00     0.084 A 
HETATM   24  C   UNL     1      37.574 -13.764  -3.344  1.00  0.00     0.119 A 
HETATM   25  F   UNL     1      36.536 -12.926  -3.447  1.00  0.00    -0.206 F 
HETATM   26  C   UNL     1      38.491 -13.585  -2.309  1.00  0.00     0.051 A 
ENDBRANCH  18  19
ENDBRANCH  14  18
ENDBRANCH   1  11
BRANCH   5  27
HETATM   27  C   UNL     1      43.742 -15.141   6.401  1.00  0.00     0.175 C 
BRANCH  27  28
HETATM   28  C   UNL     1      43.886 -16.640   6.466  1.00  0.00    -0.037 A 
HETATM   29  C   UNL     1      44.314 -17.352   5.333  1.00  0.00     0.048 A 
HETATM   30  C   UNL     1      44.381 -18.727   5.416  1.00  0.00     0.105 A 
HETATM   31  C   UNL     1      44.059 -19.399   6.569  1.00  0.00     0.105 A 
HETATM   32  O   UNL     1      44.744 -19.564   4.408  1.00  0.00    -0.323 OA
HETATM   33  O   UNL     1      44.177 -20.746   6.433  1.00  0.00    -0.323 OA
HETATM   34  C   UNL     1      43.660 -18.734   7.708  1.00  0.00     0.040 A 
HETATM   35  C   UNL     1      44.575 -20.847   5.049  1.00  0.00     0.352 A 
HETATM   36  C   UNL     1      43.574 -17.339   7.654  1.00  0.00     0.012 A 
ENDBRANCH  27  28
ENDBRANCH   5  27
TORSDOF 6
ENDMDL
MODEL 9
REMARK VINA RESULT:      -8.8      4.301      8.203
REMARK  6 active torsions:
REMARK  status: ('A' for Active; 'I' for Inactive)
REMARK    1  A    between atoms: C_2  and  C_3 
REMARK    2  A    between atoms: C_3  and  C_4 
REMARK    3  A    between atoms: N_7  and  C_9 
REMARK    4  A    between atoms: C_9  and  C_10 
REMARK    5  A    between atoms: N_23  and  C_24 
REMARK    6  A    between atoms: C_24  and  C_25 
ROOT
HETATM    1  C   UNL     1      41.245 -15.278   3.311  1.00  0.00     0.119 A 
HETATM    2  N   UNL     1      42.353 -14.447   2.906  1.00  0.00    -0.324 N 
HETATM    3  C   UNL     1      42.017 -13.596   1.872  1.00  0.00     0.326 A 
HETATM    4  O   UNL     1      42.793 -12.757   1.451  1.00  0.00    -0.247 OA
HETATM    5  N   UNL     1      40.722 -13.812   1.529  1.00  0.00    -0.264 N 
HETATM    6  C   UNL     1      40.190 -14.828   2.272  1.00  0.00     0.257 A 
HETATM    7  O   UNL     1      39.048 -15.260   2.211  1.00  0.00    -0.270 OA
HETATM    8  H   UNL     1      43.337 -14.660   3.025  1.00  0.00     0.165 HD
ENDROOT
BRANCH   1   9
HETATM    9  C   UNL     1      41.563 -16.778   3.161  1.00  0.00     0.037 C 
HETATM   10  C   UNL     1      41.775 -17.251   1.724  1.00  0.00     0.008 C 
ENDBRANCH   1   9
BRANCH   1  11
HETATM   11  C   UNL     1      40.716 -14.910   4.749  1.00  0.00     0.026 C 
HETATM   12  C   UNL     1      41.164 -13.538   5.298  1.00  0.00     0.035 C 
HETATM   13  C   UNL     1      42.609 -13.481   5.775  1.00  0.00     0.235 C 
HETATM   14  N   UNL     1      42.910 -14.582   6.761  1.00  0.00    -0.067 N 
HETATM   15  H   UNL     1      42.413 -14.339   7.628  1.00  0.00     0.280 HD
HETATM   16  C   UNL     1      42.444 -15.955   6.337  1.00  0.00     0.235 C 
HETATM   17  C   UNL     1      41.001 -15.943   5.853  1.00  0.00     0.035 C 
BRANCH  14  18
HETATM   18  C   UNL     1      44.394 -14.647   7.115  1.00  0.00     0.273 C 
BRANCH  18  19
HETATM   19  C   UNL     1      44.926 -13.463   7.874  1.00  0.00    -0.027 A 
HETATM   20  C   UNL     1      46.146 -12.867   7.530  1.00  0.00     0.051 A 
HETATM   21  C   UNL     1      46.620 -11.776   8.260  1.00  0.00     0.119 A 
HETATM   22  F   UNL     1      47.789 -11.222   7.913  1.00  0.00    -0.206 F 
HETATM   23  C   UNL     1      45.912 -11.262   9.336  1.00  0.00     0.084 A 
HETATM   24  C   UNL     1      44.706 -11.851   9.678  1.00  0.00     0.119 A 
HETATM   25  F   UNL     1      44.008 -11.380  10.717  1.00  0.00    -0.206 F 
HETATM   26  C   UNL     1      44.208 -12.940   8.964  1.00  0.00     0.051 A 
ENDBRANCH  18  19
ENDBRANCH  14  18
ENDBRANCH   1  11
BRANCH   5  27
HETATM   27  C   UNL     1      39.985 -13.027   0.564  1.00  0.00     0.175 C 
BRANCH  27  28
HETATM   28  C   UNL     1      39.894 -13.684  -0.789  1.00  0.00    -0.037 A 
HETATM   29  C   UNL     1      38.637 -13.911  -1.375  1.00  0.00     0.048 A 
HETATM   30  C   UNL     1      38.593 -14.564  -2.588  1.00  0.00     0.105 A 
HETATM   31  C   UNL     1      39.735 -14.975  -3.231  1.00  0.00     0.105 A 
HETATM   32  O   UNL     1      37.464 -14.887  -3.273  1.00  0.00    -0.323 OA
HETATM   33  O   UNL     1      39.468 -15.611  -4.403  1.00  0.00    -0.323 OA
HETATM   34  C   UNL     1      40.986 -14.748  -2.701  1.00  0.00     0.040 A 
HETATM   35  C   UNL     1      38.025 -15.587  -4.405  1.00  0.00     0.352 A 
HETATM   36  C   UNL     1      41.065 -14.095  -1.467  1.00  0.00     0.012 A 
ENDBRANCH  27  28
ENDBRANCH   5  27
TORSDOF 6
ENDMDL
MODEL 10
REMARK VINA RESULT:      -8.8      3.785      7.286
REMARK  6 active torsions:
REMARK  status: ('A' for Active; 'I' for Inactive)
REMARK    1  A    between atoms: C_2  and  C_3 
REMARK    2  A    between atoms: C_3  and  C_4 
REMARK    3  A    between atoms: N_7  and  C_9 
REMARK    4  A    between atoms: C_9  and  C_10 
REMARK    5  A    between atoms: N_23  and  C_24 
REMARK    6  A    between atoms: C_24  and  C_25 
ROOT
HETATM    1  C   UNL     1      40.125 -13.778   0.919  1.00  0.00     0.119 A 
HETATM    2  N   UNL     1      40.075 -14.925   0.045  1.00  0.00    -0.324 N 
HETATM    3  C   UNL     1      40.877 -14.767  -1.069  1.00  0.00     0.326 A 
HETATM    4  O   UNL     1      41.035 -15.662  -1.880  1.00  0.00    -0.247 OA
HETATM    5  N   UNL     1      41.471 -13.548  -1.013  1.00  0.00    -0.264 N 
HETATM    6  C   UNL     1      41.048 -12.856   0.087  1.00  0.00     0.257 A 
HETATM    7  O   UNL     1      41.399 -11.736   0.427  1.00  0.00    -0.270 OA
HETATM    8  H   UNL     1      39.315 -15.593  -0.026  1.00  0.00     0.165 HD
ENDROOT
BRANCH   1   9
HETATM    9  C   UNL     1      38.736 -13.140   1.114  1.00  0.00     0.037 C 
HETATM   10  C   UNL     1      37.560 -14.010   0.678  1.00  0.00     0.008 C 
ENDBRANCH   1   9
BRANCH   1  11
HETATM   11  C   UNL     1      40.843 -14.099   2.286  1.00  0.00     0.026 C 
HETATM   12  C   UNL     1      42.361 -14.366   2.200  1.00  0.00     0.035 C 
HETATM   13  C   UNL     1      42.739 -15.730   1.638  1.00  0.00     0.235 C 
HETATM   14  N   UNL     1      42.035 -16.845   2.371  1.00  0.00    -0.067 N 
HETATM   15  H   UNL     1      42.465 -16.896   3.304  1.00  0.00     0.280 HD
HETATM   16  C   UNL     1      40.551 -16.636   2.564  1.00  0.00     0.235 C 
HETATM   17  C   UNL     1      40.236 -15.250   3.107  1.00  0.00     0.035 C 
BRANCH  14  18
HETATM   18  C   UNL     1      42.266 -18.202   1.712  1.00  0.00     0.273 C 
BRANCH  18  19
HETATM   19  C   UNL     1      43.178 -19.134   2.462  1.00  0.00    -0.027 A 
HETATM   20  C   UNL     1      43.702 -18.788   3.714  1.00  0.00     0.051 A 
HETATM   21  C   UNL     1      44.556 -19.669   4.380  1.00  0.00     0.119 A 
HETATM   22  F   UNL     1      45.044 -19.317   5.576  1.00  0.00    -0.206 F 
HETATM   23  C   UNL     1      44.911 -20.890   3.828  1.00  0.00     0.084 A 
HETATM   24  C   UNL     1      44.394 -21.232   2.589  1.00  0.00     0.119 A 
HETATM   25  F   UNL     1      44.728 -22.402   2.030  1.00  0.00    -0.206 F 
HETATM   26  C   UNL     1      43.538 -20.373   1.903  1.00  0.00     0.051 A 
ENDBRANCH  18  19
ENDBRANCH  14  18
ENDBRANCH   1  11
BRANCH   5  27
HETATM   27  C   UNL     1      42.470 -13.077  -1.946  1.00  0.00     0.175 C 
BRANCH  27  28
HETATM   28  C   UNL     1      41.967 -11.977  -2.846  1.00  0.00    -0.037 A 
HETATM   29  C   UNL     1      42.593 -10.719  -2.832  1.00  0.00     0.048 A 
HETATM   30  C   UNL     1      42.070  -9.724  -3.629  1.00  0.00     0.105 A 
HETATM   31  C   UNL     1      40.979  -9.939  -4.434  1.00  0.00     0.105 A 
HETATM   32  O   UNL     1      42.534  -8.448  -3.709  1.00  0.00    -0.323 OA
HETATM   33  O   UNL     1      40.617  -8.825  -5.124  1.00  0.00    -0.323 OA
HETATM   34  C   UNL     1      40.354 -11.166  -4.495  1.00  0.00     0.040 A 
HETATM   35  C   UNL     1      41.583  -7.872  -4.631  1.00  0.00     0.352 A 
HETATM   36  C   UNL     1      40.856 -12.195  -3.692  1.00  0.00     0.012 A 
ENDBRANCH  27  28
ENDBRANCH   5  27
TORSDOF 6
ENDMDL
