MODEL 1
REMARK VINA RESULT:      -9.4      0.000      0.000
REMARK  9 active torsions:
REMARK  status: ('A' for Active; 'I' for Inactive)
REMARK       I    between atoms: C_2  and  N_3 
REMARK    1  A    between atoms: N_3  and  C_4 
REMARK    2  A    between atoms: C_7  and  O_8 
REMARK    3  A    between atoms: O_8  and  C_9 
REMARK    4  A    between atoms: C_9  and  C_10 
REMARK    5  A    between atoms: C_11  and  O_12 
REMARK    6  A    between atoms: C_16  and  C_17 
REMARK    7  A    between atoms: C_31  and  O_32 
REMARK    8  A    between atoms: O_32  and  C_33 
REMARK    9  A    between atoms: C_33  and  C_34 
ROOT
HETATM    1  C   UNL     1      38.642 -13.781  -0.707  1.00  0.00     0.269 C 
HETATM    2  N   UNL     1      39.372 -13.208  -1.896  1.00  0.00    -0.061 N 
HETATM    3  H   UNL     1      39.999 -12.472  -1.553  1.00  0.00     0.278 HD
HETATM    4  H   UNL     1      38.685 -12.748  -2.504  1.00  0.00     0.278 HD
HETATM    5  C   UNL     1      40.179 -14.228  -2.661  1.00  0.00     0.238 C 
HETATM    6  C   UNL     1      41.300 -14.818  -1.784  1.00  0.00     0.069 C 
HETATM    7  C   UNL     1      40.786 -15.146  -0.423  1.00  0.00    -0.019 A 
HETATM    8  C   UNL     1      39.593 -14.636   0.055  1.00  0.00     0.052 A 
HETATM    9  N   UNL     1      39.405 -15.111   1.327  1.00  0.00    -0.356 N 
HETATM   10  H   UNL     1      38.620 -14.912   1.938  1.00  0.00     0.166 HD
HETATM   11  C   UNL     1      40.457 -15.931   1.673  1.00  0.00     0.043 A 
HETATM   12  C   UNL     1      41.338 -15.976   0.590  1.00  0.00     0.002 A 
HETATM   13  C   UNL     1      40.688 -16.634   2.857  1.00  0.00     0.033 A 
HETATM   14  C   UNL     1      41.848 -17.410   2.930  1.00  0.00     0.039 A 
HETATM   15  C   UNL     1      42.747 -17.489   1.865  1.00  0.00     0.070 A 
HETATM   16  C   UNL     1      42.503 -16.770   0.689  1.00  0.00     0.051 A 
ENDROOT
BRANCH   1  17
HETATM   17  C   UNL     1      37.982 -12.690   0.106  1.00  0.00    -0.021 A 
HETATM   18  C   UNL     1      36.883 -11.960  -0.367  1.00  0.00     0.012 A 
HETATM   19  C   UNL     1      36.289 -10.968   0.424  1.00  0.00     0.038 A 
HETATM   20  C   UNL     1      36.792 -10.666   1.693  1.00  0.00     0.076 A 
HETATM   21  C   UNL     1      37.918 -11.355   2.167  1.00  0.00    -0.000 A 
HETATM   22  C   UNL     1      38.488 -12.375   1.377  1.00  0.00     0.021 A 
BRANCH  20  23
HETATM   23  O   UNL     1      36.263  -9.729   2.536  1.00  0.00    -0.355 OA
HETATM   24  C   UNL     1      34.966  -9.222   2.245  1.00  0.00     0.210 C 
ENDBRANCH  20  23
BRANCH  21  25
HETATM   25  C   UNL     1      38.546 -11.037   3.511  1.00  0.00     0.217 C 
BRANCH  25  26
HETATM   26  O   UNL     1      39.965 -11.140   3.359  1.00  0.00    -0.347 OA
BRANCH  26  27
HETATM   27  C   UNL     1      40.586 -12.166   4.012  1.00  0.00     0.069 A 
HETATM   28  C   UNL     1      39.893 -12.662   5.116  1.00  0.00     0.039 A 
HETATM   29  C   UNL     1      40.420 -13.705   5.886  1.00  0.00     0.032 A 
HETATM   30  C   UNL     1      41.657 -14.262   5.567  1.00  0.00     0.034 A 
HETATM   31  C   UNL     1      42.352 -13.760   4.460  1.00  0.00     0.032 A 
HETATM   32  C   UNL     1      41.823 -12.718   3.687  1.00  0.00     0.039 A 
BRANCH  30  33
HETATM   33  N   UNL     1      42.264 -15.309   6.293  1.00  0.00    -0.328 N 
HETATM   34  C   UNL     1      41.712 -16.536   6.615  1.00  0.00     0.218 C 
HETATM   35  C   UNL     1      42.649 -17.417   7.407  1.00  0.00     0.117 C 
HETATM   36  O   UNL     1      40.587 -16.932   6.328  1.00  0.00    -0.274 OA
HETATM   37  H   UNL     1      43.207 -15.134   6.615  1.00  0.00     0.169 HD
ENDBRANCH  30  33
ENDBRANCH  26  27
ENDBRANCH  25  26
ENDBRANCH  21  25
ENDBRANCH   1  17
BRANCH  15  38
HETATM   38  O   UNL     1      43.826 -18.298   2.100  1.00  0.00    -0.347 OA
BRANCH  38  39
HETATM   39  C   UNL     1      43.733 -19.658   1.686  1.00  0.00     0.214 C 
BRANCH  39  40
HETATM   40  C   UNL     1      44.139 -20.539   2.843  1.00  0.00    -0.034 A 
HETATM   41  C   UNL     1      44.321 -21.918   2.670  1.00  0.00     0.009 A 
HETATM   42  C   UNL     1      44.702 -22.721   3.747  1.00  0.00     0.001 A 
HETATM   43  C   UNL     1      44.899 -22.156   5.005  1.00  0.00     0.000 A 
HETATM   44  C   UNL     1      44.713 -20.788   5.191  1.00  0.00     0.001 A 
HETATM   45  C   UNL     1      44.333 -19.983   4.116  1.00  0.00     0.009 A 
ENDBRANCH  39  40
ENDBRANCH  38  39
ENDBRANCH  15  38
TORSDOF 9
ENDMDL
MODEL 2
REMARK VINA RESULT:      -8.7      2.487      5.122
REMARK  9 active torsions:
REMARK  status: ('A' for Active; 'I' for Inactive)
REMARK       I    between atoms: C_2  and  N_3 
REMARK    1  A    between atoms: N_3  and  C_4 
REMARK    2  A    between atoms: C_7  and  O_8 
REMARK    3  A    between atoms: O_8  and  C_9 
REMARK    4  A    between atoms: C_9  and  C_10 
REMARK    5  A    between atoms: C_11  and  O_12 
REMARK    6  A    between atoms: C_16  and  C_17 
REMARK    7  A    between atoms: C_31  and  O_32 
REMARK    8  A    between atoms: O_32  and  C_33 
REMARK    9  A    between atoms: C_33  and  C_34 
ROOT
HETATM    1  C   UNL     1      40.863 -10.546   3.769  1.00  0.00     0.269 C 
HETATM    2  N   UNL     1      39.559 -10.283   4.482  1.00  0.00    -0.061 N 
HETATM    3  H   UNL     1      38.821 -10.787   3.980  1.00  0.00     0.278 HD
HETATM    4  H   UNL     1      39.343  -9.284   4.397  1.00  0.00     0.278 HD
HETATM    5  C   UNL     1      39.561 -10.718   5.927  1.00  0.00     0.238 C 
HETATM    6  C   UNL     1      39.749 -12.243   6.046  1.00  0.00     0.069 C 
HETATM    7  C   UNL     1      40.827 -12.713   5.127  1.00  0.00    -0.019 A 
HETATM    8  C   UNL     1      41.291 -11.937   4.081  1.00  0.00     0.052 A 
HETATM    9  N   UNL     1      42.265 -12.645   3.424  1.00  0.00    -0.356 N 
HETATM   10  H   UNL     1      42.792 -12.340   2.613  1.00  0.00     0.166 HD
HETATM   11  C   UNL     1      42.441 -13.865   4.040  1.00  0.00     0.043 A 
HETATM   12  C   UNL     1      41.555 -13.933   5.118  1.00  0.00     0.002 A 
HETATM   13  C   UNL     1      43.319 -14.904   3.725  1.00  0.00     0.033 A 
HETATM   14  C   UNL     1      43.294 -16.039   4.540  1.00  0.00     0.039 A 
HETATM   15  C   UNL     1      42.431 -16.139   5.632  1.00  0.00     0.070 A 
HETATM   16  C   UNL     1      41.551 -15.091   5.928  1.00  0.00     0.051 A 
ENDROOT
BRANCH   1  17
HETATM   17  C   UNL     1      40.751 -10.235   2.293  1.00  0.00    -0.021 A 
HETATM   18  C   UNL     1      40.949  -8.947   1.779  1.00  0.00     0.012 A 
HETATM   19  C   UNL     1      40.853  -8.703   0.403  1.00  0.00     0.038 A 
HETATM   20  C   UNL     1      40.533  -9.732  -0.487  1.00  0.00     0.076 A 
HETATM   21  C   UNL     1      40.287 -11.021   0.013  1.00  0.00    -0.000 A 
HETATM   22  C   UNL     1      40.420 -11.262   1.395  1.00  0.00     0.021 A 
BRANCH  20  23
HETATM   23  O   UNL     1      40.436  -9.586  -1.843  1.00  0.00    -0.355 OA
HETATM   24  C   UNL     1      41.641  -9.462  -2.590  1.00  0.00     0.210 C 
ENDBRANCH  20  23
BRANCH  21  25
HETATM   25  C   UNL     1      39.882 -12.168  -0.893  1.00  0.00     0.217 C 
BRANCH  25  26
HETATM   26  O   UNL     1      39.107 -13.081  -0.110  1.00  0.00    -0.347 OA
BRANCH  26  27
HETATM   27  C   UNL     1      39.736 -14.212   0.328  1.00  0.00     0.069 A 
HETATM   28  C   UNL     1      40.628 -14.775  -0.584  1.00  0.00     0.039 A 
HETATM   29  C   UNL     1      41.333 -15.944  -0.271  1.00  0.00     0.032 A 
HETATM   30  C   UNL     1      41.146 -16.572   0.960  1.00  0.00     0.034 A 
HETATM   31  C   UNL     1      40.247 -16.005   1.872  1.00  0.00     0.032 A 
HETATM   32  C   UNL     1      39.545 -14.833   1.560  1.00  0.00     0.039 A 
BRANCH  30  33
HETATM   33  N   UNL     1      41.809 -17.754   1.353  1.00  0.00    -0.328 N 
HETATM   34  C   UNL     1      43.173 -17.978   1.390  1.00  0.00     0.218 C 
HETATM   35  C   UNL     1      43.532 -19.367   1.862  1.00  0.00     0.117 C 
HETATM   36  O   UNL     1      44.055 -17.184   1.081  1.00  0.00    -0.274 OA
HETATM   37  H   UNL     1      41.212 -18.521   1.633  1.00  0.00     0.169 HD
ENDBRANCH  30  33
ENDBRANCH  26  27
ENDBRANCH  25  26
ENDBRANCH  21  25
ENDBRANCH   1  17
BRANCH  15  38
HETATM   38  O   UNL     1      42.540 -17.314   6.328  1.00  0.00    -0.347 OA
BRANCH  38  39
HETATM   39  C   UNL     1      43.834 -17.685   6.796  1.00  0.00     0.214 C 
BRANCH  39  40
HETATM   40  C   UNL     1      44.103 -19.110   6.379  1.00  0.00    -0.034 A 
HETATM   41  C   UNL     1      43.609 -20.186   7.129  1.00  0.00     0.009 A 
HETATM   42  C   UNL     1      43.860 -21.500   6.729  1.00  0.00     0.001 A 
HETATM   43  C   UNL     1      44.609 -21.752   5.581  1.00  0.00     0.000 A 
HETATM   44  C   UNL     1      45.111 -20.690   4.832  1.00  0.00     0.001 A 
HETATM   45  C   UNL     1      44.862 -19.376   5.229  1.00  0.00     0.009 A 
ENDBRANCH  39  40
ENDBRANCH  38  39
ENDBRANCH  15  38
TORSDOF 9
ENDMDL
MODEL 3
REMARK VINA RESULT:      -8.6      2.617      5.019
REMARK  9 active torsions:
REMARK  status: ('A' for Active; 'I' for Inactive)
REMARK       I    between atoms: C_2  and  N_3 
REMARK    1  A    between atoms: N_3  and  C_4 
REMARK    2  A    between atoms: C_7  and  O_8 
REMARK    3  A    between atoms: O_8  and  C_9 
REMARK    4  A    between atoms: C_9  and  C_10 
REMARK    5  A    between atoms: C_11  and  O_12 
REMARK    6  A    between atoms: C_16  and  C_17 
REMARK    7  A    between atoms: C_31  and  O_32 
REMARK    8  A    between atoms: O_32  and  C_33 
REMARK    9  A    between atoms: C_33  and  C_34 
ROOT
HETATM    1  C   UNL     1      40.817 -10.642   4.938  1.00  0.00     0.269 C 
HETATM    2  N   UNL     1      39.488 -10.777   5.639  1.00  0.00    -0.061 N 
HETATM    3  H   UNL     1      38.794 -11.060   4.940  1.00  0.00     0.278 HD
HETATM    4  H   UNL     1      39.208  -9.849   5.975  1.00  0.00     0.278 HD
HETATM    5  C   UNL     1      39.497 -11.783   6.764  1.00  0.00     0.238 C 
HETATM    6  C   UNL     1      39.785 -13.202   6.236  1.00  0.00     0.069 C 
HETATM    7  C   UNL     1      40.905 -13.179   5.251  1.00  0.00    -0.019 A 
HETATM    8  C   UNL     1      41.333 -12.009   4.651  1.00  0.00     0.052 A 
HETATM    9  N   UNL     1      42.361 -12.319   3.798  1.00  0.00    -0.356 N 
HETATM   10  H   UNL     1      42.879 -11.671   3.215  1.00  0.00     0.166 HD
HETATM   11  C   UNL     1      42.609 -13.673   3.848  1.00  0.00     0.043 A 
HETATM   12  C   UNL     1      41.713 -14.239   4.758  1.00  0.00     0.002 A 
HETATM   13  C   UNL     1      43.559 -14.432   3.161  1.00  0.00     0.033 A 
HETATM   14  C   UNL     1      43.597 -15.805   3.420  1.00  0.00     0.039 A 
HETATM   15  C   UNL     1      42.726 -16.405   4.330  1.00  0.00     0.070 A 
HETATM   16  C   UNL     1      41.774 -15.630   5.003  1.00  0.00     0.051 A 
ENDROOT
BRANCH   1  17
HETATM   17  C   UNL     1      40.708  -9.742   3.727  1.00  0.00    -0.021 A 
HETATM   18  C   UNL     1      41.341  -8.494   3.659  1.00  0.00     0.012 A 
HETATM   19  C   UNL     1      41.229  -7.696   2.514  1.00  0.00     0.038 A 
HETATM   20  C   UNL     1      40.463  -8.113   1.421  1.00  0.00     0.076 A 
HETATM   21  C   UNL     1      39.785  -9.341   1.487  1.00  0.00    -0.000 A 
HETATM   22  C   UNL     1      39.933 -10.151   2.631  1.00  0.00     0.021 A 
BRANCH  20  23
HETATM   23  O   UNL     1      40.315  -7.408   0.259  1.00  0.00    -0.355 OA
HETATM   24  C   UNL     1      41.447  -7.276  -0.592  1.00  0.00     0.210 C 
ENDBRANCH  20  23
BRANCH  21  25
HETATM   25  C   UNL     1      38.895  -9.826   0.358  1.00  0.00     0.217 C 
BRANCH  25  26
HETATM   26  O   UNL     1      39.741 -10.420  -0.632  1.00  0.00    -0.347 OA
BRANCH  26  27
HETATM   27  C   UNL     1      40.133 -11.711  -0.419  1.00  0.00     0.069 A 
HETATM   28  C   UNL     1      39.092 -12.638  -0.371  1.00  0.00     0.039 A 
HETATM   29  C   UNL     1      39.349 -13.996  -0.146  1.00  0.00     0.032 A 
HETATM   30  C   UNL     1      40.655 -14.444   0.045  1.00  0.00     0.034 A 
HETATM   31  C   UNL     1      41.697 -13.510  -0.001  1.00  0.00     0.032 A 
HETATM   32  C   UNL     1      41.440 -12.151  -0.230  1.00  0.00     0.039 A 
BRANCH  30  33
HETATM   33  N   UNL     1      41.002 -15.791   0.284  1.00  0.00    -0.328 N 
HETATM   34  C   UNL     1      40.583 -16.592   1.330  1.00  0.00     0.218 C 
HETATM   35  C   UNL     1      41.156 -17.988   1.274  1.00  0.00     0.117 C 
HETATM   36  O   UNL     1      39.832 -16.269   2.246  1.00  0.00    -0.274 OA
HETATM   37  H   UNL     1      41.633 -16.210  -0.388  1.00  0.00     0.169 HD
ENDBRANCH  30  33
ENDBRANCH  26  27
ENDBRANCH  25  26
ENDBRANCH  21  25
ENDBRANCH   1  17
BRANCH  15  38
HETATM   38  O   UNL     1      42.902 -17.755   4.468  1.00  0.00    -0.347 OA
BRANCH  38  39
HETATM   39  C   UNL     1      44.238 -18.236   4.593  1.00  0.00     0.214 C 
BRANCH  39  40
HETATM   40  C   UNL     1      44.309 -19.615   3.983  1.00  0.00    -0.034 A 
HETATM   41  C   UNL     1      44.724 -20.719   4.740  1.00  0.00     0.009 A 
HETATM   42  C   UNL     1      44.779 -21.990   4.166  1.00  0.00     0.001 A 
HETATM   43  C   UNL     1      44.426 -22.170   2.830  1.00  0.00     0.000 A 
HETATM   44  C   UNL     1      44.019 -21.079   2.065  1.00  0.00     0.001 A 
HETATM   45  C   UNL     1      43.963 -19.807   2.636  1.00  0.00     0.009 A 
ENDBRANCH  39  40
ENDBRANCH  38  39
ENDBRANCH  15  38
TORSDOF 9
ENDMDL
MODEL 4
REMARK VINA RESULT:      -8.3      2.306      8.890
REMARK  9 active torsions:
REMARK  status: ('A' for Active; 'I' for Inactive)
REMARK       I    between atoms: C_2  and  N_3 
REMARK    1  A    between atoms: N_3  and  C_4 
REMARK    2  A    between atoms: C_7  and  O_8 
REMARK    3  A    between atoms: O_8  and  C_9 
REMARK    4  A    between atoms: C_9  and  C_10 
REMARK    5  A    between atoms: C_11  and  O_12 
REMARK    6  A    between atoms: C_16  and  C_17 
REMARK    7  A    between atoms: C_31  and  O_32 
REMARK    8  A    between atoms: O_32  and  C_33 
REMARK    9  A    between atoms: C_33  and  C_34 
ROOT
HETATM    1  C   UNL     1      41.957 -15.495   0.344  1.00  0.00     0.269 C 
HETATM    2  N   UNL     1      41.306 -16.130  -0.861  1.00  0.00    -0.061 N 
HETATM    3  H   UNL     1      40.592 -16.784  -0.522  1.00  0.00     0.278 HD
HETATM    4  H   UNL     1      42.012 -16.692  -1.348  1.00  0.00     0.278 HD
HETATM    5  C   UNL     1      40.662 -15.135  -1.795  1.00  0.00     0.238 C 
HETATM    6  C   UNL     1      39.508 -14.388  -1.099  1.00  0.00     0.069 C 
HETATM    7  C   UNL     1      39.908 -13.965   0.275  1.00  0.00    -0.019 A 
HETATM    8  C   UNL     1      41.004 -14.508   0.920  1.00  0.00     0.052 A 
HETATM    9  N   UNL     1      41.101 -13.925   2.158  1.00  0.00    -0.356 N 
HETATM   10  H   UNL     1      41.803 -14.117   2.864  1.00  0.00     0.166 HD
HETATM   11  C   UNL     1      40.087 -13.005   2.315  1.00  0.00     0.043 A 
HETATM   12  C   UNL     1      39.324 -13.005   1.145  1.00  0.00     0.002 A 
HETATM   13  C   UNL     1      39.795 -12.177   3.401  1.00  0.00     0.033 A 
HETATM   14  C   UNL     1      38.697 -11.320   3.280  1.00  0.00     0.039 A 
HETATM   15  C   UNL     1      37.919 -11.282   2.122  1.00  0.00     0.070 A 
HETATM   16  C   UNL     1      38.221 -12.127   1.047  1.00  0.00     0.051 A 
ENDROOT
BRANCH   1  17
HETATM   17  C   UNL     1      42.445 -16.545   1.317  1.00  0.00    -0.021 A 
HETATM   18  C   UNL     1      43.560 -17.352   1.056  1.00  0.00     0.012 A 
HETATM   19  C   UNL     1      43.992 -18.301   1.990  1.00  0.00     0.038 A 
HETATM   20  C   UNL     1      43.306 -18.485   3.194  1.00  0.00     0.076 A 
HETATM   21  C   UNL     1      42.160 -17.718   3.456  1.00  0.00    -0.000 A 
HETATM   22  C   UNL     1      41.755 -16.741   2.523  1.00  0.00     0.021 A 
BRANCH  20  23
HETATM   23  O   UNL     1      43.667 -19.374   4.168  1.00  0.00    -0.355 OA
HETATM   24  C   UNL     1      44.707 -20.300   3.876  1.00  0.00     0.210 C 
ENDBRANCH  20  23
BRANCH  21  25
HETATM   25  C   UNL     1      41.340 -17.907   4.718  1.00  0.00     0.217 C 
BRANCH  25  26
HETATM   26  O   UNL     1      41.036 -16.606   5.232  1.00  0.00    -0.347 OA
BRANCH  26  27
HETATM   27  C   UNL     1      42.076 -15.882   5.741  1.00  0.00     0.069 A 
HETATM   28  C   UNL     1      42.059 -14.526   5.417  1.00  0.00     0.039 A 
HETATM   29  C   UNL     1      43.071 -13.668   5.862  1.00  0.00     0.032 A 
HETATM   30  C   UNL     1      44.125 -14.159   6.631  1.00  0.00     0.034 A 
HETATM   31  C   UNL     1      44.141 -15.523   6.952  1.00  0.00     0.032 A 
HETATM   32  C   UNL     1      43.125 -16.381   6.510  1.00  0.00     0.039 A 
BRANCH  30  33
HETATM   33  N   UNL     1      45.188 -13.368   7.114  1.00  0.00    -0.328 N 
HETATM   34  C   UNL     1      45.327 -12.831   8.381  1.00  0.00     0.218 C 
HETATM   35  C   UNL     1      46.596 -12.030   8.550  1.00  0.00     0.117 C 
HETATM   36  O   UNL     1      44.541 -12.946   9.316  1.00  0.00    -0.274 OA
HETATM   37  H   UNL     1      45.927 -13.170   6.451  1.00  0.00     0.169 HD
ENDBRANCH  30  33
ENDBRANCH  26  27
ENDBRANCH  25  26
ENDBRANCH  21  25
ENDBRANCH   1  17
BRANCH  15  38
HETATM   38  O   UNL     1      36.888 -10.382   2.168  1.00  0.00    -0.347 OA
BRANCH  38  39
HETATM   39  C   UNL     1      37.008  -9.289   3.074  1.00  0.00     0.214 C 
BRANCH  39  40
HETATM   40  C   UNL     1      35.624  -8.889   3.527  1.00  0.00    -0.034 A 
HETATM   41  C   UNL     1      35.411  -8.349   4.802  1.00  0.00     0.009 A 
HETATM   42  C   UNL     1      34.127  -7.978   5.207  1.00  0.00     0.001 A 
HETATM   43  C   UNL     1      33.045  -8.147   4.345  1.00  0.00     0.000 A 
HETATM   44  C   UNL     1      33.245  -8.690   3.077  1.00  0.00     0.001 A 
HETATM   45  C   UNL     1      34.526  -9.061   2.670  1.00  0.00     0.009 A 
ENDBRANCH  39  40
ENDBRANCH  38  39
ENDBRANCH  15  38
TORSDOF 9
ENDMDL
MODEL 5
REMARK VINA RESULT:      -8.3      4.936      9.308
REMARK  9 active torsions:
REMARK  status: ('A' for Active; 'I' for Inactive)
REMARK       I    between atoms: C_2  and  N_3 
REMARK    1  A    between atoms: N_3  and  C_4 
REMARK    2  A    between atoms: C_7  and  O_8 
REMARK    3  A    between atoms: O_8  and  C_9 
REMARK    4  A    between atoms: C_9  and  C_10 
REMARK    5  A    between atoms: C_11  and  O_12 
REMARK    6  A    between atoms: C_16  and  C_17 
REMARK    7  A    between atoms: C_31  and  O_32 
REMARK    8  A    between atoms: O_32  and  C_33 
REMARK    9  A    between atoms: C_33  and  C_34 
ROOT
HETATM    1  C   UNL     1      41.109 -10.546   4.331  1.00  0.00     0.269 C 
HETATM    2  N   UNL     1      41.329  -9.214   3.657  1.00  0.00    -0.061 N 
HETATM    3  H   UNL     1      40.409  -8.830   3.417  1.00  0.00     0.278 HD
HETATM    4  H   UNL     1      41.820  -9.380   2.772  1.00  0.00     0.278 HD
HETATM    5  C   UNL     1      42.072  -8.218   4.513  1.00  0.00     0.238 C 
HETATM    6  C   UNL     1      41.268  -7.866   5.779  1.00  0.00     0.069 C 
HETATM    7  C   UNL     1      40.697  -9.097   6.398  1.00  0.00    -0.019 A 
HETATM    8  C   UNL     1      40.605 -10.293   5.708  1.00  0.00     0.052 A 
HETATM    9  N   UNL     1      40.033 -11.222   6.540  1.00  0.00    -0.356 N 
HETATM   10  H   UNL     1      39.834 -12.191   6.317  1.00  0.00     0.166 HD
HETATM   11  C   UNL     1      39.764 -10.643   7.761  1.00  0.00     0.043 A 
HETATM   12  C   UNL     1      40.176  -9.310   7.704  1.00  0.00     0.002 A 
HETATM   13  C   UNL     1      39.193 -11.203   8.906  1.00  0.00     0.033 A 
HETATM   14  C   UNL     1      39.048 -10.376  10.024  1.00  0.00     0.039 A 
HETATM   15  C   UNL     1      39.458  -9.042  10.009  1.00  0.00     0.070 A 
HETATM   16  C   UNL     1      40.020  -8.496   8.848  1.00  0.00     0.051 A 
ENDROOT
BRANCH   1  17
HETATM   17  C   UNL     1      40.227 -11.444   3.491  1.00  0.00    -0.021 A 
HETATM   18  C   UNL     1      39.035 -10.995   2.909  1.00  0.00     0.012 A 
HETATM   19  C   UNL     1      38.254 -11.853   2.124  1.00  0.00     0.038 A 
HETATM   20  C   UNL     1      38.632 -13.184   1.924  1.00  0.00     0.076 A 
HETATM   21  C   UNL     1      39.800 -13.665   2.535  1.00  0.00    -0.000 A 
HETATM   22  C   UNL     1      40.596 -12.784   3.294  1.00  0.00     0.021 A 
BRANCH  20  23
HETATM   23  O   UNL     1      37.941 -14.082   1.159  1.00  0.00    -0.355 OA
HETATM   24  C   UNL     1      37.898 -13.872  -0.247  1.00  0.00     0.210 C 
ENDBRANCH  20  23
BRANCH  21  25
HETATM   25  C   UNL     1      40.236 -15.112   2.401  1.00  0.00     0.217 C 
BRANCH  25  26
HETATM   26  O   UNL     1      41.626 -15.113   2.062  1.00  0.00    -0.347 OA
BRANCH  26  27
HETATM   27  C   UNL     1      42.285 -16.307   2.145  1.00  0.00     0.069 A 
HETATM   28  C   UNL     1      42.039 -17.031   3.311  1.00  0.00     0.039 A 
HETATM   29  C   UNL     1      42.658 -18.266   3.533  1.00  0.00     0.032 A 
HETATM   30  C   UNL     1      43.542 -18.792   2.593  1.00  0.00     0.034 A 
HETATM   31  C   UNL     1      43.790 -18.061   1.424  1.00  0.00     0.032 A 
HETATM   32  C   UNL     1      43.167 -16.825   1.200  1.00  0.00     0.039 A 
BRANCH  30  33
HETATM   33  N   UNL     1      44.214 -20.024   2.740  1.00  0.00    -0.328 N 
HETATM   34  C   UNL     1      43.819 -21.258   2.256  1.00  0.00     0.218 C 
HETATM   35  C   UNL     1      44.782 -22.367   2.605  1.00  0.00     0.117 C 
HETATM   36  O   UNL     1      42.805 -21.502   1.610  1.00  0.00    -0.274 OA
HETATM   37  H   UNL     1      45.078 -19.995   3.266  1.00  0.00     0.169 HD
ENDBRANCH  30  33
ENDBRANCH  26  27
ENDBRANCH  25  26
ENDBRANCH  21  25
ENDBRANCH   1  17
BRANCH  15  38
HETATM   38  O   UNL     1      39.250  -8.378  11.187  1.00  0.00    -0.347 OA
BRANCH  38  39
HETATM   39  C   UNL     1      39.232  -9.151  12.385  1.00  0.00     0.214 C 
BRANCH  39  40
HETATM   40  C   UNL     1      40.635  -9.204  12.941  1.00  0.00    -0.034 A 
HETATM   41  C   UNL     1      41.417  -8.045  13.036  1.00  0.00     0.009 A 
HETATM   42  C   UNL     1      42.711  -8.106  13.557  1.00  0.00     0.001 A 
HETATM   43  C   UNL     1      43.236  -9.324  13.984  1.00  0.00     0.000 A 
HETATM   44  C   UNL     1      42.470 -10.484  13.887  1.00  0.00     0.001 A 
HETATM   45  C   UNL     1      41.177 -10.426  13.366  1.00  0.00     0.009 A 
ENDBRANCH  39  40
ENDBRANCH  38  39
ENDBRANCH  15  38
TORSDOF 9
ENDMDL
MODEL 6
REMARK VINA RESULT:      -8.1      5.534      9.872
REMARK  9 active torsions:
REMARK  status: ('A' for Active; 'I' for Inactive)
REMARK       I    between atoms: C_2  and  N_3 
REMARK    1  A    between atoms: N_3  and  C_4 
REMARK    2  A    between atoms: C_7  and  O_8 
REMARK    3  A    between atoms: O_8  and  C_9 
REMARK    4  A    between atoms: C_9  and  C_10 
REMARK    5  A    between atoms: C_11  and  O_12 
REMARK    6  A    between atoms: C_16  and  C_17 
REMARK    7  A    between atoms: C_31  and  O_32 
REMARK    8  A    between atoms: O_32  and  C_33 
REMARK    9  A    between atoms: C_33  and  C_34 
ROOT
HETATM    1  C   UNL     1      40.330  -9.724   5.539  1.00  0.00     0.269 C 
HETATM    2  N   UNL     1      38.972  -9.141   5.839  1.00  0.00    -0.061 N 
HETATM    3  H   UNL     1      38.359  -9.910   6.130  1.00  0.00     0.278 HD
HETATM    4  H   UNL     1      38.582  -8.770   4.965  1.00  0.00     0.278 HD
HETATM    5  C   UNL     1      38.990  -8.087   6.918  1.00  0.00     0.238 C 
HETATM    6  C   UNL     1      39.446  -8.681   8.265  1.00  0.00     0.069 C 
HETATM    7  C   UNL     1      40.629  -9.570   8.074  1.00  0.00    -0.019 A 
HETATM    8  C   UNL     1      40.989 -10.057   6.831  1.00  0.00     0.052 A 
HETATM    9  N   UNL     1      42.102 -10.843   6.988  1.00  0.00    -0.356 N 
HETATM   10  H   UNL     1      42.599 -11.340   6.257  1.00  0.00     0.166 HD
HETATM   11  C   UNL     1      42.470 -10.862   8.316  1.00  0.00     0.043 A 
HETATM   12  C   UNL     1      41.565 -10.065   9.022  1.00  0.00     0.002 A 
HETATM   13  C   UNL     1      43.534 -11.519   8.937  1.00  0.00     0.033 A 
HETATM   14  C   UNL     1      43.679 -11.348  10.317  1.00  0.00     0.039 A 
HETATM   15  C   UNL     1      42.803 -10.550  11.055  1.00  0.00     0.070 A 
HETATM   16  C   UNL     1      41.736  -9.907  10.416  1.00  0.00     0.051 A 
ENDROOT
BRANCH   1  17
HETATM   17  C   UNL     1      40.227 -10.879   4.567  1.00  0.00    -0.021 A 
HETATM   18  C   UNL     1      39.008 -11.286   4.011  1.00  0.00     0.012 A 
HETATM   19  C   UNL     1      38.955 -12.350   3.101  1.00  0.00     0.038 A 
HETATM   20  C   UNL     1      40.114 -13.046   2.745  1.00  0.00     0.076 A 
HETATM   21  C   UNL     1      41.339 -12.683   3.325  1.00  0.00    -0.000 A 
HETATM   22  C   UNL     1      41.385 -11.589   4.214  1.00  0.00     0.021 A 
BRANCH  20  23
HETATM   23  O   UNL     1      40.156 -14.082   1.854  1.00  0.00    -0.355 OA
HETATM   24  C   UNL     1      39.604 -15.331   2.252  1.00  0.00     0.210 C 
ENDBRANCH  20  23
BRANCH  21  25
HETATM   25  C   UNL     1      42.623 -13.433   3.024  1.00  0.00     0.217 C 
BRANCH  25  26
HETATM   26  O   UNL     1      42.808 -14.402   4.060  1.00  0.00    -0.347 OA
BRANCH  26  27
HETATM   27  C   UNL     1      43.001 -15.697   3.671  1.00  0.00     0.069 A 
HETATM   28  C   UNL     1      43.601 -15.850   2.421  1.00  0.00     0.039 A 
HETATM   29  C   UNL     1      43.846 -17.122   1.892  1.00  0.00     0.032 A 
HETATM   30  C   UNL     1      43.483 -18.264   2.605  1.00  0.00     0.034 A 
HETATM   31  C   UNL     1      42.877 -18.107   3.858  1.00  0.00     0.032 A 
HETATM   32  C   UNL     1      42.636 -16.833   4.389  1.00  0.00     0.039 A 
BRANCH  30  33
HETATM   33  N   UNL     1      43.686 -19.582   2.144  1.00  0.00    -0.328 N 
HETATM   34  C   UNL     1      44.476 -20.560   2.720  1.00  0.00     0.218 C 
HETATM   35  C   UNL     1      44.463 -21.861   1.953  1.00  0.00     0.117 C 
HETATM   36  O   UNL     1      45.148 -20.453   3.741  1.00  0.00    -0.274 OA
HETATM   37  H   UNL     1      43.200 -19.831   1.292  1.00  0.00     0.169 HD
ENDBRANCH  30  33
ENDBRANCH  26  27
ENDBRANCH  25  26
ENDBRANCH  21  25
ENDBRANCH   1  17
BRANCH  15  38
HETATM   38  O   UNL     1      43.092 -10.486  12.391  1.00  0.00    -0.347 OA
BRANCH  38  39
HETATM   39  C   UNL     1      42.101 -10.952  13.303  1.00  0.00     0.214 C 
BRANCH  39  40
HETATM   40  C   UNL     1      41.706  -9.807  14.205  1.00  0.00    -0.034 A 
HETATM   41  C   UNL     1      40.858  -8.789  13.748  1.00  0.00     0.009 A 
HETATM   42  C   UNL     1      40.495  -7.739  14.594  1.00  0.00     0.001 A 
HETATM   43  C   UNL     1      40.979  -7.694  15.900  1.00  0.00     0.000 A 
HETATM   44  C   UNL     1      41.829  -8.697  16.362  1.00  0.00     0.001 A 
HETATM   45  C   UNL     1      42.193  -9.747  15.520  1.00  0.00     0.009 A 
ENDBRANCH  39  40
ENDBRANCH  38  39
ENDBRANCH  15  38
TORSDOF 9
ENDMDL
MODEL 7
REMARK VINA RESULT:      -8.1      2.533      8.795
REMARK  9 active torsions:
REMARK  status: ('A' for Active; 'I' for Inactive)
REMARK       I    between atoms: C_2  and  N_3 
REMARK    1  A    between atoms: N_3  and  C_4 
REMARK    2  A    between atoms: C_7  and  O_8 
REMARK    3  A    between atoms: O_8  and  C_9 
REMARK    4  A    between atoms: C_9  and  C_10 
REMARK    5  A    between atoms: C_11  and  O_12 
REMARK    6  A    between atoms: C_16  and  C_17 
REMARK    7  A    between atoms: C_31  and  O_32 
REMARK    8  A    between atoms: O_32  and  C_33 
REMARK    9  A    between atoms: C_33  and  C_34 
ROOT
HETATM    1  C   UNL     1      41.151 -13.391   5.747  1.00  0.00     0.269 C 
HETATM    2  N   UNL     1      41.823 -12.061   5.988  1.00  0.00    -0.061 N 
HETATM    3  H   UNL     1      42.670 -12.030   5.411  1.00  0.00     0.278 HD
HETATM    4  H   UNL     1      42.131 -12.031   6.966  1.00  0.00     0.278 HD
HETATM    5  C   UNL     1      40.953 -10.874   5.655  1.00  0.00     0.238 C 
HETATM    6  C   UNL     1      40.604 -10.848   4.154  1.00  0.00     0.069 C 
HETATM    7  C   UNL     1      40.217 -12.208   3.680  1.00  0.00    -0.019 A 
HETATM    8  C   UNL     1      40.507 -13.349   4.405  1.00  0.00     0.052 A 
HETATM    9  N   UNL     1      40.034 -14.430   3.706  1.00  0.00    -0.356 N 
HETATM   10  H   UNL     1      40.097 -15.404   3.982  1.00  0.00     0.166 HD
HETATM   11  C   UNL     1      39.433 -14.000   2.543  1.00  0.00     0.043 A 
HETATM   12  C   UNL     1      39.528 -12.607   2.502  1.00  0.00     0.002 A 
HETATM   13  C   UNL     1      38.814 -14.739   1.533  1.00  0.00     0.033 A 
HETATM   14  C   UNL     1      38.270 -14.031   0.458  1.00  0.00     0.039 A 
HETATM   15  C   UNL     1      38.334 -12.639   0.387  1.00  0.00     0.070 A 
HETATM   16  C   UNL     1      38.968 -11.915   1.405  1.00  0.00     0.051 A 
ENDROOT
BRANCH   1  17
HETATM   17  C   UNL     1      42.118 -14.536   5.948  1.00  0.00    -0.021 A 
HETATM   18  C   UNL     1      43.413 -14.348   6.448  1.00  0.00     0.012 A 
HETATM   19  C   UNL     1      44.273 -15.437   6.636  1.00  0.00     0.038 A 
HETATM   20  C   UNL     1      43.871 -16.734   6.305  1.00  0.00     0.076 A 
HETATM   21  C   UNL     1      42.593 -16.939   5.761  1.00  0.00    -0.000 A 
HETATM   22  C   UNL     1      41.723 -15.840   5.608  1.00  0.00     0.021 A 
BRANCH  20  23
HETATM   23  O   UNL     1      44.638 -17.853   6.473  1.00  0.00    -0.355 OA
HETATM   24  C   UNL     1      44.584 -18.520   7.728  1.00  0.00     0.210 C 
ENDBRANCH  20  23
BRANCH  21  25
HETATM   25  C   UNL     1      42.116 -18.313   5.331  1.00  0.00     0.217 C 
BRANCH  25  26
HETATM   26  O   UNL     1      42.835 -18.665   4.144  1.00  0.00    -0.347 OA
BRANCH  26  27
HETATM   27  C   UNL     1      42.478 -18.027   2.990  1.00  0.00     0.069 A 
HETATM   28  C   UNL     1      43.531 -17.417   2.309  1.00  0.00     0.039 A 
HETATM   29  C   UNL     1      43.306 -16.716   1.119  1.00  0.00     0.032 A 
HETATM   30  C   UNL     1      42.018 -16.607   0.597  1.00  0.00     0.034 A 
HETATM   31  C   UNL     1      40.963 -17.218   1.285  1.00  0.00     0.032 A 
HETATM   32  C   UNL     1      41.188 -17.923   2.475  1.00  0.00     0.039 A 
BRANCH  30  33
HETATM   33  N   UNL     1      41.703 -15.914  -0.591  1.00  0.00    -0.328 N 
HETATM   34  C   UNL     1      41.665 -14.544  -0.779  1.00  0.00     0.218 C 
HETATM   35  C   UNL     1      41.284 -14.150  -2.186  1.00  0.00     0.117 C 
HETATM   36  O   UNL     1      41.899 -13.682   0.062  1.00  0.00    -0.274 OA
HETATM   37  H   UNL     1      41.474 -16.491  -1.390  1.00  0.00     0.169 HD
ENDBRANCH  30  33
ENDBRANCH  26  27
ENDBRANCH  25  26
ENDBRANCH  21  25
ENDBRANCH   1  17
BRANCH  15  38
HETATM   38  O   UNL     1      37.747 -12.105  -0.729  1.00  0.00    -0.347 OA
BRANCH  38  39
HETATM   39  C   UNL     1      38.095 -10.769  -1.081  1.00  0.00     0.214 C 
BRANCH  39  40
HETATM   40  C   UNL     1      39.242 -10.816  -2.062  1.00  0.00    -0.034 A 
HETATM   41  C   UNL     1      39.034 -11.187  -3.397  1.00  0.00     0.009 A 
HETATM   42  C   UNL     1      40.102 -11.221  -4.295  1.00  0.00     0.001 A 
HETATM   43  C   UNL     1      41.386 -10.889  -3.869  1.00  0.00     0.000 A 
HETATM   44  C   UNL     1      41.606 -10.525  -2.541  1.00  0.00     0.001 A 
HETATM   45  C   UNL     1      40.540 -10.490  -1.641  1.00  0.00     0.009 A 
ENDBRANCH  39  40
ENDBRANCH  38  39
ENDBRANCH  15  38
TORSDOF 9
ENDMDL
MODEL 8
REMARK VINA RESULT:      -8.1      3.332      6.943
REMARK  9 active torsions:
REMARK  status: ('A' for Active; 'I' for Inactive)
REMARK       I    between atoms: C_2  and  N_3 
REMARK    1  A    between atoms: N_3  and  C_4 
REMARK    2  A    between atoms: C_7  and  O_8 
REMARK    3  A    between atoms: O_8  and  C_9 
REMARK    4  A    between atoms: C_9  and  C_10 
REMARK    5  A    between atoms: C_11  and  O_12 
REMARK    6  A    between atoms: C_16  and  C_17 
REMARK    7  A    between atoms: C_31  and  O_32 
REMARK    8  A    between atoms: O_32  and  C_33 
REMARK    9  A    between atoms: C_33  and  C_34 
ROOT
HETATM    1  C   UNL     1      41.173 -11.045  -0.070  1.00  0.00     0.269 C 
HETATM    2  N   UNL     1      40.005 -10.095  -0.168  1.00  0.00    -0.061 N 
HETATM    3  H   UNL     1      39.146 -10.644  -0.060  1.00  0.00     0.278 HD
HETATM    4  H   UNL     1      39.988  -9.705  -1.117  1.00  0.00     0.278 HD
HETATM    5  C   UNL     1      40.027  -9.000   0.870  1.00  0.00     0.238 C 
HETATM    6  C   UNL     1      39.914  -9.583   2.292  1.00  0.00     0.069 C 
HETATM    7  C   UNL     1      40.804 -10.770   2.446  1.00  0.00    -0.019 A 
HETATM    8  C   UNL     1      41.335 -11.437   1.357  1.00  0.00     0.052 A 
HETATM    9  N   UNL     1      42.095 -12.478   1.824  1.00  0.00    -0.356 N 
HETATM   10  H   UNL     1      42.611 -13.149   1.265  1.00  0.00     0.166 HD
HETATM   11  C   UNL     1      42.069 -12.486   3.202  1.00  0.00     0.043 A 
HETATM   12  C   UNL     1      41.269 -11.420   3.621  1.00  0.00     0.002 A 
HETATM   13  C   UNL     1      42.695 -13.353   4.100  1.00  0.00     0.033 A 
HETATM   14  C   UNL     1      42.503 -13.115   5.464  1.00  0.00     0.039 A 
HETATM   15  C   UNL     1      41.721 -12.053   5.922  1.00  0.00     0.070 A 
HETATM   16  C   UNL     1      41.093 -11.201   5.006  1.00  0.00     0.051 A 
ENDROOT
BRANCH   1  17
HETATM   17  C   UNL     1      41.016 -12.204  -1.029  1.00  0.00    -0.021 A 
HETATM   18  C   UNL     1      40.695 -12.024  -2.380  1.00  0.00     0.012 A 
HETATM   19  C   UNL     1      40.575 -13.122  -3.241  1.00  0.00     0.038 A 
HETATM   20  C   UNL     1      40.747 -14.426  -2.767  1.00  0.00     0.076 A 
HETATM   21  C   UNL     1      41.026 -14.631  -1.407  1.00  0.00    -0.000 A 
HETATM   22  C   UNL     1      41.178 -13.516  -0.557  1.00  0.00     0.021 A 
BRANCH  20  23
HETATM   23  O   UNL     1      40.666 -15.552  -3.539  1.00  0.00    -0.355 OA
HETATM   24  C   UNL     1      39.384 -15.951  -4.007  1.00  0.00     0.210 C 
ENDBRANCH  20  23
BRANCH  21  25
HETATM   25  C   UNL     1      41.170 -16.023  -0.819  1.00  0.00     0.217 C 
BRANCH  25  26
HETATM   26  O   UNL     1      40.752 -15.957   0.548  1.00  0.00    -0.347 OA
BRANCH  26  27
HETATM   27  C   UNL     1      41.615 -16.453   1.484  1.00  0.00     0.069 A 
HETATM   28  C   UNL     1      41.032 -16.753   2.715  1.00  0.00     0.039 A 
HETATM   29  C   UNL     1      41.802 -17.256   3.770  1.00  0.00     0.032 A 
HETATM   30  C   UNL     1      43.172 -17.457   3.611  1.00  0.00     0.034 A 
HETATM   31  C   UNL     1      43.754 -17.151   2.375  1.00  0.00     0.032 A 
HETATM   32  C   UNL     1      42.983 -16.651   1.317  1.00  0.00     0.039 A 
BRANCH  30  33
HETATM   33  N   UNL     1      44.022 -17.952   4.623  1.00  0.00    -0.328 N 
HETATM   34  C   UNL     1      44.255 -17.398   5.868  1.00  0.00     0.218 C 
HETATM   35  C   UNL     1      45.231 -18.197   6.699  1.00  0.00     0.117 C 
HETATM   36  O   UNL     1      43.763 -16.367   6.316  1.00  0.00    -0.274 OA
HETATM   37  H   UNL     1      44.517 -18.807   4.403  1.00  0.00     0.169 HD
ENDBRANCH  30  33
ENDBRANCH  26  27
ENDBRANCH  25  26
ENDBRANCH  21  25
ENDBRANCH   1  17
BRANCH  15  38
HETATM   38  O   UNL     1      41.643 -11.961   7.286  1.00  0.00    -0.347 OA
BRANCH  38  39
HETATM   39  C   UNL     1      42.027 -10.725   7.885  1.00  0.00     0.214 C 
BRANCH  39  40
HETATM   40  C   UNL     1      43.124 -11.000   8.885  1.00  0.00    -0.034 A 
HETATM   41  C   UNL     1      44.135 -11.930   8.610  1.00  0.00     0.009 A 
HETATM   42  C   UNL     1      45.147 -12.171   9.541  1.00  0.00     0.001 A 
HETATM   43  C   UNL     1      45.157 -11.488  10.756  1.00  0.00     0.000 A 
HETATM   44  C   UNL     1      44.152 -10.566  11.043  1.00  0.00     0.001 A 
HETATM   45  C   UNL     1      43.140 -10.324  10.115  1.00  0.00     0.009 A 
ENDBRANCH  39  40
ENDBRANCH  38  39
ENDBRANCH  15  38
TORSDOF 9
ENDMDL
MODEL 9
REMARK VINA RESULT:      -7.9      3.729      7.096
REMARK  9 active torsions:
REMARK  status: ('A' for Active; 'I' for Inactive)
REMARK       I    between atoms: C_2  and  N_3 
REMARK    1  A    between atoms: N_3  and  C_4 
REMARK    2  A    between atoms: C_7  and  O_8 
REMARK    3  A    between atoms: O_8  and  C_9 
REMARK    4  A    between atoms: C_9  and  C_10 
REMARK    5  A    between atoms: C_11  and  O_12 
REMARK    6  A    between atoms: C_16  and  C_17 
REMARK    7  A    between atoms: C_31  and  O_32 
REMARK    8  A    between atoms: O_32  and  C_33 
REMARK    9  A    between atoms: C_33  and  C_34 
ROOT
HETATM    1  C   UNL     1      39.847 -12.415   1.975  1.00  0.00     0.269 C 
HETATM    2  N   UNL     1      39.058 -13.117   0.898  1.00  0.00    -0.061 N 
HETATM    3  H   UNL     1      39.704 -13.342   0.134  1.00  0.00     0.278 HD
HETATM    4  H   UNL     1      38.373 -12.454   0.519  1.00  0.00     0.278 HD
HETATM    5  C   UNL     1      38.387 -14.384   1.367  1.00  0.00     0.238 C 
HETATM    6  C   UNL     1      39.428 -15.432   1.808  1.00  0.00     0.069 C 
HETATM    7  C   UNL     1      40.488 -14.799   2.645  1.00  0.00    -0.019 A 
HETATM    8  C   UNL     1      40.680 -13.430   2.678  1.00  0.00     0.052 A 
HETATM    9  N   UNL     1      41.725 -13.166   3.525  1.00  0.00    -0.356 N 
HETATM   10  H   UNL     1      42.103 -12.253   3.753  1.00  0.00     0.166 HD
HETATM   11  C   UNL     1      42.205 -14.347   4.047  1.00  0.00     0.043 A 
HETATM   12  C   UNL     1      41.442 -15.391   3.517  1.00  0.00     0.002 A 
HETATM   13  C   UNL     1      43.249 -14.565   4.949  1.00  0.00     0.033 A 
HETATM   14  C   UNL     1      43.513 -15.885   5.322  1.00  0.00     0.039 A 
HETATM   15  C   UNL     1      42.765 -16.953   4.823  1.00  0.00     0.070 A 
HETATM   16  C   UNL     1      41.728 -16.717   3.913  1.00  0.00     0.051 A 
ENDROOT
BRANCH   1  17
HETATM   17  C   UNL     1      40.621 -11.244   1.411  1.00  0.00    -0.021 A 
HETATM   18  C   UNL     1      40.365  -9.921   1.793  1.00  0.00     0.012 A 
HETATM   19  C   UNL     1      41.115  -8.864   1.261  1.00  0.00     0.038 A 
HETATM   20  C   UNL     1      42.119  -9.102   0.317  1.00  0.00     0.076 A 
HETATM   21  C   UNL     1      42.360 -10.416  -0.112  1.00  0.00    -0.000 A 
HETATM   22  C   UNL     1      41.623 -11.475   0.456  1.00  0.00     0.021 A 
BRANCH  20  23
HETATM   23  O   UNL     1      42.909  -8.135  -0.239  1.00  0.00    -0.355 OA
HETATM   24  C   UNL     1      43.690  -7.326   0.632  1.00  0.00     0.210 C 
ENDBRANCH  20  23
BRANCH  21  25
HETATM   25  C   UNL     1      43.397 -10.735  -1.173  1.00  0.00     0.217 C 
BRANCH  25  26
HETATM   26  O   UNL     1      42.891 -11.821  -1.956  1.00  0.00    -0.347 OA
BRANCH  26  27
HETATM   27  C   UNL     1      42.048 -11.504  -2.983  1.00  0.00     0.069 A 
HETATM   28  C   UNL     1      42.612 -10.703  -3.976  1.00  0.00     0.039 A 
HETATM   29  C   UNL     1      41.858 -10.291  -5.081  1.00  0.00     0.032 A 
HETATM   30  C   UNL     1      40.522 -10.669  -5.204  1.00  0.00     0.034 A 
HETATM   31  C   UNL     1      39.958 -11.472  -4.203  1.00  0.00     0.032 A 
HETATM   32  C   UNL     1      40.714 -11.887  -3.099  1.00  0.00     0.039 A 
BRANCH  30  33
HETATM   33  N   UNL     1      39.689 -10.294  -6.279  1.00  0.00    -0.328 N 
HETATM   34  C   UNL     1      38.994  -9.107  -6.427  1.00  0.00     0.218 C 
HETATM   35  C   UNL     1      38.195  -9.045  -7.708  1.00  0.00     0.117 C 
HETATM   36  O   UNL     1      38.975  -8.165  -5.642  1.00  0.00    -0.274 OA
HETATM   37  H   UNL     1      39.589 -10.977  -7.019  1.00  0.00     0.169 HD
ENDBRANCH  30  33
ENDBRANCH  26  27
ENDBRANCH  25  26
ENDBRANCH  21  25
ENDBRANCH   1  17
BRANCH  15  38
HETATM   38  O   UNL     1      43.152 -18.178   5.297  1.00  0.00    -0.347 OA
BRANCH  38  39
HETATM   39  C   UNL     1      44.465 -18.627   4.971  1.00  0.00     0.214 C 
BRANCH  39  40
HETATM   40  C   UNL     1      44.350 -19.784   4.009  1.00  0.00    -0.034 A 
HETATM   41  C   UNL     1      43.786 -19.613   2.738  1.00  0.00     0.009 A 
HETATM   42  C   UNL     1      43.690 -20.691   1.856  1.00  0.00     0.001 A 
HETATM   43  C   UNL     1      44.153 -21.949   2.236  1.00  0.00     0.000 A 
HETATM   44  C   UNL     1      44.709 -22.133   3.500  1.00  0.00     0.001 A 
HETATM   45  C   UNL     1      44.806 -21.058   4.384  1.00  0.00     0.009 A 
ENDBRANCH  39  40
ENDBRANCH  38  39
ENDBRANCH  15  38
TORSDOF 9
ENDMDL
MODEL 10
REMARK VINA RESULT:      -7.9      5.348     10.846
REMARK  9 active torsions:
REMARK  status: ('A' for Active; 'I' for Inactive)
REMARK       I    between atoms: C_2  and  N_3 
REMARK    1  A    between atoms: N_3  and  C_4 
REMARK    2  A    between atoms: C_7  and  O_8 
REMARK    3  A    between atoms: O_8  and  C_9 
REMARK    4  A    between atoms: C_9  and  C_10 
REMARK    5  A    between atoms: C_11  and  O_12 
REMARK    6  A    between atoms: C_16  and  C_17 
REMARK    7  A    between atoms: C_31  and  O_32 
REMARK    8  A    between atoms: O_32  and  C_33 
REMARK    9  A    between atoms: C_33  and  C_34 
ROOT
HETATM    1  C   UNL     1      42.286 -12.612   5.751  1.00  0.00     0.269 C 
HETATM    2  N   UNL     1      40.916 -12.708   5.126  1.00  0.00    -0.061 N 
HETATM    3  H   UNL     1      40.374 -13.391   5.665  1.00  0.00     0.278 HD
HETATM    4  H   UNL     1      41.022 -13.096   4.182  1.00  0.00     0.278 HD
HETATM    5  C   UNL     1      40.171 -11.397   5.095  1.00  0.00     0.238 C 
HETATM    6  C   UNL     1      39.894 -10.883   6.521  1.00  0.00     0.069 C 
HETATM    7  C   UNL     1      41.106 -11.029   7.377  1.00  0.00    -0.019 A 
HETATM    8  C   UNL     1      42.164 -11.846   7.021  1.00  0.00     0.052 A 
HETATM    9  N   UNL     1      43.111 -11.771   8.010  1.00  0.00    -0.356 N 
HETATM   10  H   UNL     1      44.000 -12.260   8.035  1.00  0.00     0.166 HD
HETATM   11  C   UNL     1      42.682 -10.909   8.995  1.00  0.00     0.043 A 
HETATM   12  C   UNL     1      41.427 -10.422   8.622  1.00  0.00     0.002 A 
HETATM   13  C   UNL     1      43.313 -10.524  10.180  1.00  0.00     0.033 A 
HETATM   14  C   UNL     1      42.644  -9.610  10.999  1.00  0.00     0.039 A 
HETATM   15  C   UNL     1      41.395  -9.093  10.654  1.00  0.00     0.070 A 
HETATM   16  C   UNL     1      40.773  -9.497   9.467  1.00  0.00     0.051 A 
ENDROOT
BRANCH   1  17
HETATM   17  C   UNL     1      42.918 -13.978   5.896  1.00  0.00    -0.021 A 
HETATM   18  C   UNL     1      44.100 -14.187   6.618  1.00  0.00     0.012 A 
HETATM   19  C   UNL     1      44.646 -15.470   6.744  1.00  0.00     0.038 A 
HETATM   20  C   UNL     1      44.039 -16.570   6.131  1.00  0.00     0.076 A 
HETATM   21  C   UNL     1      42.879 -16.376   5.365  1.00  0.00    -0.000 A 
HETATM   22  C   UNL     1      42.319 -15.085   5.274  1.00  0.00     0.021 A 
BRANCH  20  23
HETATM   23  O   UNL     1      44.492 -17.857   6.216  1.00  0.00    -0.355 OA
HETATM   24  C   UNL     1      44.156 -18.610   7.376  1.00  0.00     0.210 C 
ENDBRANCH  20  23
BRANCH  21  25
HETATM   25  C   UNL     1      42.203 -17.518   4.630  1.00  0.00     0.217 C 
BRANCH  25  26
HETATM   26  O   UNL     1      40.971 -17.019   4.100  1.00  0.00    -0.347 OA
BRANCH  26  27
HETATM   27  C   UNL     1      40.991 -16.557   2.814  1.00  0.00     0.069 A 
HETATM   28  C   UNL     1      41.940 -17.161   1.990  1.00  0.00     0.039 A 
HETATM   29  C   UNL     1      42.079 -16.775   0.652  1.00  0.00     0.032 A 
HETATM   30  C   UNL     1      41.274 -15.768   0.120  1.00  0.00     0.034 A 
HETATM   31  C   UNL     1      40.324 -15.162   0.952  1.00  0.00     0.032 A 
HETATM   32  C   UNL     1      40.182 -15.551   2.291  1.00  0.00     0.039 A 
BRANCH  30  33
HETATM   33  N   UNL     1      41.352 -15.314  -1.213  1.00  0.00    -0.328 N 
HETATM   34  C   UNL     1      41.718 -14.054  -1.649  1.00  0.00     0.218 C 
HETATM   35  C   UNL     1      41.689 -13.916  -3.153  1.00  0.00     0.117 C 
HETATM   36  O   UNL     1      42.037 -13.099  -0.948  1.00  0.00    -0.274 OA
HETATM   37  H   UNL     1      41.107 -15.990  -1.924  1.00  0.00     0.169 HD
ENDBRANCH  30  33
ENDBRANCH  26  27
ENDBRANCH  25  26
ENDBRANCH  21  25
ENDBRANCH   1  17
BRANCH  15  38
HETATM   38  O   UNL     1      40.884  -8.206  11.564  1.00  0.00    -0.347 OA
BRANCH  38  39
HETATM   39  C   UNL     1      39.984  -8.714  12.545  1.00  0.00     0.214 C 
BRANCH  39  40
HETATM   40  C   UNL     1      40.689  -8.724  13.880  1.00  0.00    -0.034 A 
HETATM   41  C   UNL     1      40.699  -7.586  14.699  1.00  0.00     0.009 A 
HETATM   42  C   UNL     1      41.350  -7.609  15.934  1.00  0.00     0.001 A 
HETATM   43  C   UNL     1      41.998  -8.766  16.361  1.00  0.00     0.000 A 
HETATM   44  C   UNL     1      42.001  -9.901  15.552  1.00  0.00     0.001 A 
HETATM   45  C   UNL     1      41.352  -9.880  14.318  1.00  0.00     0.009 A 
ENDBRANCH  39  40
ENDBRANCH  38  39
ENDBRANCH  15  38
TORSDOF 9
ENDMDL
