MODEL 1
REMARK VINA RESULT:      -8.4      0.000      0.000
REMARK  9 active torsions:
REMARK  status: ('A' for Active; 'I' for Inactive)
REMARK    1  A    between atoms: C_3  and  N_4 
REMARK       I    between atoms: N_4  and  C_5 
REMARK    2  A    between atoms: C_5  and  C_6 
REMARK    3  A    between atoms: C_6  and  O_7 
REMARK    4  A    between atoms: O_7  and  C_8 
REMARK    5  A    between atoms: C_8  and  C_9 
REMARK    6  A    between atoms: C_9  and  N_10 
REMARK    7  A    between atoms: C_9  and  C_18 
REMARK       I    between atoms: N_10  and  C_11 
REMARK    8  A    between atoms: C_11  and  C_12 
REMARK    9  A    between atoms: C_18  and  C_19 
ROOT
HETATM    1  C   UNL     1      43.721 -16.673   6.103  1.00  0.00     0.189 C 
ENDROOT
BRANCH   1   2
HETATM    2  C   UNL     1      42.415 -17.219   6.703  1.00  0.00     0.282 C 
HETATM    3  O   UNL     1      42.317 -17.752   7.805  1.00  0.00    -0.263 OA
BRANCH   2   4
HETATM    4  O   UNL     1      41.367 -17.013   5.863  1.00  0.00    -0.311 OA
BRANCH   4   5
HETATM    5  C   UNL     1      40.883 -15.675   5.771  1.00  0.00     0.281 C 
BRANCH   5   6
HETATM    6  C   UNL     1      40.539 -15.143   4.367  1.00  0.00     0.246 C 
HETATM    7  N   UNL     1      41.514 -15.428   3.426  1.00  0.00    -0.324 N 
HETATM    8  H   UNL     1      42.387 -15.787   3.811  1.00  0.00     0.169 HD
HETATM    9  O   UNL     1      39.545 -14.445   4.188  1.00  0.00    -0.271 OA
BRANCH   7  10
HETATM   10  C   UNL     1      41.563 -14.991   2.083  1.00  0.00     0.046 A 
HETATM   11  C   UNL     1      41.228 -15.942   1.085  1.00  0.00    -0.035 A 
HETATM   12  C   UNL     1      40.883 -17.370   1.418  1.00  0.00     0.050 C 
HETATM   13  C   UNL     1      41.246 -15.568  -0.268  1.00  0.00     0.009 A 
HETATM   14  C   UNL     1      41.592 -14.275  -0.640  1.00  0.00     0.001 A 
HETATM   15  C   UNL     1      41.897 -13.335   0.338  1.00  0.00     0.009 A 
HETATM   16  C   UNL     1      41.859 -13.664   1.707  1.00  0.00    -0.035 A 
HETATM   17  C   UNL     1      42.085 -12.539   2.678  1.00  0.00     0.050 C 
ENDBRANCH   7  10
ENDBRANCH   5   6
ENDBRANCH   4   5
ENDBRANCH   2   4
ENDBRANCH   1   2
BRANCH   1  18
HETATM   18  N   UNL     1      44.256 -15.597   6.932  1.00  0.00    -0.341 N 
HETATM   19  C   UNL     1      44.378 -14.316   6.431  1.00  0.00     0.276 C 
HETATM   20  O   UNL     1      43.842 -13.976   5.380  1.00  0.00    -0.265 OA
HETATM   21  H   UNL     1      44.864 -15.824   7.713  1.00  0.00     0.163 HD
BRANCH  19  22
HETATM   22  C   UNL     1      45.214 -13.437   7.219  1.00  0.00     0.142 A 
HETATM   23  O   UNL     1      46.452 -13.078   6.750  1.00  0.00    -0.317 OA
HETATM   24  C   UNL     1      46.993 -12.231   7.665  1.00  0.00     0.143 A 
HETATM   25  C   UNL     1      46.131 -12.039   8.718  1.00  0.00     0.027 A 
HETATM   26  C   UNL     1      44.983 -12.816   8.432  1.00  0.00     0.045 A 
ENDBRANCH  19  22
ENDBRANCH   1  18
BRANCH   1  27
HETATM   27  C   UNL     1      44.700 -17.858   5.993  1.00  0.00     0.074 C 
BRANCH  27  28
HETATM   28  C   UNL     1      44.511 -18.773   4.801  1.00  0.00    -0.056 A 
HETATM   29  C   UNL     1      44.009 -18.242   3.603  1.00  0.00     0.007 A 
HETATM   30  C   UNL     1      43.854 -19.047   2.474  1.00  0.00     0.001 A 
HETATM   31  C   UNL     1      44.207 -20.392   2.526  1.00  0.00     0.000 A 
HETATM   32  C   UNL     1      44.720 -20.929   3.705  1.00  0.00     0.001 A 
HETATM   33  C   UNL     1      44.878 -20.124   4.835  1.00  0.00     0.007 A 
ENDBRANCH  27  28
ENDBRANCH   1  27
TORSDOF 9
ENDMDL
MODEL 2
REMARK VINA RESULT:      -8.2      2.244      2.936
REMARK  9 active torsions:
REMARK  status: ('A' for Active; 'I' for Inactive)
REMARK    1  A    between atoms: C_3  and  N_4 
REMARK       I    between atoms: N_4  and  C_5 
REMARK    2  A    between atoms: C_5  and  C_6 
REMARK    3  A    between atoms: C_6  and  O_7 
REMARK    4  A    between atoms: O_7  and  C_8 
REMARK    5  A    between atoms: C_8  and  C_9 
REMARK    6  A    between atoms: C_9  and  N_10 
REMARK    7  A    between atoms: C_9  and  C_18 
REMARK       I    between atoms: N_10  and  C_11 
REMARK    8  A    between atoms: C_11  and  C_12 
REMARK    9  A    between atoms: C_18  and  C_19 
ROOT
HETATM    1  C   UNL     1      43.838 -15.545   6.709  1.00  0.00     0.189 C 
ENDROOT
BRANCH   1   2
HETATM    2  C   UNL     1      42.758 -15.291   5.645  1.00  0.00     0.282 C 
HETATM    3  O   UNL     1      41.549 -15.276   5.860  1.00  0.00    -0.263 OA
BRANCH   2   4
HETATM    4  O   UNL     1      43.316 -15.056   4.429  1.00  0.00    -0.311 OA
BRANCH   4   5
HETATM    5  C   UNL     1      43.337 -13.698   3.994  1.00  0.00     0.281 C 
BRANCH   5   6
HETATM    6  C   UNL     1      42.309 -13.281   2.926  1.00  0.00     0.246 C 
HETATM    7  N   UNL     1      41.001 -13.526   3.309  1.00  0.00    -0.324 N 
HETATM    8  H   UNL     1      40.902 -14.096   4.148  1.00  0.00     0.169 HD
HETATM    9  O   UNL     1      42.677 -12.885   1.823  1.00  0.00    -0.271 OA
BRANCH   7  10
HETATM   10  C   UNL     1      39.835 -13.366   2.528  1.00  0.00     0.046 A 
HETATM   11  C   UNL     1      39.296 -14.533   1.928  1.00  0.00    -0.035 A 
HETATM   12  C   UNL     1      39.952 -15.882   2.064  1.00  0.00     0.050 C 
HETATM   13  C   UNL     1      38.132 -14.442   1.148  1.00  0.00     0.009 A 
HETATM   14  C   UNL     1      37.503 -13.219   0.955  1.00  0.00     0.001 A 
HETATM   15  C   UNL     1      38.015 -12.078   1.563  1.00  0.00     0.009 A 
HETATM   16  C   UNL     1      39.163 -12.134   2.377  1.00  0.00    -0.035 A 
HETATM   17  C   UNL     1      39.554 -10.864   3.081  1.00  0.00     0.050 C 
ENDBRANCH   7  10
ENDBRANCH   5   6
ENDBRANCH   4   5
ENDBRANCH   2   4
ENDBRANCH   1   2
BRANCH   1  18
HETATM   18  N   UNL     1      43.931 -14.414   7.627  1.00  0.00    -0.341 N 
HETATM   19  C   UNL     1      45.025 -13.572   7.597  1.00  0.00     0.276 C 
HETATM   20  O   UNL     1      45.834 -13.590   6.674  1.00  0.00    -0.265 OA
HETATM   21  H   UNL     1      43.416 -14.436   8.503  1.00  0.00     0.163 HD
BRANCH  19  22
HETATM   22  C   UNL     1      45.154 -12.710   8.753  1.00  0.00     0.142 A 
HETATM   23  O   UNL     1      44.559 -13.068   9.935  1.00  0.00    -0.317 OA
HETATM   24  C   UNL     1      44.871 -12.106  10.844  1.00  0.00     0.143 A 
HETATM   25  C   UNL     1      45.652 -11.132  10.271  1.00  0.00     0.027 A 
HETATM   26  C   UNL     1      45.836 -11.519   8.923  1.00  0.00     0.045 A 
ENDBRANCH  19  22
ENDBRANCH   1  18
BRANCH   1  27
HETATM   27  C   UNL     1      43.457 -16.849   7.439  1.00  0.00     0.074 C 
BRANCH  27  28
HETATM   28  C   UNL     1      43.857 -18.139   6.753  1.00  0.00    -0.056 A 
HETATM   29  C   UNL     1      43.542 -19.364   7.361  1.00  0.00     0.007 A 
HETATM   30  C   UNL     1      43.863 -20.572   6.741  1.00  0.00     0.001 A 
HETATM   31  C   UNL     1      44.497 -20.572   5.502  1.00  0.00     0.000 A 
HETATM   32  C   UNL     1      44.803 -19.362   4.881  1.00  0.00     0.001 A 
HETATM   33  C   UNL     1      44.479 -18.152   5.498  1.00  0.00     0.007 A 
ENDBRANCH  27  28
ENDBRANCH   1  27
TORSDOF 9
ENDMDL
MODEL 3
REMARK VINA RESULT:      -8.1      1.792      3.113
REMARK  9 active torsions:
REMARK  status: ('A' for Active; 'I' for Inactive)
REMARK    1  A    between atoms: C_3  and  N_4 
REMARK       I    between atoms: N_4  and  C_5 
REMARK    2  A    between atoms: C_5  and  C_6 
REMARK    3  A    between atoms: C_6  and  O_7 
REMARK    4  A    between atoms: O_7  and  C_8 
REMARK    5  A    between atoms: C_8  and  C_9 
REMARK    6  A    between atoms: C_9  and  N_10 
REMARK    7  A    between atoms: C_9  and  C_18 
REMARK       I    between atoms: N_10  and  C_11 
REMARK    8  A    between atoms: C_11  and  C_12 
REMARK    9  A    between atoms: C_18  and  C_19 
ROOT
HETATM    1  C   UNL     1      44.037 -14.617   6.100  1.00  0.00     0.189 C 
ENDROOT
BRANCH   1   2
HETATM    2  C   UNL     1      43.609 -13.916   4.801  1.00  0.00     0.282 C 
HETATM    3  O   UNL     1      44.366 -13.623   3.878  1.00  0.00    -0.263 OA
BRANCH   2   4
HETATM    4  O   UNL     1      42.271 -13.683   4.788  1.00  0.00    -0.311 OA
BRANCH   4   5
HETATM    5  C   UNL     1      41.802 -12.736   3.832  1.00  0.00     0.281 C 
BRANCH   5   6
HETATM    6  C   UNL     1      41.122 -13.287   2.564  1.00  0.00     0.246 C 
HETATM    7  N   UNL     1      42.024 -13.608   1.563  1.00  0.00    -0.324 N 
HETATM    8  H   UNL     1      42.975 -13.281   1.725  1.00  0.00     0.169 HD
HETATM    9  O   UNL     1      39.898 -13.307   2.468  1.00  0.00    -0.271 OA
BRANCH   7  10
HETATM   10  C   UNL     1      41.728 -14.028   0.247  1.00  0.00     0.046 A 
HETATM   11  C   UNL     1      41.905 -13.075  -0.789  1.00  0.00    -0.035 A 
HETATM   12  C   UNL     1      42.338 -11.659  -0.512  1.00  0.00     0.050 C 
HETATM   13  C   UNL     1      41.639 -13.433  -2.120  1.00  0.00     0.009 A 
HETATM   14  C   UNL     1      41.202 -14.714  -2.433  1.00  0.00     0.001 A 
HETATM   15  C   UNL     1      41.052 -15.658  -1.423  1.00  0.00     0.009 A 
HETATM   16  C   UNL     1      41.338 -15.344  -0.080  1.00  0.00    -0.035 A 
HETATM   17  C   UNL     1      41.260 -16.475   0.908  1.00  0.00     0.050 C 
ENDBRANCH   7  10
ENDBRANCH   5   6
ENDBRANCH   4   5
ENDBRANCH   2   4
ENDBRANCH   1   2
BRANCH   1  18
HETATM   18  N   UNL     1      44.006 -13.682   7.221  1.00  0.00    -0.341 N 
HETATM   19  C   UNL     1      45.170 -13.097   7.682  1.00  0.00     0.276 C 
HETATM   20  O   UNL     1      46.218 -13.147   7.045  1.00  0.00    -0.265 OA
HETATM   21  H   UNL     1      43.242 -13.727   7.889  1.00  0.00     0.163 HD
BRANCH  19  22
HETATM   22  C   UNL     1      45.055 -12.466   8.978  1.00  0.00     0.142 A 
HETATM   23  O   UNL     1      44.395 -13.114   9.992  1.00  0.00    -0.317 OA
HETATM   24  C   UNL     1      44.472 -12.317  11.090  1.00  0.00     0.143 A 
HETATM   25  C   UNL     1      45.165 -11.165  10.805  1.00  0.00     0.027 A 
HETATM   26  C   UNL     1      45.542 -11.259   9.445  1.00  0.00     0.045 A 
ENDBRANCH  19  22
ENDBRANCH   1  18
BRANCH   1  27
HETATM   27  C   UNL     1      43.076 -15.804   6.313  1.00  0.00     0.074 C 
BRANCH  27  28
HETATM   28  C   UNL     1      43.455 -17.100   5.630  1.00  0.00    -0.056 A 
HETATM   29  C   UNL     1      42.746 -17.507   4.489  1.00  0.00     0.007 A 
HETATM   30  C   UNL     1      43.090 -18.677   3.812  1.00  0.00     0.001 A 
HETATM   31  C   UNL     1      44.154 -19.453   4.263  1.00  0.00     0.000 A 
HETATM   32  C   UNL     1      44.876 -19.054   5.386  1.00  0.00     0.001 A 
HETATM   33  C   UNL     1      44.535 -17.881   6.062  1.00  0.00     0.007 A 
ENDBRANCH  27  28
ENDBRANCH   1  27
TORSDOF 9
ENDMDL
MODEL 4
REMARK VINA RESULT:      -7.9      4.361      8.360
REMARK  9 active torsions:
REMARK  status: ('A' for Active; 'I' for Inactive)
REMARK    1  A    between atoms: C_3  and  N_4 
REMARK       I    between atoms: N_4  and  C_5 
REMARK    2  A    between atoms: C_5  and  C_6 
REMARK    3  A    between atoms: C_6  and  O_7 
REMARK    4  A    between atoms: O_7  and  C_8 
REMARK    5  A    between atoms: C_8  and  C_9 
REMARK    6  A    between atoms: C_9  and  N_10 
REMARK    7  A    between atoms: C_9  and  C_18 
REMARK       I    between atoms: N_10  and  C_11 
REMARK    8  A    between atoms: C_11  and  C_12 
REMARK    9  A    between atoms: C_18  and  C_19 
ROOT
HETATM    1  C   UNL     1      44.122 -11.153   9.956  1.00  0.00     0.189 C 
ENDROOT
BRANCH   1   2
HETATM    2  C   UNL     1      44.709 -12.559  10.157  1.00  0.00     0.282 C 
HETATM    3  O   UNL     1      45.438 -12.890  11.088  1.00  0.00    -0.263 OA
BRANCH   2   4
HETATM    4  O   UNL     1      44.295 -13.407   9.179  1.00  0.00    -0.311 OA
BRANCH   4   5
HETATM    5  C   UNL     1      44.943 -13.282   7.916  1.00  0.00     0.281 C 
BRANCH   5   6
HETATM    6  C   UNL     1      44.324 -14.038   6.725  1.00  0.00     0.246 C 
HETATM    7  N   UNL     1      43.623 -15.168   7.107  1.00  0.00    -0.324 N 
HETATM    8  H   UNL     1      43.752 -15.443   8.080  1.00  0.00     0.169 HD
HETATM    9  O   UNL     1      44.561 -13.690   5.571  1.00  0.00    -0.271 OA
BRANCH   7  10
HETATM   10  C   UNL     1      43.033 -16.137   6.264  1.00  0.00     0.046 A 
HETATM   11  C   UNL     1      43.745 -17.350   6.080  1.00  0.00    -0.035 A 
HETATM   12  C   UNL     1      45.095 -17.592   6.705  1.00  0.00     0.050 C 
HETATM   13  C   UNL     1      43.209 -18.357   5.262  1.00  0.00     0.009 A 
HETATM   14  C   UNL     1      41.985 -18.177   4.629  1.00  0.00     0.001 A 
HETATM   15  C   UNL     1      41.273 -16.999   4.829  1.00  0.00     0.009 A 
HETATM   16  C   UNL     1      41.765 -15.979   5.665  1.00  0.00    -0.035 A 
HETATM   17  C   UNL     1      40.856 -14.805   5.905  1.00  0.00     0.050 C 
ENDBRANCH   7  10
ENDBRANCH   5   6
ENDBRANCH   4   5
ENDBRANCH   2   4
ENDBRANCH   1   2
BRANCH   1  18
HETATM   18  N   UNL     1      42.665 -11.211   9.884  1.00  0.00    -0.341 N 
HETATM   19  C   UNL     1      41.976 -10.460   8.952  1.00  0.00     0.276 C 
HETATM   20  O   UNL     1      42.544  -9.907   8.014  1.00  0.00    -0.265 OA
HETATM   21  H   UNL     1      42.134 -11.489  10.705  1.00  0.00     0.163 HD
BRANCH  19  22
HETATM   22  C   UNL     1      40.555 -10.350   9.198  1.00  0.00     0.142 A 
HETATM   23  O   UNL     1      40.098  -9.482  10.157  1.00  0.00    -0.317 OA
HETATM   24  C   UNL     1      38.741  -9.558  10.149  1.00  0.00     0.143 A 
HETATM   25  C   UNL     1      38.312 -10.461   9.205  1.00  0.00     0.027 A 
HETATM   26  C   UNL     1      39.479 -10.972   8.592  1.00  0.00     0.045 A 
ENDBRANCH  19  22
ENDBRANCH   1  18
BRANCH   1  27
HETATM   27  C   UNL     1      44.607 -10.286  11.134  1.00  0.00     0.074 C 
BRANCH  27  28
HETATM   28  C   UNL     1      43.548  -9.855  12.126  1.00  0.00    -0.056 A 
HETATM   29  C   UNL     1      43.199 -10.719  13.176  1.00  0.00     0.007 A 
HETATM   30  C   UNL     1      42.253 -10.341  14.129  1.00  0.00     0.001 A 
HETATM   31  C   UNL     1      41.648  -9.090  14.050  1.00  0.00     0.000 A 
HETATM   32  C   UNL     1      41.995  -8.216  13.021  1.00  0.00     0.001 A 
HETATM   33  C   UNL     1      42.944  -8.592  12.068  1.00  0.00     0.007 A 
ENDBRANCH  27  28
ENDBRANCH   1  27
TORSDOF 9
ENDMDL
MODEL 5
REMARK VINA RESULT:      -7.9      2.628      7.412
REMARK  9 active torsions:
REMARK  status: ('A' for Active; 'I' for Inactive)
REMARK    1  A    between atoms: C_3  and  N_4 
REMARK       I    between atoms: N_4  and  C_5 
REMARK    2  A    between atoms: C_5  and  C_6 
REMARK    3  A    between atoms: C_6  and  O_7 
REMARK    4  A    between atoms: O_7  and  C_8 
REMARK    5  A    between atoms: C_8  and  C_9 
REMARK    6  A    between atoms: C_9  and  N_10 
REMARK    7  A    between atoms: C_9  and  C_18 
REMARK       I    between atoms: N_10  and  C_11 
REMARK    8  A    between atoms: C_11  and  C_12 
REMARK    9  A    between atoms: C_18  and  C_19 
ROOT
HETATM    1  C   UNL     1      42.117 -12.791   2.346  1.00  0.00     0.189 C 
ENDROOT
BRANCH   1   2
HETATM    2  C   UNL     1      42.971 -13.492   3.414  1.00  0.00     0.282 C 
HETATM    3  O   UNL     1      44.189 -13.642   3.353  1.00  0.00    -0.263 OA
BRANCH   2   4
HETATM    4  O   UNL     1      42.206 -13.908   4.457  1.00  0.00    -0.311 OA
BRANCH   4   5
HETATM    5  C   UNL     1      42.812 -14.831   5.358  1.00  0.00     0.281 C 
BRANCH   5   6
HETATM    6  C   UNL     1      42.677 -16.331   5.032  1.00  0.00     0.246 C 
HETATM    7  N   UNL     1      43.681 -16.796   4.200  1.00  0.00    -0.324 N 
HETATM    8  H   UNL     1      44.261 -16.069   3.783  1.00  0.00     0.169 HD
HETATM    9  O   UNL     1      41.695 -16.967   5.405  1.00  0.00    -0.271 OA
BRANCH   7  10
HETATM   10  C   UNL     1      43.790 -18.082   3.625  1.00  0.00     0.046 A 
HETATM   11  C   UNL     1      44.416 -19.086   4.408  1.00  0.00    -0.035 A 
HETATM   12  C   UNL     1      44.990 -18.801   5.771  1.00  0.00     0.050 C 
HETATM   13  C   UNL     1      44.546 -20.388   3.898  1.00  0.00     0.009 A 
HETATM   14  C   UNL     1      44.069 -20.702   2.631  1.00  0.00     0.001 A 
HETATM   15  C   UNL     1      43.433 -19.726   1.873  1.00  0.00     0.009 A 
HETATM   16  C   UNL     1      43.257 -18.417   2.363  1.00  0.00    -0.035 A 
HETATM   17  C   UNL     1      42.447 -17.480   1.509  1.00  0.00     0.050 C 
ENDBRANCH   7  10
ENDBRANCH   5   6
ENDBRANCH   4   5
ENDBRANCH   2   4
ENDBRANCH   1   2
BRANCH   1  18
HETATM   18  N   UNL     1      42.013 -13.617   1.146  1.00  0.00    -0.341 N 
HETATM   19  C   UNL     1      42.135 -13.053  -0.109  1.00  0.00     0.276 C 
HETATM   20  O   UNL     1      42.555 -11.912  -0.270  1.00  0.00    -0.265 OA
HETATM   21  H   UNL     1      41.507 -14.496   1.187  1.00  0.00     0.163 HD
BRANCH  19  22
HETATM   22  C   UNL     1      41.689 -13.899  -1.194  1.00  0.00     0.142 A 
HETATM   23  O   UNL     1      42.046 -13.594  -2.483  1.00  0.00    -0.317 OA
HETATM   24  C   UNL     1      41.526 -14.564  -3.281  1.00  0.00     0.143 A 
HETATM   25  C   UNL     1      40.835 -15.487  -2.533  1.00  0.00     0.027 A 
HETATM   26  C   UNL     1      40.939 -15.061  -1.188  1.00  0.00     0.045 A 
ENDBRANCH  19  22
ENDBRANCH   1  18
BRANCH   1  27
HETATM   27  C   UNL     1      40.737 -12.516   2.977  1.00  0.00     0.074 C 
BRANCH  27  28
HETATM   28  C   UNL     1      39.539 -13.049   2.220  1.00  0.00    -0.056 A 
HETATM   29  C   UNL     1      38.726 -12.155   1.506  1.00  0.00     0.007 A 
HETATM   30  C   UNL     1      37.635 -12.614   0.768  1.00  0.00     0.001 A 
HETATM   31  C   UNL     1      37.346 -13.975   0.729  1.00  0.00     0.000 A 
HETATM   32  C   UNL     1      38.152 -14.875   1.421  1.00  0.00     0.001 A 
HETATM   33  C   UNL     1      39.247 -14.418   2.158  1.00  0.00     0.007 A 
ENDBRANCH  27  28
ENDBRANCH   1  27
TORSDOF 9
ENDMDL
MODEL 6
REMARK VINA RESULT:      -7.8      2.371      5.649
REMARK  9 active torsions:
REMARK  status: ('A' for Active; 'I' for Inactive)
REMARK    1  A    between atoms: C_3  and  N_4 
REMARK       I    between atoms: N_4  and  C_5 
REMARK    2  A    between atoms: C_5  and  C_6 
REMARK    3  A    between atoms: C_6  and  O_7 
REMARK    4  A    between atoms: O_7  and  C_8 
REMARK    5  A    between atoms: C_8  and  C_9 
REMARK    6  A    between atoms: C_9  and  N_10 
REMARK    7  A    between atoms: C_9  and  C_18 
REMARK       I    between atoms: N_10  and  C_11 
REMARK    8  A    between atoms: C_11  and  C_12 
REMARK    9  A    between atoms: C_18  and  C_19 
ROOT
HETATM    1  C   UNL     1      42.295 -17.466   3.424  1.00  0.00     0.189 C 
ENDROOT
BRANCH   1   2
HETATM    2  C   UNL     1      42.374 -16.930   4.863  1.00  0.00     0.282 C 
HETATM    3  O   UNL     1      41.452 -16.956   5.674  1.00  0.00    -0.263 OA
BRANCH   2   4
HETATM    4  O   UNL     1      43.613 -16.443   5.136  1.00  0.00    -0.311 OA
BRANCH   4   5
HETATM    5  C   UNL     1      43.674 -15.328   6.022  1.00  0.00     0.281 C 
BRANCH   5   6
HETATM    6  C   UNL     1      43.067 -14.000   5.530  1.00  0.00     0.246 C 
HETATM    7  N   UNL     1      41.871 -13.688   6.153  1.00  0.00    -0.324 N 
HETATM    8  H   UNL     1      41.471 -14.441   6.710  1.00  0.00     0.169 HD
HETATM    9  O   UNL     1      43.579 -13.386   4.597  1.00  0.00    -0.271 OA
BRANCH   7  10
HETATM   10  C   UNL     1      41.008 -12.608   5.858  1.00  0.00     0.046 A 
HETATM   11  C   UNL     1      39.957 -12.858   4.938  1.00  0.00    -0.035 A 
HETATM   12  C   UNL     1      39.785 -14.190   4.256  1.00  0.00     0.050 C 
HETATM   13  C   UNL     1      39.059 -11.830   4.610  1.00  0.00     0.009 A 
HETATM   14  C   UNL     1      39.189 -10.569   5.178  1.00  0.00     0.001 A 
HETATM   15  C   UNL     1      40.203 -10.330   6.100  1.00  0.00     0.009 A 
HETATM   16  C   UNL     1      41.104 -11.344   6.476  1.00  0.00    -0.035 A 
HETATM   17  C   UNL     1      42.080 -11.008   7.570  1.00  0.00     0.050 C 
ENDBRANCH   7  10
ENDBRANCH   5   6
ENDBRANCH   4   5
ENDBRANCH   2   4
ENDBRANCH   1   2
BRANCH   1  18
HETATM   18  N   UNL     1      41.755 -16.449   2.526  1.00  0.00    -0.341 N 
HETATM   19  C   UNL     1      41.089 -16.811   1.372  1.00  0.00     0.276 C 
HETATM   20  O   UNL     1      40.723 -17.965   1.168  1.00  0.00    -0.265 OA
HETATM   21  H   UNL     1      42.157 -15.516   2.529  1.00  0.00     0.163 HD
BRANCH  19  22
HETATM   22  C   UNL     1      40.902 -15.737   0.422  1.00  0.00     0.142 A 
HETATM   23  O   UNL     1      40.149 -14.645   0.771  1.00  0.00    -0.317 OA
HETATM   24  C   UNL     1      40.173 -13.790  -0.286  1.00  0.00     0.143 A 
HETATM   25  C   UNL     1      40.924 -14.310  -1.313  1.00  0.00     0.027 A 
HETATM   26  C   UNL     1      41.395 -15.565  -0.859  1.00  0.00     0.045 A 
ENDBRANCH  19  22
ENDBRANCH   1  18
BRANCH   1  27
HETATM   27  C   UNL     1      43.721 -17.893   3.020  1.00  0.00     0.074 C 
BRANCH  27  28
HETATM   28  C   UNL     1      43.972 -19.383   2.934  1.00  0.00    -0.056 A 
HETATM   29  C   UNL     1      44.602 -20.035   4.006  1.00  0.00     0.007 A 
HETATM   30  C   UNL     1      44.818 -21.413   3.977  1.00  0.00     0.001 A 
HETATM   31  C   UNL     1      44.399 -22.160   2.879  1.00  0.00     0.000 A 
HETATM   32  C   UNL     1      43.760 -21.528   1.815  1.00  0.00     0.001 A 
HETATM   33  C   UNL     1      43.540 -20.149   1.844  1.00  0.00     0.007 A 
ENDBRANCH  27  28
ENDBRANCH   1  27
TORSDOF 9
ENDMDL
MODEL 7
REMARK VINA RESULT:      -7.7      2.705      4.297
REMARK  9 active torsions:
REMARK  status: ('A' for Active; 'I' for Inactive)
REMARK    1  A    between atoms: C_3  and  N_4 
REMARK       I    between atoms: N_4  and  C_5 
REMARK    2  A    between atoms: C_5  and  C_6 
REMARK    3  A    between atoms: C_6  and  O_7 
REMARK    4  A    between atoms: O_7  and  C_8 
REMARK    5  A    between atoms: C_8  and  C_9 
REMARK    6  A    between atoms: C_9  and  N_10 
REMARK    7  A    between atoms: C_9  and  C_18 
REMARK       I    between atoms: N_10  and  C_11 
REMARK    8  A    between atoms: C_11  and  C_12 
REMARK    9  A    between atoms: C_18  and  C_19 
ROOT
HETATM    1  C   UNL     1      42.676 -17.099   2.441  1.00  0.00     0.189 C 
ENDROOT
BRANCH   1   2
HETATM    2  C   UNL     1      41.274 -17.228   1.822  1.00  0.00     0.282 C 
HETATM    3  O   UNL     1      40.983 -17.973   0.890  1.00  0.00    -0.263 OA
BRANCH   2   4
HETATM    4  O   UNL     1      40.382 -16.427   2.461  1.00  0.00    -0.311 OA
BRANCH   4   5
HETATM    5  C   UNL     1      40.522 -15.024   2.245  1.00  0.00     0.281 C 
BRANCH   5   6
HETATM    6  C   UNL     1      40.259 -14.499   0.821  1.00  0.00     0.246 C 
HETATM    7  N   UNL     1      41.422 -14.235   0.118  1.00  0.00    -0.324 N 
HETATM    8  H   UNL     1      42.273 -14.254   0.677  1.00  0.00     0.169 HD
HETATM    9  O   UNL     1      39.116 -14.250   0.447  1.00  0.00    -0.271 OA
BRANCH   7  10
HETATM   10  C   UNL     1      41.534 -13.644  -1.161  1.00  0.00     0.046 A 
HETATM   11  C   UNL     1      42.012 -12.309  -1.213  1.00  0.00    -0.035 A 
HETATM   12  C   UNL     1      42.340 -11.524   0.030  1.00  0.00     0.050 C 
HETATM   13  C   UNL     1      42.157 -11.669  -2.454  1.00  0.00     0.009 A 
HETATM   14  C   UNL     1      41.835 -12.329  -3.633  1.00  0.00     0.001 A 
HETATM   15  C   UNL     1      41.391 -13.646  -3.586  1.00  0.00     0.009 A 
HETATM   16  C   UNL     1      41.262 -14.331  -2.362  1.00  0.00    -0.035 A 
HETATM   17  C   UNL     1      40.893 -15.788  -2.440  1.00  0.00     0.050 C 
ENDBRANCH   7  10
ENDBRANCH   5   6
ENDBRANCH   4   5
ENDBRANCH   2   4
ENDBRANCH   1   2
BRANCH   1  18
HETATM   18  N   UNL     1      42.651 -17.474   3.851  1.00  0.00    -0.341 N 
HETATM   19  C   UNL     1      43.021 -16.569   4.827  1.00  0.00     0.276 C 
HETATM   20  O   UNL     1      43.158 -15.373   4.585  1.00  0.00    -0.265 OA
HETATM   21  H   UNL     1      42.724 -18.454   4.110  1.00  0.00     0.163 HD
BRANCH  19  22
HETATM   22  C   UNL     1      43.270 -17.152   6.127  1.00  0.00     0.142 A 
HETATM   23  O   UNL     1      43.150 -16.378   7.252  1.00  0.00    -0.317 OA
HETATM   24  C   UNL     1      43.403 -17.183   8.318  1.00  0.00     0.143 A 
HETATM   25  C   UNL     1      43.689 -18.461   7.903  1.00  0.00     0.027 A 
HETATM   26  C   UNL     1      43.604 -18.444   6.491  1.00  0.00     0.045 A 
ENDBRANCH  19  22
ENDBRANCH   1  18
BRANCH   1  27
HETATM   27  C   UNL     1      43.618 -18.003   1.620  1.00  0.00     0.074 C 
BRANCH  27  28
HETATM   28  C   UNL     1      43.908 -19.369   2.204  1.00  0.00    -0.056 A 
HETATM   29  C   UNL     1      43.394 -20.510   1.567  1.00  0.00     0.007 A 
HETATM   30  C   UNL     1      43.671 -21.787   2.056  1.00  0.00     0.001 A 
HETATM   31  C   UNL     1      44.470 -21.942   3.184  1.00  0.00     0.000 A 
HETATM   32  C   UNL     1      44.998 -20.819   3.819  1.00  0.00     0.001 A 
HETATM   33  C   UNL     1      44.725 -19.540   3.329  1.00  0.00     0.007 A 
ENDBRANCH  27  28
ENDBRANCH   1  27
TORSDOF 9
ENDMDL
MODEL 8
REMARK VINA RESULT:      -7.6      3.254      7.211
REMARK  9 active torsions:
REMARK  status: ('A' for Active; 'I' for Inactive)
REMARK    1  A    between atoms: C_3  and  N_4 
REMARK       I    between atoms: N_4  and  C_5 
REMARK    2  A    between atoms: C_5  and  C_6 
REMARK    3  A    between atoms: C_6  and  O_7 
REMARK    4  A    between atoms: O_7  and  C_8 
REMARK    5  A    between atoms: C_8  and  C_9 
REMARK    6  A    between atoms: C_9  and  N_10 
REMARK    7  A    between atoms: C_9  and  C_18 
REMARK       I    between atoms: N_10  and  C_11 
REMARK    8  A    between atoms: C_11  and  C_12 
REMARK    9  A    between atoms: C_18  and  C_19 
ROOT
HETATM    1  C   UNL     1      41.956 -13.598   5.460  1.00  0.00     0.189 C 
ENDROOT
BRANCH   1   2
HETATM    2  C   UNL     1      40.534 -13.172   5.860  1.00  0.00     0.282 C 
HETATM    3  O   UNL     1      39.510 -13.789   5.577  1.00  0.00    -0.263 OA
BRANCH   2   4
HETATM    4  O   UNL     1      40.554 -12.029   6.595  1.00  0.00    -0.311 OA
BRANCH   4   5
HETATM    5  C   UNL     1      41.815 -11.375   6.714  1.00  0.00     0.281 C 
BRANCH   5   6
HETATM    6  C   UNL     1      42.074 -10.566   7.999  1.00  0.00     0.246 C 
HETATM    7  N   UNL     1      42.358 -11.365   9.093  1.00  0.00    -0.324 N 
HETATM    8  H   UNL     1      42.190 -12.360   8.951  1.00  0.00     0.169 HD
HETATM    9  O   UNL     1      41.916  -9.348   8.014  1.00  0.00    -0.271 OA
BRANCH   7  10
HETATM   10  C   UNL     1      42.533 -10.952  10.433  1.00  0.00     0.046 A 
HETATM   11  C   UNL     1      43.857 -10.657  10.848  1.00  0.00    -0.035 A 
HETATM   12  C   UNL     1      45.041 -10.820   9.932  1.00  0.00     0.050 C 
HETATM   13  C   UNL     1      44.097 -10.231  12.164  1.00  0.00     0.009 A 
HETATM   14  C   UNL     1      43.048 -10.097  13.066  1.00  0.00     0.001 A 
HETATM   15  C   UNL     1      41.747 -10.361  12.654  1.00  0.00     0.009 A 
HETATM   16  C   UNL     1      41.464 -10.761  11.334  1.00  0.00    -0.035 A 
HETATM   17  C   UNL     1      40.012 -10.899  10.967  1.00  0.00     0.050 C 
ENDBRANCH   7  10
ENDBRANCH   5   6
ENDBRANCH   4   5
ENDBRANCH   2   4
ENDBRANCH   1   2
BRANCH   1  18
HETATM   18  N   UNL     1      42.336 -14.829   6.148  1.00  0.00    -0.341 N 
HETATM   19  C   UNL     1      43.622 -15.003   6.620  1.00  0.00     0.276 C 
HETATM   20  O   UNL     1      44.420 -14.073   6.692  1.00  0.00    -0.265 OA
HETATM   21  H   UNL     1      41.811 -15.681   5.975  1.00  0.00     0.163 HD
BRANCH  19  22
HETATM   22  C   UNL     1      43.954 -16.366   6.974  1.00  0.00     0.142 A 
HETATM   23  O   UNL     1      43.450 -16.909   8.129  1.00  0.00    -0.317 OA
HETATM   24  C   UNL     1      43.890 -18.193   8.190  1.00  0.00     0.143 A 
HETATM   25  C   UNL     1      44.672 -18.490   7.100  1.00  0.00     0.027 A 
HETATM   26  C   UNL     1      44.715 -17.314   6.315  1.00  0.00     0.045 A 
ENDBRANCH  19  22
ENDBRANCH   1  18
BRANCH   1  27
HETATM   27  C   UNL     1      41.965 -13.768   3.928  1.00  0.00     0.074 C 
BRANCH  27  28
HETATM   28  C   UNL     1      42.238 -15.166   3.413  1.00  0.00    -0.056 A 
HETATM   29  C   UNL     1      41.179 -16.083   3.327  1.00  0.00     0.007 A 
HETATM   30  C   UNL     1      41.386 -17.368   2.824  1.00  0.00     0.001 A 
HETATM   31  C   UNL     1      42.653 -17.750   2.393  1.00  0.00     0.000 A 
HETATM   32  C   UNL     1      43.710 -16.845   2.460  1.00  0.00     0.001 A 
HETATM   33  C   UNL     1      43.504 -15.558   2.961  1.00  0.00     0.007 A 
ENDBRANCH  27  28
ENDBRANCH   1  27
TORSDOF 9
ENDMDL
MODEL 9
REMARK VINA RESULT:      -7.6      3.161      7.190
REMARK  9 active torsions:
REMARK  status: ('A' for Active; 'I' for Inactive)
REMARK    1  A    between atoms: C_3  and  N_4 
REMARK       I    between atoms: N_4  and  C_5 
REMARK    2  A    between atoms: C_5  and  C_6 
REMARK    3  A    between atoms: C_6  and  O_7 
REMARK    4  A    between atoms: O_7  and  C_8 
REMARK    5  A    between atoms: C_8  and  C_9 
REMARK    6  A    between atoms: C_9  and  N_10 
REMARK    7  A    between atoms: C_9  and  C_18 
REMARK       I    between atoms: N_10  and  C_11 
REMARK    8  A    between atoms: C_11  and  C_12 
REMARK    9  A    between atoms: C_18  and  C_19 
ROOT
HETATM    1  C   UNL     1      42.606 -14.477   4.849  1.00  0.00     0.189 C 
ENDROOT
BRANCH   1   2
HETATM    2  C   UNL     1      41.615 -13.554   5.576  1.00  0.00     0.282 C 
HETATM    3  O   UNL     1      40.391 -13.644   5.508  1.00  0.00    -0.263 OA
BRANCH   2   4
HETATM    4  O   UNL     1      42.268 -12.633   6.332  1.00  0.00    -0.311 OA
BRANCH   4   5
HETATM    5  C   UNL     1      41.576 -11.411   6.579  1.00  0.00     0.281 C 
BRANCH   5   6
HETATM    6  C   UNL     1      42.015 -10.585   7.803  1.00  0.00     0.246 C 
HETATM    7  N   UNL     1      42.305 -11.367   8.907  1.00  0.00    -0.324 N 
HETATM    8  H   UNL     1      42.029 -12.344   8.824  1.00  0.00     0.169 HD
HETATM    9  O   UNL     1      41.980  -9.357   7.774  1.00  0.00    -0.271 OA
BRANCH   7  10
HETATM   10  C   UNL     1      42.627 -10.923  10.210  1.00  0.00     0.046 A 
HETATM   11  C   UNL     1      41.554 -10.799  11.130  1.00  0.00    -0.035 A 
HETATM   12  C   UNL     1      40.125 -11.073  10.741  1.00  0.00     0.050 C 
HETATM   13  C   UNL     1      41.808 -10.373  12.444  1.00  0.00     0.009 A 
HETATM   14  C   UNL     1      43.101 -10.070  12.852  1.00  0.00     0.001 A 
HETATM   15  C   UNL     1      44.157 -10.216  11.959  1.00  0.00     0.009 A 
HETATM   16  C   UNL     1      43.945 -10.669  10.642  1.00  0.00    -0.035 A 
HETATM   17  C   UNL     1      45.172 -10.907   9.805  1.00  0.00     0.050 C 
ENDBRANCH   7  10
ENDBRANCH   5   6
ENDBRANCH   4   5
ENDBRANCH   2   4
ENDBRANCH   1   2
BRANCH   1  18
HETATM   18  N   UNL     1      42.626 -15.799   5.469  1.00  0.00    -0.341 N 
HETATM   19  C   UNL     1      43.700 -16.198   6.240  1.00  0.00     0.276 C 
HETATM   20  O   UNL     1      44.555 -15.405   6.624  1.00  0.00    -0.265 OA
HETATM   21  H   UNL     1      42.069 -16.548   5.069  1.00  0.00     0.163 HD
BRANCH  19  22
HETATM   22  C   UNL     1      43.751 -17.618   6.513  1.00  0.00     0.142 A 
HETATM   23  O   UNL     1      43.900 -18.055   7.805  1.00  0.00    -0.317 OA
HETATM   24  C   UNL     1      43.880 -19.414   7.770  1.00  0.00     0.143 A 
HETATM   25  C   UNL     1      43.724 -19.863   6.481  1.00  0.00     0.027 A 
HETATM   26  C   UNL     1      43.641 -18.707   5.669  1.00  0.00     0.045 A 
ENDBRANCH  19  22
ENDBRANCH   1  18
BRANCH   1  27
HETATM   27  C   UNL     1      42.168 -14.541   3.372  1.00  0.00     0.074 C 
BRANCH  27  28
HETATM   28  C   UNL     1      42.480 -15.827   2.638  1.00  0.00    -0.056 A 
HETATM   29  C   UNL     1      43.816 -16.136   2.336  1.00  0.00     0.007 A 
HETATM   30  C   UNL     1      44.145 -17.330   1.691  1.00  0.00     0.001 A 
HETATM   31  C   UNL     1      43.143 -18.233   1.347  1.00  0.00     0.000 A 
HETATM   32  C   UNL     1      41.815 -17.945   1.653  1.00  0.00     0.001 A 
HETATM   33  C   UNL     1      41.484 -16.752   2.301  1.00  0.00     0.007 A 
ENDBRANCH  27  28
ENDBRANCH   1  27
TORSDOF 9
ENDMDL
MODEL 10
REMARK VINA RESULT:      -7.6      3.144      6.224
REMARK  9 active torsions:
REMARK  status: ('A' for Active; 'I' for Inactive)
REMARK    1  A    between atoms: C_3  and  N_4 
REMARK       I    between atoms: N_4  and  C_5 
REMARK    2  A    between atoms: C_5  and  C_6 
REMARK    3  A    between atoms: C_6  and  O_7 
REMARK    4  A    between atoms: O_7  and  C_8 
REMARK    5  A    between atoms: C_8  and  C_9 
REMARK    6  A    between atoms: C_9  and  N_10 
REMARK    7  A    between atoms: C_9  and  C_18 
REMARK       I    between atoms: N_10  and  C_11 
REMARK    8  A    between atoms: C_11  and  C_12 
REMARK    9  A    between atoms: C_18  and  C_19 
ROOT
HETATM    1  C   UNL     1      41.162 -13.304   5.110  1.00  0.00     0.189 C 
ENDROOT
BRANCH   1   2
HETATM    2  C   UNL     1      42.608 -13.823   5.078  1.00  0.00     0.282 C 
HETATM    3  O   UNL     1      43.544 -13.262   4.513  1.00  0.00    -0.263 OA
BRANCH   2   4
HETATM    4  O   UNL     1      42.730 -14.978   5.782  1.00  0.00    -0.311 OA
BRANCH   4   5
HETATM    5  C   UNL     1      41.594 -15.840   5.786  1.00  0.00     0.281 C 
BRANCH   5   6
HETATM    6  C   UNL     1      41.774 -17.251   5.196  1.00  0.00     0.246 C 
HETATM    7  N   UNL     1      42.972 -17.406   4.521  1.00  0.00    -0.324 N 
HETATM    8  H   UNL     1      43.484 -16.541   4.355  1.00  0.00     0.169 HD
HETATM    9  O   UNL     1      40.863 -18.074   5.252  1.00  0.00    -0.271 OA
BRANCH   7  10
HETATM   10  C   UNL     1      43.396 -18.530   3.776  1.00  0.00     0.046 A 
HETATM   11  C   UNL     1      44.235 -19.462   4.438  1.00  0.00    -0.035 A 
HETATM   12  C   UNL     1      44.705 -19.256   5.854  1.00  0.00     0.050 C 
HETATM   13  C   UNL     1      44.682 -20.605   3.756  1.00  0.00     0.009 A 
HETATM   14  C   UNL     1      44.312 -20.831   2.436  1.00  0.00     0.001 A 
HETATM   15  C   UNL     1      43.469 -19.931   1.793  1.00  0.00     0.009 A 
HETATM   16  C   UNL     1      42.976 -18.790   2.454  1.00  0.00    -0.035 A 
HETATM   17  C   UNL     1      41.976 -17.954   1.703  1.00  0.00     0.050 C 
ENDBRANCH   7  10
ENDBRANCH   5   6
ENDBRANCH   4   5
ENDBRANCH   2   4
ENDBRANCH   1   2
BRANCH   1  18
HETATM   18  N   UNL     1      40.947 -12.455   6.278  1.00  0.00    -0.341 N 
HETATM   19  C   UNL     1      39.668 -12.127   6.685  1.00  0.00     0.276 C 
HETATM   20  O   UNL     1      38.679 -12.705   6.244  1.00  0.00    -0.265 OA
HETATM   21  H   UNL     1      41.680 -11.816   6.574  1.00  0.00     0.163 HD
BRANCH  19  22
HETATM   22  C   UNL     1      39.597 -11.033   7.628  1.00  0.00     0.142 A 
HETATM   23  O   UNL     1      39.979  -9.775   7.238  1.00  0.00    -0.317 OA
HETATM   24  C   UNL     1      39.777  -8.951   8.300  1.00  0.00     0.143 A 
HETATM   25  C   UNL     1      39.276  -9.653   9.370  1.00  0.00     0.027 A 
HETATM   26  C   UNL     1      39.160 -10.995   8.939  1.00  0.00     0.045 A 
ENDBRANCH  19  22
ENDBRANCH   1  18
BRANCH   1  27
HETATM   27  C   UNL     1      40.924 -12.542   3.791  1.00  0.00     0.074 C 
BRANCH  27  28
HETATM   28  C   UNL     1      39.913 -13.149   2.842  1.00  0.00    -0.056 A 
HETATM   29  C   UNL     1      39.865 -14.544   2.694  1.00  0.00     0.007 A 
HETATM   30  C   UNL     1      38.922 -15.142   1.855  1.00  0.00     0.001 A 
HETATM   31  C   UNL     1      38.011 -14.352   1.160  1.00  0.00     0.000 A 
HETATM   32  C   UNL     1      38.038 -12.967   1.309  1.00  0.00     0.001 A 
HETATM   33  C   UNL     1      38.978 -12.368   2.151  1.00  0.00     0.007 A 
ENDBRANCH  27  28
ENDBRANCH   1  27
TORSDOF 9
ENDMDL
