MODEL 1
REMARK VINA RESULT:      -8.7      0.000      0.000
REMARK  9 active torsions:
REMARK  status: ('A' for Active; 'I' for Inactive)
REMARK    1  A    between atoms: O_2  and  C_3 
REMARK    2  A    between atoms: C_6  and  N_7 
REMARK    3  A    between atoms: N_10  and  C_11 
REMARK    4  A    between atoms: C_11  and  C_12 
REMARK    5  A    between atoms: C_14  and  O_15 
REMARK    6  A    between atoms: C_17  and  O_18 
REMARK    7  A    between atoms: C_22  and  C_23 
REMARK    8  A    between atoms: C_23  and  C_24 
REMARK       I    between atoms: C_24  and  N_25 
REMARK    9  A    between atoms: N_25  and  C_26 
ROOT
HETATM    1  N   UNL     1      42.123 -14.983   4.985  1.00  0.00    -0.232 N 
HETATM    2  C   UNL     1      43.301 -14.290   5.175  1.00  0.00     0.333 C 
HETATM    3  O   UNL     1      43.822 -13.449   4.456  1.00  0.00    -0.246 OA
HETATM    4  N   UNL     1      43.863 -14.701   6.379  1.00  0.00    -0.315 N 
HETATM    5  C   UNL     1      42.985 -15.577   7.124  1.00  0.00     0.191 C 
HETATM    6  C   UNL     1      41.948 -15.857   6.034  1.00  0.00     0.256 C 
HETATM    7  O   UNL     1      41.127 -16.764   6.137  1.00  0.00    -0.270 OA
ENDROOT
BRANCH   4   8
HETATM    8  C   UNL     1      45.093 -14.140   6.920  1.00  0.00     0.167 C 
BRANCH   8   9
HETATM    9  C   UNL     1      44.830 -13.021   7.901  1.00  0.00    -0.037 A 
HETATM   10  C   UNL     1      43.588 -12.364   7.922  1.00  0.00     0.048 A 
HETATM   11  C   UNL     1      43.331 -11.337   8.840  1.00  0.00     0.102 A 
HETATM   12  C   UNL     1      44.334 -10.946   9.749  1.00  0.00     0.101 A 
HETATM   13  C   UNL     1      45.576 -11.584   9.716  1.00  0.00     0.040 A 
HETATM   14  C   UNL     1      45.823 -12.606   8.797  1.00  0.00     0.012 A 
BRANCH  11  15
HETATM   15  O   UNL     1      42.140 -10.659   8.933  1.00  0.00    -0.353 OA
HETATM   16  C   UNL     1      41.708  -9.920   7.799  1.00  0.00     0.210 C 
ENDBRANCH  11  15
BRANCH  12  17
HETATM   17  O   UNL     1      44.002  -9.940  10.622  1.00  0.00    -0.353 OA
HETATM   18  C   UNL     1      43.846 -10.280  11.992  1.00  0.00     0.210 C 
ENDBRANCH  12  17
ENDBRANCH   8   9
ENDBRANCH   4   8
BRANCH   5  19
HETATM   19  C   UNL     1      43.595 -16.871   7.637  1.00  0.00     0.138 C 
BRANCH  19  20
HETATM   20  C   UNL     1      44.290 -17.602   6.501  1.00  0.00     0.224 C 
HETATM   21  N   UNL     1      43.434 -18.384   5.754  1.00  0.00    -0.327 N 
HETATM   22  H   UNL     1      42.490 -18.502   6.120  1.00  0.00     0.169 HD
HETATM   23  O   UNL     1      45.503 -17.490   6.352  1.00  0.00    -0.273 OA
BRANCH  21  24
HETATM   24  C   UNL     1      43.732 -19.178   4.630  1.00  0.00     0.034 A 
HETATM   25  C   UNL     1      44.501 -20.341   4.671  1.00  0.00     0.029 A 
HETATM   26  C   UNL     1      44.742 -21.067   3.500  1.00  0.00     0.002 A 
HETATM   27  C   UNL     1      44.224 -20.633   2.281  1.00  0.00     0.000 A 
HETATM   28  C   UNL     1      43.461 -19.470   2.230  1.00  0.00     0.002 A 
HETATM   29  C   UNL     1      43.216 -18.748   3.399  1.00  0.00     0.029 A 
ENDBRANCH  21  24
ENDBRANCH  19  20
ENDBRANCH   5  19
BRANCH   1  30
HETATM   30  C   UNL     1      41.275 -14.901   3.839  1.00  0.00     0.047 A 
HETATM   31  C   UNL     1      40.176 -14.033   3.787  1.00  0.00     0.033 A 
HETATM   32  C   UNL     1      39.379 -13.934   2.636  1.00  0.00     0.039 A 
HETATM   33  C   UNL     1      39.656 -14.697   1.506  1.00  0.00     0.068 A 
HETATM   34  C   UNL     1      40.713 -15.595   1.550  1.00  0.00     0.039 A 
HETATM   35  C   UNL     1      41.509 -15.694   2.702  1.00  0.00     0.033 A 
BRANCH  33  36
HETATM   36  O   UNL     1      38.825 -14.489   0.442  1.00  0.00    -0.356 OA
HETATM   37  C   UNL     1      37.496 -14.081   0.749  1.00  0.00     0.210 C 
ENDBRANCH  33  36
ENDBRANCH   1  30
TORSDOF 9
ENDMDL
MODEL 2
REMARK VINA RESULT:      -8.4      3.048      4.331
REMARK  9 active torsions:
REMARK  status: ('A' for Active; 'I' for Inactive)
REMARK    1  A    between atoms: O_2  and  C_3 
REMARK    2  A    between atoms: C_6  and  N_7 
REMARK    3  A    between atoms: N_10  and  C_11 
REMARK    4  A    between atoms: C_11  and  C_12 
REMARK    5  A    between atoms: C_14  and  O_15 
REMARK    6  A    between atoms: C_17  and  O_18 
REMARK    7  A    between atoms: C_22  and  C_23 
REMARK    8  A    between atoms: C_23  and  C_24 
REMARK       I    between atoms: C_24  and  N_25 
REMARK    9  A    between atoms: N_25  and  C_26 
ROOT
HETATM    1  N   UNL     1      40.757 -14.305   1.566  1.00  0.00    -0.232 N 
HETATM    2  C   UNL     1      41.524 -13.320   2.154  1.00  0.00     0.333 C 
HETATM    3  O   UNL     1      42.184 -12.440   1.621  1.00  0.00    -0.246 OA
HETATM    4  N   UNL     1      41.444 -13.469   3.535  1.00  0.00    -0.315 N 
HETATM    5  C   UNL     1      40.479 -14.472   3.924  1.00  0.00     0.191 C 
HETATM    6  C   UNL     1      40.222 -15.101   2.553  1.00  0.00     0.256 C 
HETATM    7  O   UNL     1      39.640 -16.176   2.429  1.00  0.00    -0.270 OA
ENDROOT
BRANCH   4   8
HETATM    8  C   UNL     1      42.097 -12.568   4.474  1.00  0.00     0.167 C 
BRANCH   8   9
HETATM    9  C   UNL     1      41.130 -11.580   5.087  1.00  0.00    -0.037 A 
HETATM   10  C   UNL     1      40.540 -11.837   6.336  1.00  0.00     0.048 A 
HETATM   11  C   UNL     1      39.656 -10.919   6.918  1.00  0.00     0.102 A 
HETATM   12  C   UNL     1      39.342  -9.725   6.238  1.00  0.00     0.101 A 
HETATM   13  C   UNL     1      39.912  -9.478   4.987  1.00  0.00     0.040 A 
HETATM   14  C   UNL     1      40.791 -10.399   4.416  1.00  0.00     0.012 A 
BRANCH  11  15
HETATM   15  O   UNL     1      39.052 -11.090   8.139  1.00  0.00    -0.353 OA
HETATM   16  C   UNL     1      39.862 -10.977   9.301  1.00  0.00     0.210 C 
ENDBRANCH  11  15
BRANCH  12  17
HETATM   17  O   UNL     1      38.476  -8.873   6.878  1.00  0.00    -0.353 OA
HETATM   18  C   UNL     1      39.013  -7.682   7.434  1.00  0.00     0.210 C 
ENDBRANCH  12  17
ENDBRANCH   8   9
ENDBRANCH   4   8
BRANCH   5  19
HETATM   19  C   UNL     1      40.952 -15.519   4.920  1.00  0.00     0.138 C 
BRANCH  19  20
HETATM   20  C   UNL     1      42.156 -16.259   4.362  1.00  0.00     0.224 C 
HETATM   21  N   UNL     1      41.899 -17.587   4.092  1.00  0.00    -0.327 N 
HETATM   22  H   UNL     1      41.008 -17.955   4.424  1.00  0.00     0.169 HD
HETATM   23  O   UNL     1      43.227 -15.674   4.229  1.00  0.00    -0.273 OA
BRANCH  21  24
HETATM   24  C   UNL     1      42.772 -18.554   3.559  1.00  0.00     0.034 A 
HETATM   25  C   UNL     1      42.758 -18.979   2.231  1.00  0.00     0.029 A 
HETATM   26  C   UNL     1      43.669 -19.947   1.791  1.00  0.00     0.002 A 
HETATM   27  C   UNL     1      44.593 -20.499   2.677  1.00  0.00     0.000 A 
HETATM   28  C   UNL     1      44.609 -20.086   4.005  1.00  0.00     0.002 A 
HETATM   29  C   UNL     1      43.704 -19.117   4.443  1.00  0.00     0.029 A 
ENDBRANCH  21  24
ENDBRANCH  19  20
ENDBRANCH   5  19
BRANCH   1  30
HETATM   30  C   UNL     1      40.625 -14.541   0.164  1.00  0.00     0.047 A 
HETATM   31  C   UNL     1      41.340 -15.553  -0.491  1.00  0.00     0.033 A 
HETATM   32  C   UNL     1      41.165 -15.801  -1.861  1.00  0.00     0.039 A 
HETATM   33  C   UNL     1      40.273 -15.046  -2.616  1.00  0.00     0.068 A 
HETATM   34  C   UNL     1      39.586 -14.010  -1.998  1.00  0.00     0.039 A 
HETATM   35  C   UNL     1      39.763 -13.763  -0.628  1.00  0.00     0.033 A 
BRANCH  33  36
HETATM   36  O   UNL     1      40.172 -15.403  -3.931  1.00  0.00    -0.356 OA
HETATM   37  C   UNL     1      39.035 -16.182  -4.287  1.00  0.00     0.210 C 
ENDBRANCH  33  36
ENDBRANCH   1  30
TORSDOF 9
ENDMDL
MODEL 3
REMARK VINA RESULT:      -8.4      2.378      7.873
REMARK  9 active torsions:
REMARK  status: ('A' for Active; 'I' for Inactive)
REMARK    1  A    between atoms: O_2  and  C_3 
REMARK    2  A    between atoms: C_6  and  N_7 
REMARK    3  A    between atoms: N_10  and  C_11 
REMARK    4  A    between atoms: C_11  and  C_12 
REMARK    5  A    between atoms: C_14  and  O_15 
REMARK    6  A    between atoms: C_17  and  O_18 
REMARK    7  A    between atoms: C_22  and  C_23 
REMARK    8  A    between atoms: C_23  and  C_24 
REMARK       I    between atoms: C_24  and  N_25 
REMARK    9  A    between atoms: N_25  and  C_26 
ROOT
HETATM    1  N   UNL     1      41.532 -14.170   5.245  1.00  0.00    -0.232 N 
HETATM    2  C   UNL     1      41.218 -15.435   5.697  1.00  0.00     0.333 C 
HETATM    3  O   UNL     1      40.124 -15.899   5.982  1.00  0.00    -0.246 OA
HETATM    4  N   UNL     1      42.395 -16.171   5.794  1.00  0.00    -0.315 N 
HETATM    5  C   UNL     1      43.532 -15.463   5.248  1.00  0.00     0.191 C 
HETATM    6  C   UNL     1      42.897 -14.080   5.090  1.00  0.00     0.256 C 
HETATM    7  O   UNL     1      43.573 -13.075   4.884  1.00  0.00    -0.270 OA
ENDROOT
BRANCH   4   8
HETATM    8  C   UNL     1      42.431 -17.570   6.197  1.00  0.00     0.167 C 
BRANCH   8   9
HETATM    9  C   UNL     1      43.038 -18.457   5.134  1.00  0.00    -0.037 A 
HETATM   10  C   UNL     1      44.044 -19.381   5.462  1.00  0.00     0.048 A 
HETATM   11  C   UNL     1      44.600 -20.219   4.486  1.00  0.00     0.102 A 
HETATM   12  C   UNL     1      44.156 -20.127   3.152  1.00  0.00     0.101 A 
HETATM   13  C   UNL     1      43.170 -19.193   2.820  1.00  0.00     0.040 A 
HETATM   14  C   UNL     1      42.623 -18.363   3.800  1.00  0.00     0.012 A 
BRANCH  11  15
HETATM   15  O   UNL     1      45.573 -21.156   4.730  1.00  0.00    -0.353 OA
HETATM   16  C   UNL     1      45.167 -22.410   5.260  1.00  0.00     0.210 C 
ENDBRANCH  11  15
BRANCH  12  17
HETATM   17  O   UNL     1      44.742 -20.986   2.256  1.00  0.00    -0.353 OA
HETATM   18  C   UNL     1      43.895 -21.876   1.544  1.00  0.00     0.210 C 
ENDBRANCH  12  17
ENDBRANCH   8   9
ENDBRANCH   4   8
BRANCH   5  19
HETATM   19  C   UNL     1      44.772 -15.394   6.125  1.00  0.00     0.138 C 
BRANCH  19  20
HETATM   20  C   UNL     1      44.441 -14.704   7.437  1.00  0.00     0.224 C 
HETATM   21  N   UNL     1      44.910 -13.408   7.501  1.00  0.00    -0.327 N 
HETATM   22  H   UNL     1      45.535 -13.112   6.752  1.00  0.00     0.169 HD
HETATM   23  O   UNL     1      43.848 -15.316   8.319  1.00  0.00    -0.273 OA
BRANCH  21  24
HETATM   24  C   UNL     1      44.772 -12.480   8.552  1.00  0.00     0.034 A 
HETATM   25  C   UNL     1      45.743 -12.245   9.525  1.00  0.00     0.029 A 
HETATM   26  C   UNL     1      45.517 -11.299  10.531  1.00  0.00     0.002 A 
HETATM   27  C   UNL     1      44.318 -10.590  10.576  1.00  0.00     0.000 A 
HETATM   28  C   UNL     1      43.341 -10.823   9.613  1.00  0.00     0.002 A 
HETATM   29  C   UNL     1      43.568 -11.763   8.606  1.00  0.00     0.029 A 
ENDBRANCH  21  24
ENDBRANCH  19  20
ENDBRANCH   5  19
BRANCH   1  30
HETATM   30  C   UNL     1      40.617 -13.088   5.073  1.00  0.00     0.047 A 
HETATM   31  C   UNL     1      40.000 -12.824   3.843  1.00  0.00     0.033 A 
HETATM   32  C   UNL     1      39.069 -11.783   3.702  1.00  0.00     0.039 A 
HETATM   33  C   UNL     1      38.730 -10.976   4.784  1.00  0.00     0.068 A 
HETATM   34  C   UNL     1      39.361 -11.191   6.001  1.00  0.00     0.039 A 
HETATM   35  C   UNL     1      40.292 -12.232   6.140  1.00  0.00     0.033 A 
BRANCH  33  36
HETATM   36  O   UNL     1      37.792 -10.016   4.526  1.00  0.00    -0.356 OA
HETATM   37  C   UNL     1      37.468  -9.803   3.156  1.00  0.00     0.210 C 
ENDBRANCH  33  36
ENDBRANCH   1  30
TORSDOF 9
ENDMDL
MODEL 4
REMARK VINA RESULT:      -8.3      3.644      7.853
REMARK  9 active torsions:
REMARK  status: ('A' for Active; 'I' for Inactive)
REMARK    1  A    between atoms: O_2  and  C_3 
REMARK    2  A    between atoms: C_6  and  N_7 
REMARK    3  A    between atoms: N_10  and  C_11 
REMARK    4  A    between atoms: C_11  and  C_12 
REMARK    5  A    between atoms: C_14  and  O_15 
REMARK    6  A    between atoms: C_17  and  O_18 
REMARK    7  A    between atoms: C_22  and  C_23 
REMARK    8  A    between atoms: C_23  and  C_24 
REMARK       I    between atoms: C_24  and  N_25 
REMARK    9  A    between atoms: N_25  and  C_26 
ROOT
HETATM    1  N   UNL     1      42.540 -17.434   2.457  1.00  0.00    -0.232 N 
HETATM    2  C   UNL     1      41.407 -16.827   2.955  1.00  0.00     0.333 C 
HETATM    3  O   UNL     1      40.864 -16.984   4.039  1.00  0.00    -0.246 OA
HETATM    4  N   UNL     1      40.923 -15.946   1.993  1.00  0.00    -0.315 N 
HETATM    5  C   UNL     1      41.822 -15.814   0.868  1.00  0.00     0.191 C 
HETATM    6  C   UNL     1      42.762 -16.980   1.177  1.00  0.00     0.256 C 
HETATM    7  O   UNL     1      43.556 -17.413   0.345  1.00  0.00    -0.270 OA
ENDROOT
BRANCH   4   8
HETATM    8  C   UNL     1      39.758 -15.096   2.201  1.00  0.00     0.167 C 
BRANCH   8   9
HETATM    9  C   UNL     1      40.128 -13.745   2.770  1.00  0.00    -0.037 A 
HETATM   10  C   UNL     1      40.241 -13.560   4.158  1.00  0.00     0.048 A 
HETATM   11  C   UNL     1      40.600 -12.314   4.692  1.00  0.00     0.102 A 
HETATM   12  C   UNL     1      40.840 -11.228   3.828  1.00  0.00     0.101 A 
HETATM   13  C   UNL     1      40.708 -11.405   2.448  1.00  0.00     0.040 A 
HETATM   14  C   UNL     1      40.349 -12.650   1.927  1.00  0.00     0.012 A 
BRANCH  11  15
HETATM   15  O   UNL     1      40.746 -12.058   6.033  1.00  0.00    -0.353 OA
HETATM   16  C   UNL     1      39.577 -12.066   6.840  1.00  0.00     0.210 C 
ENDBRANCH  11  15
BRANCH  12  17
HETATM   17  O   UNL     1      41.196 -10.044   4.426  1.00  0.00    -0.353 OA
HETATM   18  C   UNL     1      40.324  -8.935   4.264  1.00  0.00     0.210 C 
ENDBRANCH  12  17
ENDBRANCH   8   9
ENDBRANCH   4   8
BRANCH   5  19
HETATM   19  C   UNL     1      41.205 -15.965  -0.513  1.00  0.00     0.138 C 
BRANCH  19  20
HETATM   20  C   UNL     1      40.996 -14.598  -1.140  1.00  0.00     0.224 C 
HETATM   21  N   UNL     1      42.177 -13.950  -1.438  1.00  0.00    -0.327 N 
HETATM   22  H   UNL     1      43.032 -14.377  -1.081  1.00  0.00     0.169 HD
HETATM   23  O   UNL     1      39.859 -14.164  -1.299  1.00  0.00    -0.273 OA
BRANCH  21  24
HETATM   24  C   UNL     1      42.355 -12.687  -2.033  1.00  0.00     0.034 A 
HETATM   25  C   UNL     1      42.140 -12.417  -3.384  1.00  0.00     0.029 A 
HETATM   26  C   UNL     1      42.341 -11.126  -3.885  1.00  0.00     0.002 A 
HETATM   27  C   UNL     1      42.764 -10.100  -3.041  1.00  0.00     0.000 A 
HETATM   28  C   UNL     1      42.987 -10.362  -1.694  1.00  0.00     0.002 A 
HETATM   29  C   UNL     1      42.782 -11.649  -1.192  1.00  0.00     0.029 A 
ENDBRANCH  21  24
ENDBRANCH  19  20
ENDBRANCH   5  19
BRANCH   1  30
HETATM   30  C   UNL     1      43.302 -18.453   3.107  1.00  0.00     0.047 A 
HETATM   31  C   UNL     1      43.530 -19.703   2.515  1.00  0.00     0.033 A 
HETATM   32  C   UNL     1      44.316 -20.678   3.147  1.00  0.00     0.039 A 
HETATM   33  C   UNL     1      44.897 -20.433   4.388  1.00  0.00     0.068 A 
HETATM   34  C   UNL     1      44.649 -19.219   5.013  1.00  0.00     0.039 A 
HETATM   35  C   UNL     1      43.861 -18.246   4.380  1.00  0.00     0.033 A 
BRANCH  33  36
HETATM   36  O   UNL     1      45.663 -21.449   4.886  1.00  0.00    -0.356 OA
HETATM   37  C   UNL     1      44.986 -22.667   5.174  1.00  0.00     0.210 C 
ENDBRANCH  33  36
ENDBRANCH   1  30
TORSDOF 9
ENDMDL
MODEL 5
REMARK VINA RESULT:      -8.3      2.572      4.773
REMARK  9 active torsions:
REMARK  status: ('A' for Active; 'I' for Inactive)
REMARK    1  A    between atoms: O_2  and  C_3 
REMARK    2  A    between atoms: C_6  and  N_7 
REMARK    3  A    between atoms: N_10  and  C_11 
REMARK    4  A    between atoms: C_11  and  C_12 
REMARK    5  A    between atoms: C_14  and  O_15 
REMARK    6  A    between atoms: C_17  and  O_18 
REMARK    7  A    between atoms: C_22  and  C_23 
REMARK    8  A    between atoms: C_23  and  C_24 
REMARK       I    between atoms: C_24  and  N_25 
REMARK    9  A    between atoms: N_25  and  C_26 
ROOT
HETATM    1  N   UNL     1      40.183 -14.355   0.816  1.00  0.00    -0.232 N 
HETATM    2  C   UNL     1      39.863 -14.078   2.129  1.00  0.00     0.333 C 
HETATM    3  O   UNL     1      39.177 -13.171   2.577  1.00  0.00    -0.246 OA
HETATM    4  N   UNL     1      40.468 -15.035   2.938  1.00  0.00    -0.315 N 
HETATM    5  C   UNL     1      41.087 -16.092   2.170  1.00  0.00     0.191 C 
HETATM    6  C   UNL     1      41.014 -15.452   0.783  1.00  0.00     0.256 C 
HETATM    7  O   UNL     1      41.653 -15.892  -0.170  1.00  0.00    -0.270 OA
ENDROOT
BRANCH   4   8
HETATM    8  C   UNL     1      40.303 -15.076   4.385  1.00  0.00     0.167 C 
BRANCH   8   9
HETATM    9  C   UNL     1      41.594 -14.785   5.117  1.00  0.00    -0.037 A 
HETATM   10  C   UNL     1      42.111 -15.700   6.048  1.00  0.00     0.048 A 
HETATM   11  C   UNL     1      43.315 -15.445   6.718  1.00  0.00     0.102 A 
HETATM   12  C   UNL     1      44.014 -14.248   6.465  1.00  0.00     0.101 A 
HETATM   13  C   UNL     1      43.491 -13.327   5.555  1.00  0.00     0.040 A 
HETATM   14  C   UNL     1      42.290 -13.591   4.893  1.00  0.00     0.012 A 
BRANCH  11  15
HETATM   15  O   UNL     1      43.892 -16.295   7.629  1.00  0.00    -0.353 OA
HETATM   16  C   UNL     1      43.160 -17.450   8.013  1.00  0.00     0.210 C 
ENDBRANCH  11  15
BRANCH  12  17
HETATM   17  O   UNL     1      45.190 -14.076   7.153  1.00  0.00    -0.353 OA
HETATM   18  C   UNL     1      45.256 -13.008   8.088  1.00  0.00     0.210 C 
ENDBRANCH  12  17
ENDBRANCH   8   9
ENDBRANCH   4   8
BRANCH   5  19
HETATM   19  C   UNL     1      42.522 -16.441   2.532  1.00  0.00     0.138 C 
BRANCH  19  20
HETATM   20  C   UNL     1      42.583 -17.841   3.118  1.00  0.00     0.224 C 
HETATM   21  N   UNL     1      43.678 -18.562   2.689  1.00  0.00    -0.327 N 
HETATM   22  H   UNL     1      44.228 -18.149   1.936  1.00  0.00     0.169 HD
HETATM   23  O   UNL     1      41.688 -18.234   3.861  1.00  0.00    -0.273 OA
BRANCH  21  24
HETATM   24  C   UNL     1      44.052 -19.874   3.039  1.00  0.00     0.034 A 
HETATM   25  C   UNL     1      44.526 -20.247   4.296  1.00  0.00     0.029 A 
HETATM   26  C   UNL     1      44.871 -21.579   4.551  1.00  0.00     0.002 A 
HETATM   27  C   UNL     1      44.751 -22.543   3.552  1.00  0.00     0.000 A 
HETATM   28  C   UNL     1      44.285 -22.178   2.293  1.00  0.00     0.002 A 
HETATM   29  C   UNL     1      43.936 -20.850   2.039  1.00  0.00     0.029 A 
ENDBRANCH  21  24
ENDBRANCH  19  20
ENDBRANCH   5  19
BRANCH   1  30
HETATM   30  C   UNL     1      39.815 -13.574  -0.322  1.00  0.00     0.047 A 
HETATM   31  C   UNL     1      40.572 -12.473  -0.745  1.00  0.00     0.033 A 
HETATM   32  C   UNL     1      40.221 -11.742  -1.890  1.00  0.00     0.039 A 
HETATM   33  C   UNL     1      39.105 -12.089  -2.645  1.00  0.00     0.068 A 
HETATM   34  C   UNL     1      38.315 -13.149  -2.220  1.00  0.00     0.039 A 
HETATM   35  C   UNL     1      38.667 -13.877  -1.074  1.00  0.00     0.033 A 
BRANCH  33  36
HETATM   36  O   UNL     1      38.885 -11.319  -3.752  1.00  0.00    -0.356 OA
HETATM   37  C   UNL     1      40.033 -10.978  -4.521  1.00  0.00     0.210 C 
ENDBRANCH  33  36
ENDBRANCH   1  30
TORSDOF 9
ENDMDL
MODEL 6
REMARK VINA RESULT:      -8.2      3.445      8.143
REMARK  9 active torsions:
REMARK  status: ('A' for Active; 'I' for Inactive)
REMARK    1  A    between atoms: O_2  and  C_3 
REMARK    2  A    between atoms: C_6  and  N_7 
REMARK    3  A    between atoms: N_10  and  C_11 
REMARK    4  A    between atoms: C_11  and  C_12 
REMARK    5  A    between atoms: C_14  and  O_15 
REMARK    6  A    between atoms: C_17  and  O_18 
REMARK    7  A    between atoms: C_22  and  C_23 
REMARK    8  A    between atoms: C_23  and  C_24 
REMARK       I    between atoms: C_24  and  N_25 
REMARK    9  A    between atoms: N_25  and  C_26 
ROOT
HETATM    1  N   UNL     1      40.997 -14.566   3.511  1.00  0.00    -0.232 N 
HETATM    2  C   UNL     1      42.330 -14.910   3.428  1.00  0.00     0.333 C 
HETATM    3  O   UNL     1      43.287 -14.417   4.006  1.00  0.00    -0.246 OA
HETATM    4  N   UNL     1      42.455 -15.969   2.535  1.00  0.00    -0.315 N 
HETATM    5  C   UNL     1      41.173 -16.482   2.108  1.00  0.00     0.191 C 
HETATM    6  C   UNL     1      40.277 -15.368   2.653  1.00  0.00     0.256 C 
HETATM    7  O   UNL     1      39.104 -15.250   2.310  1.00  0.00    -0.270 OA
ENDROOT
BRANCH   4   8
HETATM    8  C   UNL     1      43.725 -16.620   2.240  1.00  0.00     0.167 C 
BRANCH   8   9
HETATM    9  C   UNL     1      43.942 -17.858   3.079  1.00  0.00    -0.037 A 
HETATM   10  C   UNL     1      44.187 -19.101   2.472  1.00  0.00     0.048 A 
HETATM   11  C   UNL     1      44.406 -20.250   3.243  1.00  0.00     0.102 A 
HETATM   12  C   UNL     1      44.370 -20.164   4.649  1.00  0.00     0.101 A 
HETATM   13  C   UNL     1      44.106 -18.933   5.255  1.00  0.00     0.040 A 
HETATM   14  C   UNL     1      43.889 -17.794   4.477  1.00  0.00     0.012 A 
BRANCH  11  15
HETATM   15  O   UNL     1      44.666 -21.495   2.725  1.00  0.00    -0.353 OA
HETATM   16  C   UNL     1      43.942 -21.897   1.572  1.00  0.00     0.210 C 
ENDBRANCH  11  15
BRANCH  12  17
HETATM   17  O   UNL     1      44.603 -21.331   5.334  1.00  0.00    -0.353 OA
HETATM   18  C   UNL     1      44.008 -21.474   6.615  1.00  0.00     0.210 C 
ENDBRANCH  12  17
ENDBRANCH   8   9
ENDBRANCH   4   8
BRANCH   5  19
HETATM   19  C   UNL     1      40.975 -16.652   0.610  1.00  0.00     0.138 C 
BRANCH  19  20
HETATM   20  C   UNL     1      40.987 -15.295  -0.072  1.00  0.00     0.224 C 
HETATM   21  N   UNL     1      39.777 -14.965  -0.645  1.00  0.00    -0.327 N 
HETATM   22  H   UNL     1      39.074 -15.702  -0.681  1.00  0.00     0.169 HD
HETATM   23  O   UNL     1      42.020 -14.633  -0.102  1.00  0.00    -0.273 OA
BRANCH  21  24
HETATM   24  C   UNL     1      39.431 -13.789  -1.339  1.00  0.00     0.034 A 
HETATM   25  C   UNL     1      38.775 -12.701  -0.764  1.00  0.00     0.029 A 
HETATM   26  C   UNL     1      38.474 -11.572  -1.535  1.00  0.00     0.002 A 
HETATM   27  C   UNL     1      38.820 -11.528  -2.885  1.00  0.00     0.000 A 
HETATM   28  C   UNL     1      39.468 -12.612  -3.468  1.00  0.00     0.002 A 
HETATM   29  C   UNL     1      39.773 -13.736  -2.698  1.00  0.00     0.029 A 
ENDBRANCH  21  24
ENDBRANCH  19  20
ENDBRANCH   5  19
BRANCH   1  30
HETATM   30  C   UNL     1      40.453 -13.485   4.268  1.00  0.00     0.047 A 
HETATM   31  C   UNL     1      40.098 -13.625   5.617  1.00  0.00     0.033 A 
HETATM   32  C   UNL     1      39.607 -12.541   6.359  1.00  0.00     0.039 A 
HETATM   33  C   UNL     1      39.453 -11.286   5.776  1.00  0.00     0.068 A 
HETATM   34  C   UNL     1      39.757 -11.135   4.430  1.00  0.00     0.039 A 
HETATM   35  C   UNL     1      40.248 -12.221   3.689  1.00  0.00     0.033 A 
BRANCH  33  36
HETATM   36  O   UNL     1      38.993 -10.306   6.609  1.00  0.00    -0.356 OA
HETATM   37  C   UNL     1      39.450 -10.358   7.956  1.00  0.00     0.210 C 
ENDBRANCH  33  36
ENDBRANCH   1  30
TORSDOF 9
ENDMDL
MODEL 7
REMARK VINA RESULT:      -8.2      3.476      7.843
REMARK  9 active torsions:
REMARK  status: ('A' for Active; 'I' for Inactive)
REMARK    1  A    between atoms: O_2  and  C_3 
REMARK    2  A    between atoms: C_6  and  N_7 
REMARK    3  A    between atoms: N_10  and  C_11 
REMARK    4  A    between atoms: C_11  and  C_12 
REMARK    5  A    between atoms: C_14  and  O_15 
REMARK    6  A    between atoms: C_17  and  O_18 
REMARK    7  A    between atoms: C_22  and  C_23 
REMARK    8  A    between atoms: C_23  and  C_24 
REMARK       I    between atoms: C_24  and  N_25 
REMARK    9  A    between atoms: N_25  and  C_26 
ROOT
HETATM    1  N   UNL     1      41.405 -15.160   1.704  1.00  0.00    -0.232 N 
HETATM    2  C   UNL     1      40.991 -16.169   2.548  1.00  0.00     0.333 C 
HETATM    3  O   UNL     1      40.171 -17.052   2.345  1.00  0.00    -0.246 OA
HETATM    4  N   UNL     1      41.678 -16.044   3.751  1.00  0.00    -0.315 N 
HETATM    5  C   UNL     1      42.707 -15.029   3.693  1.00  0.00     0.191 C 
HETATM    6  C   UNL     1      42.318 -14.372   2.368  1.00  0.00     0.256 C 
HETATM    7  O   UNL     1      42.773 -13.284   2.024  1.00  0.00    -0.270 OA
ENDROOT
BRANCH   4   8
HETATM    8  C   UNL     1      41.523 -16.974   4.861  1.00  0.00     0.167 C 
BRANCH   8   9
HETATM    9  C   UNL     1      42.574 -18.060   4.851  1.00  0.00    -0.037 A 
HETATM   10  C   UNL     1      42.993 -18.639   3.641  1.00  0.00     0.048 A 
HETATM   11  C   UNL     1      43.979 -19.635   3.622  1.00  0.00     0.102 A 
HETATM   12  C   UNL     1      44.553 -20.072   4.832  1.00  0.00     0.101 A 
HETATM   13  C   UNL     1      44.123 -19.512   6.037  1.00  0.00     0.040 A 
HETATM   14  C   UNL     1      43.140 -18.521   6.046  1.00  0.00     0.012 A 
BRANCH  11  15
HETATM   15  O   UNL     1      44.452 -20.237   2.482  1.00  0.00    -0.353 OA
HETATM   16  C   UNL     1      43.583 -21.126   1.793  1.00  0.00     0.210 C 
ENDBRANCH  11  15
BRANCH  12  17
HETATM   17  O   UNL     1      45.519 -21.043   4.729  1.00  0.00    -0.353 OA
HETATM   18  C   UNL     1      45.178 -22.358   5.141  1.00  0.00     0.210 C 
ENDBRANCH  12  17
ENDBRANCH   8   9
ENDBRANCH   4   8
BRANCH   5  19
HETATM   19  C   UNL     1      42.719 -14.010   4.821  1.00  0.00     0.138 C 
BRANCH  19  20
HETATM   20  C   UNL     1      41.349 -13.368   4.954  1.00  0.00     0.224 C 
HETATM   21  N   UNL     1      41.226 -12.198   4.234  1.00  0.00    -0.327 N 
HETATM   22  H   UNL     1      42.082 -11.823   3.826  1.00  0.00     0.169 HD
HETATM   23  O   UNL     1      40.501 -13.878   5.680  1.00  0.00    -0.273 OA
BRANCH  21  24
HETATM   24  C   UNL     1      40.102 -11.357   4.118  1.00  0.00     0.034 A 
HETATM   25  C   UNL     1      39.846 -10.268   4.951  1.00  0.00     0.029 A 
HETATM   26  C   UNL     1      38.701  -9.487   4.757  1.00  0.00     0.002 A 
HETATM   27  C   UNL     1      37.803  -9.794   3.736  1.00  0.00     0.000 A 
HETATM   28  C   UNL     1      38.047 -10.883   2.905  1.00  0.00     0.002 A 
HETATM   29  C   UNL     1      39.192 -11.659   3.095  1.00  0.00     0.029 A 
ENDBRANCH  21  24
ENDBRANCH  19  20
ENDBRANCH   5  19
BRANCH   1  30
HETATM   30  C   UNL     1      40.895 -14.896   0.397  1.00  0.00     0.047 A 
HETATM   31  C   UNL     1      41.380 -15.557  -0.739  1.00  0.00     0.033 A 
HETATM   32  C   UNL     1      40.837 -15.318  -2.011  1.00  0.00     0.039 A 
HETATM   33  C   UNL     1      39.796 -14.411  -2.185  1.00  0.00     0.068 A 
HETATM   34  C   UNL     1      39.329 -13.712  -1.080  1.00  0.00     0.039 A 
HETATM   35  C   UNL     1      39.874 -13.952   0.191  1.00  0.00     0.033 A 
BRANCH  33  36
HETATM   36  O   UNL     1      39.335 -14.287  -3.465  1.00  0.00    -0.356 OA
HETATM   37  C   UNL     1      38.332 -15.213  -3.866  1.00  0.00     0.210 C 
ENDBRANCH  33  36
ENDBRANCH   1  30
TORSDOF 9
ENDMDL
MODEL 8
REMARK VINA RESULT:      -8.1      4.741      9.188
REMARK  9 active torsions:
REMARK  status: ('A' for Active; 'I' for Inactive)
REMARK    1  A    between atoms: O_2  and  C_3 
REMARK    2  A    between atoms: C_6  and  N_7 
REMARK    3  A    between atoms: N_10  and  C_11 
REMARK    4  A    between atoms: C_11  and  C_12 
REMARK    5  A    between atoms: C_14  and  O_15 
REMARK    6  A    between atoms: C_17  and  O_18 
REMARK    7  A    between atoms: C_22  and  C_23 
REMARK    8  A    between atoms: C_23  and  C_24 
REMARK       I    between atoms: C_24  and  N_25 
REMARK    9  A    between atoms: N_25  and  C_26 
ROOT
HETATM    1  N   UNL     1      42.139 -16.489   2.439  1.00  0.00    -0.232 N 
HETATM    2  C   UNL     1      42.561 -15.179   2.526  1.00  0.00     0.333 C 
HETATM    3  O   UNL     1      43.627 -14.740   2.933  1.00  0.00    -0.246 OA
HETATM    4  N   UNL     1      41.541 -14.358   2.056  1.00  0.00    -0.315 N 
HETATM    5  C   UNL     1      40.450 -15.113   1.481  1.00  0.00     0.191 C 
HETATM    6  C   UNL     1      40.850 -16.510   1.957  1.00  0.00     0.256 C 
HETATM    7  O   UNL     1      40.073 -17.460   1.910  1.00  0.00    -0.270 OA
ENDROOT
BRANCH   4   8
HETATM    8  C   UNL     1      41.661 -12.909   1.960  1.00  0.00     0.167 C 
BRANCH   8   9
HETATM    9  C   UNL     1      41.891 -12.447   0.540  1.00  0.00    -0.037 A 
HETATM   10  C   UNL     1      42.008 -13.377  -0.506  1.00  0.00     0.048 A 
HETATM   11  C   UNL     1      42.205 -12.955  -1.828  1.00  0.00     0.102 A 
HETATM   12  C   UNL     1      42.300 -11.579  -2.115  1.00  0.00     0.101 A 
HETATM   13  C   UNL     1      42.206 -10.653  -1.073  1.00  0.00     0.040 A 
HETATM   14  C   UNL     1      42.010 -11.084   0.241  1.00  0.00     0.012 A 
BRANCH  11  15
HETATM   15  O   UNL     1      42.312 -13.800  -2.905  1.00  0.00    -0.353 OA
HETATM   16  C   UNL     1      41.310 -14.793  -3.070  1.00  0.00     0.210 C 
ENDBRANCH  11  15
BRANCH  12  17
HETATM   17  O   UNL     1      42.484 -11.245  -3.434  1.00  0.00    -0.353 OA
HETATM   18  C   UNL     1      41.432 -10.554  -4.092  1.00  0.00     0.210 C 
ENDBRANCH  12  17
ENDBRANCH   8   9
ENDBRANCH   4   8
BRANCH   5  19
HETATM   19  C   UNL     1      39.052 -14.756   1.960  1.00  0.00     0.138 C 
BRANCH  19  20
HETATM   20  C   UNL     1      38.332 -13.941   0.900  1.00  0.00     0.224 C 
HETATM   21  N   UNL     1      38.729 -14.249  -0.385  1.00  0.00    -0.327 N 
HETATM   22  H   UNL     1      39.540 -14.860  -0.476  1.00  0.00     0.169 HD
HETATM   23  O   UNL     1      37.520 -13.083   1.233  1.00  0.00    -0.273 OA
BRANCH  21  24
HETATM   24  C   UNL     1      38.266 -13.703  -1.597  1.00  0.00     0.034 A 
HETATM   25  C   UNL     1      37.654 -14.443  -2.609  1.00  0.00     0.029 A 
HETATM   26  C   UNL     1      37.223 -13.810  -3.781  1.00  0.00     0.002 A 
HETATM   27  C   UNL     1      37.407 -12.439  -3.951  1.00  0.00     0.000 A 
HETATM   28  C   UNL     1      38.022 -11.695  -2.950  1.00  0.00     0.002 A 
HETATM   29  C   UNL     1      38.448 -12.325  -1.778  1.00  0.00     0.029 A 
ENDBRANCH  21  24
ENDBRANCH  19  20
ENDBRANCH   5  19
BRANCH   1  30
HETATM   30  C   UNL     1      42.865 -17.637   2.882  1.00  0.00     0.047 A 
HETATM   31  C   UNL     1      43.474 -18.524   1.984  1.00  0.00     0.033 A 
HETATM   32  C   UNL     1      44.220 -19.623   2.437  1.00  0.00     0.039 A 
HETATM   33  C   UNL     1      44.380 -19.867   3.798  1.00  0.00     0.068 A 
HETATM   34  C   UNL     1      43.750 -19.026   4.705  1.00  0.00     0.039 A 
HETATM   35  C   UNL     1      43.002 -17.929   4.250  1.00  0.00     0.033 A 
BRANCH  33  36
HETATM   36  O   UNL     1      45.152 -20.950   4.111  1.00  0.00    -0.356 OA
HETATM   37  C   UNL     1      44.761 -21.691   5.261  1.00  0.00     0.210 C 
ENDBRANCH  33  36
ENDBRANCH   1  30
TORSDOF 9
ENDMDL
MODEL 9
REMARK VINA RESULT:      -8.1      3.008      4.405
REMARK  9 active torsions:
REMARK  status: ('A' for Active; 'I' for Inactive)
REMARK    1  A    between atoms: O_2  and  C_3 
REMARK    2  A    between atoms: C_6  and  N_7 
REMARK    3  A    between atoms: N_10  and  C_11 
REMARK    4  A    between atoms: C_11  and  C_12 
REMARK    5  A    between atoms: C_14  and  O_15 
REMARK    6  A    between atoms: C_17  and  O_18 
REMARK    7  A    between atoms: C_22  and  C_23 
REMARK    8  A    between atoms: C_23  and  C_24 
REMARK       I    between atoms: C_24  and  N_25 
REMARK    9  A    between atoms: N_25  and  C_26 
ROOT
HETATM    1  N   UNL     1      41.211 -14.508   1.002  1.00  0.00    -0.232 N 
HETATM    2  C   UNL     1      40.395 -13.980   1.982  1.00  0.00     0.333 C 
HETATM    3  O   UNL     1      39.670 -12.998   1.930  1.00  0.00    -0.246 OA
HETATM    4  N   UNL     1      40.513 -14.768   3.122  1.00  0.00    -0.315 N 
HETATM    5  C   UNL     1      41.299 -15.959   2.888  1.00  0.00     0.191 C 
HETATM    6  C   UNL     1      41.875 -15.598   1.517  1.00  0.00     0.256 C 
HETATM    7  O   UNL     1      42.812 -16.219   1.022  1.00  0.00    -0.270 OA
ENDROOT
BRANCH   4   8
HETATM    8  C   UNL     1      39.753 -14.529   4.341  1.00  0.00     0.167 C 
BRANCH   8   9
HETATM    9  C   UNL     1      40.249 -13.317   5.097  1.00  0.00    -0.037 A 
HETATM   10  C   UNL     1      39.397 -12.227   5.340  1.00  0.00     0.048 A 
HETATM   11  C   UNL     1      39.845 -11.107   6.055  1.00  0.00     0.102 A 
HETATM   12  C   UNL     1      41.172 -11.066   6.527  1.00  0.00     0.101 A 
HETATM   13  C   UNL     1      42.027 -12.140   6.268  1.00  0.00     0.040 A 
HETATM   14  C   UNL     1      41.571 -13.251   5.555  1.00  0.00     0.012 A 
BRANCH  11  15
HETATM   15  O   UNL     1      39.070 -10.012   6.346  1.00  0.00    -0.353 OA
HETATM   16  C   UNL     1      38.720  -9.145   5.277  1.00  0.00     0.210 C 
ENDBRANCH  11  15
BRANCH  12  17
HETATM   17  O   UNL     1      41.532  -9.940   7.226  1.00  0.00    -0.353 OA
HETATM   18  C   UNL     1      41.875 -10.095   8.595  1.00  0.00     0.210 C 
ENDBRANCH  12  17
ENDBRANCH   8   9
ENDBRANCH   4   8
BRANCH   5  19
HETATM   19  C   UNL     1      42.410 -16.245   3.885  1.00  0.00     0.138 C 
BRANCH  19  20
HETATM   20  C   UNL     1      42.544 -17.744   4.096  1.00  0.00     0.224 C 
HETATM   21  N   UNL     1      43.484 -18.327   3.270  1.00  0.00    -0.327 N 
HETATM   22  H   UNL     1      43.865 -17.739   2.530  1.00  0.00     0.169 HD
HETATM   23  O   UNL     1      41.826 -18.314   4.911  1.00  0.00    -0.273 OA
BRANCH  21  24
HETATM   24  C   UNL     1      43.872 -19.679   3.207  1.00  0.00     0.034 A 
HETATM   25  C   UNL     1      44.522 -20.358   4.237  1.00  0.00     0.029 A 
HETATM   26  C   UNL     1      44.867 -21.706   4.082  1.00  0.00     0.002 A 
HETATM   27  C   UNL     1      44.572 -22.379   2.898  1.00  0.00     0.000 A 
HETATM   28  C   UNL     1      43.930 -21.706   1.863  1.00  0.00     0.002 A 
HETATM   29  C   UNL     1      43.581 -20.363   2.018  1.00  0.00     0.029 A 
ENDBRANCH  21  24
ENDBRANCH  19  20
ENDBRANCH   5  19
BRANCH   1  30
HETATM   30  C   UNL     1      41.428 -13.957  -0.297  1.00  0.00     0.047 A 
HETATM   31  C   UNL     1      40.912 -14.555  -1.455  1.00  0.00     0.033 A 
HETATM   32  C   UNL     1      41.098 -13.976  -2.720  1.00  0.00     0.039 A 
HETATM   33  C   UNL     1      41.804 -12.786  -2.865  1.00  0.00     0.068 A 
HETATM   34  C   UNL     1      42.361 -12.199  -1.737  1.00  0.00     0.039 A 
HETATM   35  C   UNL     1      42.175 -12.779  -0.473  1.00  0.00     0.033 A 
BRANCH  33  36
HETATM   36  O   UNL     1      41.891 -12.310  -4.143  1.00  0.00    -0.356 OA
HETATM   37  C   UNL     1      41.264 -11.057  -4.393  1.00  0.00     0.210 C 
ENDBRANCH  33  36
ENDBRANCH   1  30
TORSDOF 9
ENDMDL
MODEL 10
REMARK VINA RESULT:      -8.0      3.320      7.397
REMARK  9 active torsions:
REMARK  status: ('A' for Active; 'I' for Inactive)
REMARK    1  A    between atoms: O_2  and  C_3 
REMARK    2  A    between atoms: C_6  and  N_7 
REMARK    3  A    between atoms: N_10  and  C_11 
REMARK    4  A    between atoms: C_11  and  C_12 
REMARK    5  A    between atoms: C_14  and  O_15 
REMARK    6  A    between atoms: C_17  and  O_18 
REMARK    7  A    between atoms: C_22  and  C_23 
REMARK    8  A    between atoms: C_23  and  C_24 
REMARK       I    between atoms: C_24  and  N_25 
REMARK    9  A    between atoms: N_25  and  C_26 
ROOT
HETATM    1  N   UNL     1      42.228 -16.692   2.630  1.00  0.00    -0.232 N 
HETATM    2  C   UNL     1      42.590 -15.376   2.837  1.00  0.00     0.333 C 
HETATM    3  O   UNL     1      43.606 -14.931   3.350  1.00  0.00    -0.246 OA
HETATM    4  N   UNL     1      41.574 -14.561   2.350  1.00  0.00    -0.315 N 
HETATM    5  C   UNL     1      40.557 -15.310   1.645  1.00  0.00     0.191 C 
HETATM    6  C   UNL     1      40.978 -16.723   2.054  1.00  0.00     0.256 C 
HETATM    7  O   UNL     1      40.245 -17.694   1.885  1.00  0.00    -0.270 OA
ENDROOT
BRANCH   4   8
HETATM    8  C   UNL     1      41.642 -13.106   2.361  1.00  0.00     0.167 C 
BRANCH   8   9
HETATM    9  C   UNL     1      40.981 -12.510   3.583  1.00  0.00    -0.037 A 
HETATM   10  C   UNL     1      39.774 -11.800   3.469  1.00  0.00     0.048 A 
HETATM   11  C   UNL     1      39.147 -11.260   4.600  1.00  0.00     0.102 A 
HETATM   12  C   UNL     1      39.738 -11.418   5.869  1.00  0.00     0.101 A 
HETATM   13  C   UNL     1      40.950 -12.105   5.981  1.00  0.00     0.040 A 
HETATM   14  C   UNL     1      41.567 -12.639   4.848  1.00  0.00     0.012 A 
BRANCH  11  15
HETATM   15  O   UNL     1      37.960 -10.569   4.573  1.00  0.00    -0.353 OA
HETATM   16  C   UNL     1      37.911  -9.366   3.819  1.00  0.00     0.210 C 
ENDBRANCH  11  15
BRANCH  12  17
HETATM   17  O   UNL     1      39.058 -10.868   6.928  1.00  0.00    -0.353 OA
HETATM   18  C   UNL     1      39.494 -11.202   8.237  1.00  0.00     0.210 C 
ENDBRANCH  12  17
ENDBRANCH   8   9
ENDBRANCH   4   8
BRANCH   5  19
HETATM   19  C   UNL     1      39.116 -15.038   2.044  1.00  0.00     0.138 C 
BRANCH  19  20
HETATM   20  C   UNL     1      38.394 -14.319   0.917  1.00  0.00     0.224 C 
HETATM   21  N   UNL     1      39.156 -14.197  -0.226  1.00  0.00    -0.327 N 
HETATM   22  H   UNL     1      40.139 -14.457  -0.147  1.00  0.00     0.169 HD
HETATM   23  O   UNL     1      37.260 -13.883   1.095  1.00  0.00    -0.273 OA
BRANCH  21  24
HETATM   24  C   UNL     1      38.802 -13.605  -1.453  1.00  0.00     0.034 A 
HETATM   25  C   UNL     1      37.995 -14.212  -2.415  1.00  0.00     0.029 A 
HETATM   26  C   UNL     1      37.695 -13.542  -3.607  1.00  0.00     0.002 A 
HETATM   27  C   UNL     1      38.204 -12.267  -3.847  1.00  0.00     0.000 A 
HETATM   28  C   UNL     1      39.015 -11.657  -2.896  1.00  0.00     0.002 A 
HETATM   29  C   UNL     1      39.311 -12.322  -1.705  1.00  0.00     0.029 A 
ENDBRANCH  21  24
ENDBRANCH  19  20
ENDBRANCH   5  19
BRANCH   1  30
HETATM   30  C   UNL     1      42.966 -17.841   3.046  1.00  0.00     0.047 A 
HETATM   31  C   UNL     1      43.588 -18.698   2.128  1.00  0.00     0.033 A 
HETATM   32  C   UNL     1      44.346 -19.799   2.556  1.00  0.00     0.039 A 
HETATM   33  C   UNL     1      44.503 -20.076   3.910  1.00  0.00     0.068 A 
HETATM   34  C   UNL     1      43.860 -19.266   4.836  1.00  0.00     0.039 A 
HETATM   35  C   UNL     1      43.102 -18.167   4.407  1.00  0.00     0.033 A 
BRANCH  33  36
HETATM   36  O   UNL     1      45.287 -21.158   4.199  1.00  0.00    -0.356 OA
HETATM   37  C   UNL     1      44.827 -22.010   5.241  1.00  0.00     0.210 C 
ENDBRANCH  33  36
ENDBRANCH   1  30
TORSDOF 9
ENDMDL
