MODEL 1
REMARK VINA RESULT:      -8.2      0.000      0.000
REMARK  5 active torsions:
REMARK  status: ('A' for Active; 'I' for Inactive)
REMARK    1  A    between atoms: C_9  and  C_10 
REMARK       I    between atoms: C_10  and  N_11 
REMARK    2  A    between atoms: N_11  and  C_12 
REMARK    3  A    between atoms: C_12  and  C_13 
REMARK    4  A    between atoms: C_16  and  N_17 
REMARK       I    between atoms: N_17  and  C_18 
REMARK    5  A    between atoms: C_18  and  O_19 
ROOT
HETATM    1  C   UNL     1      42.955 -17.000   4.909  1.00  0.00     0.273 C 
HETATM    2  N   UNL     1      41.687 -17.101   4.382  1.00  0.00    -0.351 N 
HETATM    3  O   UNL     1      43.595 -15.952   4.912  1.00  0.00    -0.266 OA
HETATM    4  H   UNL     1      41.213 -17.988   4.532  1.00  0.00     0.163 HD
ENDROOT
BRANCH   2   5
HETATM    5  C   UNL     1      40.968 -15.939   3.940  1.00  0.00     0.161 C 
BRANCH   5   6
HETATM    6  C   UNL     1      41.113 -15.730   2.458  1.00  0.00    -0.040 A 
HETATM    7  C   UNL     1      41.112 -14.441   1.914  1.00  0.00     0.011 A 
HETATM    8  C   UNL     1      41.261 -14.242   0.534  1.00  0.00     0.030 A 
HETATM    9  C   UNL     1      41.406 -15.329  -0.329  1.00  0.00     0.036 A 
HETATM   10  C   UNL     1      41.379 -16.620   0.216  1.00  0.00     0.030 A 
HETATM   11  C   UNL     1      41.230 -16.821   1.592  1.00  0.00     0.011 A 
BRANCH   9  12
HETATM   12  N   UNL     1      41.581 -15.240  -1.721  1.00  0.00    -0.303 N 
HETATM   13  C   UNL     1      40.725 -14.930  -2.745  1.00  0.00     0.364 C 
HETATM   14  O   UNL     1      41.133 -14.913  -3.902  1.00  0.00    -0.238 OA
HETATM   15  H   UNL     1      42.512 -15.415  -2.075  1.00  0.00     0.171 HD
BRANCH  13  16
HETATM   16  O   UNL     1      39.450 -14.648  -2.384  1.00  0.00    -0.309 OA
HETATM   17  C   UNL     1      38.477 -14.939  -3.389  1.00  0.00     0.215 C 
ENDBRANCH  13  16
ENDBRANCH   9  12
ENDBRANCH   5   6
ENDBRANCH   2   5
BRANCH   1  18
HETATM   18  C   UNL     1      43.456 -18.260   5.481  1.00  0.00     0.157 A 
HETATM   19  C   UNL     1      43.838 -19.437   4.770  1.00  0.00     0.029 A 
HETATM   20  C   UNL     1      43.885 -19.839   3.421  1.00  0.00     0.023 A 
HETATM   21  C   UNL     1      44.248 -20.333   5.750  1.00  0.00     0.063 A 
HETATM   22  C   UNL     1      44.340 -21.128   3.096  1.00  0.00    -0.061 A 
HETATM   23  C   UNL     1      44.401 -21.574   1.663  1.00  0.00     0.048 C 
HETATM   24  C   UNL     1      44.744 -22.000   4.115  1.00  0.00     0.009 A 
HETATM   25  C   UNL     1      44.705 -21.622   5.463  1.00  0.00     0.032 A 
HETATM   26  N   UNL     1      44.091 -19.668   6.934  1.00  0.00    -0.277 N 
HETATM   27  H   UNL     1      44.291 -20.019   7.864  1.00  0.00     0.189 HD
HETATM   28  N   UNL     1      43.623 -18.414   6.813  1.00  0.00    -0.168 NA
ENDBRANCH   1  18
TORSDOF 5
ENDMDL
MODEL 2
REMARK VINA RESULT:      -7.9      1.444      1.623
REMARK  5 active torsions:
REMARK  status: ('A' for Active; 'I' for Inactive)
REMARK    1  A    between atoms: C_9  and  C_10 
REMARK       I    between atoms: C_10  and  N_11 
REMARK    2  A    between atoms: N_11  and  C_12 
REMARK    3  A    between atoms: C_12  and  C_13 
REMARK    4  A    between atoms: C_16  and  N_17 
REMARK       I    between atoms: N_17  and  C_18 
REMARK    5  A    between atoms: C_18  and  O_19 
ROOT
HETATM    1  C   UNL     1      41.833 -16.275   5.841  1.00  0.00     0.273 C 
HETATM    2  N   UNL     1      42.539 -15.521   4.929  1.00  0.00    -0.351 N 
HETATM    3  O   UNL     1      40.692 -15.994   6.199  1.00  0.00    -0.266 OA
HETATM    4  H   UNL     1      43.429 -15.908   4.627  1.00  0.00     0.163 HD
ENDROOT
BRANCH   2   5
HETATM    5  C   UNL     1      41.919 -14.438   4.219  1.00  0.00     0.161 C 
BRANCH   5   6
HETATM    6  C   UNL     1      41.598 -14.817   2.801  1.00  0.00    -0.040 A 
HETATM    7  C   UNL     1      40.478 -14.284   2.153  1.00  0.00     0.011 A 
HETATM    8  C   UNL     1      40.184 -14.625   0.825  1.00  0.00     0.030 A 
HETATM    9  C   UNL     1      41.000 -15.512   0.122  1.00  0.00     0.036 A 
HETATM   10  C   UNL     1      42.106 -16.066   0.783  1.00  0.00     0.030 A 
HETATM   11  C   UNL     1      42.401 -15.727   2.107  1.00  0.00     0.011 A 
BRANCH   9  12
HETATM   12  N   UNL     1      40.807 -15.905  -1.214  1.00  0.00    -0.303 N 
HETATM   13  C   UNL     1      41.049 -15.280  -2.408  1.00  0.00     0.364 C 
HETATM   14  O   UNL     1      40.794 -15.851  -3.464  1.00  0.00    -0.238 OA
HETATM   15  H   UNL     1      40.433 -16.832  -1.366  1.00  0.00     0.171 HD
BRANCH  13  16
HETATM   16  O   UNL     1      41.581 -14.035  -2.327  1.00  0.00    -0.309 OA
HETATM   17  C   UNL     1      41.373 -13.231  -3.488  1.00  0.00     0.215 C 
ENDBRANCH  13  16
ENDBRANCH   9  12
ENDBRANCH   5   6
ENDBRANCH   2   5
BRANCH   1  18
HETATM   18  C   UNL     1      42.570 -17.453   6.325  1.00  0.00     0.157 A 
HETATM   19  C   UNL     1      43.201 -18.459   5.534  1.00  0.00     0.029 A 
HETATM   20  C   UNL     1      43.358 -18.721   4.158  1.00  0.00     0.023 A 
HETATM   21  C   UNL     1      43.764 -19.339   6.451  1.00  0.00     0.063 A 
HETATM   22  C   UNL     1      44.075 -19.856   3.745  1.00  0.00    -0.061 A 
HETATM   23  C   UNL     1      44.257 -20.150   2.284  1.00  0.00     0.048 C 
HETATM   24  C   UNL     1      44.627 -20.717   4.703  1.00  0.00     0.009 A 
HETATM   25  C   UNL     1      44.483 -20.477   6.075  1.00  0.00     0.032 A 
HETATM   26  N   UNL     1      43.448 -18.829   7.679  1.00  0.00    -0.277 N 
HETATM   27  H   UNL     1      43.696 -19.214   8.584  1.00  0.00     0.189 HD
HETATM   28  N   UNL     1      42.735 -17.689   7.645  1.00  0.00    -0.168 NA
ENDBRANCH   1  18
TORSDOF 5
ENDMDL
MODEL 3
REMARK VINA RESULT:      -7.6      6.902      9.989
REMARK  5 active torsions:
REMARK  status: ('A' for Active; 'I' for Inactive)
REMARK    1  A    between atoms: C_9  and  C_10 
REMARK       I    between atoms: C_10  and  N_11 
REMARK    2  A    between atoms: N_11  and  C_12 
REMARK    3  A    between atoms: C_12  and  C_13 
REMARK    4  A    between atoms: C_16  and  N_17 
REMARK       I    between atoms: N_17  and  C_18 
REMARK    5  A    between atoms: C_18  and  O_19 
ROOT
HETATM    1  C   UNL     1      44.714 -14.161   7.196  1.00  0.00     0.273 C 
HETATM    2  N   UNL     1      44.312 -13.413   8.280  1.00  0.00    -0.351 N 
HETATM    3  O   UNL     1      45.613 -13.807   6.436  1.00  0.00    -0.266 OA
HETATM    4  H   UNL     1      43.637 -13.854   8.899  1.00  0.00     0.163 HD
ENDROOT
BRANCH   2   5
HETATM    5  C   UNL     1      45.031 -12.237   8.682  1.00  0.00     0.161 C 
BRANCH   5   6
HETATM    6  C   UNL     1      44.227 -11.393   9.630  1.00  0.00    -0.040 A 
HETATM    7  C   UNL     1      42.978 -10.886   9.254  1.00  0.00     0.011 A 
HETATM    8  C   UNL     1      42.219 -10.111  10.142  1.00  0.00     0.030 A 
HETATM    9  C   UNL     1      42.697  -9.821  11.420  1.00  0.00     0.036 A 
HETATM   10  C   UNL     1      43.961 -10.307  11.785  1.00  0.00     0.030 A 
HETATM   11  C   UNL     1      44.720 -11.081  10.900  1.00  0.00     0.011 A 
BRANCH   9  12
HETATM   12  N   UNL     1      42.010  -9.072  12.392  1.00  0.00    -0.303 N 
HETATM   13  C   UNL     1      41.294  -9.430  13.503  1.00  0.00     0.364 C 
HETATM   14  O   UNL     1      40.784  -8.566  14.211  1.00  0.00    -0.238 OA
HETATM   15  H   UNL     1      42.042  -8.066  12.297  1.00  0.00     0.171 HD
BRANCH  13  16
HETATM   16  O   UNL     1      41.208 -10.760  13.748  1.00  0.00    -0.309 OA
HETATM   17  C   UNL     1      40.221 -11.439  12.970  1.00  0.00     0.215 C 
ENDBRANCH  13  16
ENDBRANCH   9  12
ENDBRANCH   5   6
ENDBRANCH   2   5
BRANCH   1  18
HETATM   18  C   UNL     1      43.978 -15.427   7.049  1.00  0.00     0.157 A 
HETATM   19  C   UNL     1      43.423 -15.966   5.851  1.00  0.00     0.029 A 
HETATM   20  C   UNL     1      43.346 -15.574   4.500  1.00  0.00     0.023 A 
HETATM   21  C   UNL     1      42.846 -17.172   6.231  1.00  0.00     0.063 A 
HETATM   22  C   UNL     1      42.693 -16.403   3.572  1.00  0.00    -0.061 A 
HETATM   23  C   UNL     1      42.604 -16.005   2.127  1.00  0.00     0.048 C 
HETATM   24  C   UNL     1      42.126 -17.611   3.998  1.00  0.00     0.009 A 
HETATM   25  C   UNL     1      42.189 -18.021   5.336  1.00  0.00     0.032 A 
HETATM   26  N   UNL     1      43.080 -17.275   7.574  1.00  0.00    -0.277 N 
HETATM   27  H   UNL     1      42.797 -18.031   8.188  1.00  0.00     0.189 HD
HETATM   28  N   UNL     1      43.765 -16.246   8.103  1.00  0.00    -0.168 NA
ENDBRANCH   1  18
TORSDOF 5
ENDMDL
MODEL 4
REMARK VINA RESULT:      -7.5      2.651      3.584
REMARK  5 active torsions:
REMARK  status: ('A' for Active; 'I' for Inactive)
REMARK    1  A    between atoms: C_9  and  C_10 
REMARK       I    between atoms: C_10  and  N_11 
REMARK    2  A    between atoms: N_11  and  C_12 
REMARK    3  A    between atoms: C_12  and  C_13 
REMARK    4  A    between atoms: C_16  and  N_17 
REMARK       I    between atoms: N_17  and  C_18 
REMARK    5  A    between atoms: C_18  and  O_19 
ROOT
HETATM    1  C   UNL     1      43.400 -17.103   6.698  1.00  0.00     0.273 C 
HETATM    2  N   UNL     1      43.814 -15.986   6.007  1.00  0.00    -0.351 N 
HETATM    3  O   UNL     1      42.755 -17.043   7.742  1.00  0.00    -0.266 OA
HETATM    4  H   UNL     1      44.245 -16.157   5.102  1.00  0.00     0.163 HD
ENDROOT
BRANCH   2   5
HETATM    5  C   UNL     1      43.379 -14.671   6.387  1.00  0.00     0.161 C 
BRANCH   5   6
HETATM    6  C   UNL     1      42.308 -14.155   5.468  1.00  0.00    -0.040 A 
HETATM    7  C   UNL     1      42.624 -13.289   4.416  1.00  0.00     0.011 A 
HETATM    8  C   UNL     1      41.629 -12.818   3.548  1.00  0.00     0.030 A 
HETATM    9  C   UNL     1      40.297 -13.196   3.721  1.00  0.00     0.036 A 
HETATM   10  C   UNL     1      39.979 -14.042   4.793  1.00  0.00     0.030 A 
HETATM   11  C   UNL     1      40.971 -14.514   5.660  1.00  0.00     0.011 A 
BRANCH   9  12
HETATM   12  N   UNL     1      39.229 -12.798   2.899  1.00  0.00    -0.303 N 
HETATM   13  C   UNL     1      38.679 -13.337   1.767  1.00  0.00     0.364 C 
HETATM   14  O   UNL     1      37.722 -12.790   1.227  1.00  0.00    -0.238 OA
HETATM   15  H   UNL     1      38.730 -11.962   3.174  1.00  0.00     0.171 HD
BRANCH  13  16
HETATM   16  O   UNL     1      39.251 -14.482   1.319  1.00  0.00    -0.309 OA
HETATM   17  C   UNL     1      40.012 -14.328   0.120  1.00  0.00     0.215 C 
ENDBRANCH  13  16
ENDBRANCH   9  12
ENDBRANCH   5   6
ENDBRANCH   2   5
BRANCH   1  18
HETATM   18  C   UNL     1      43.788 -18.369   6.055  1.00  0.00     0.157 A 
HETATM   19  C   UNL     1      43.886 -18.630   4.656  1.00  0.00     0.029 A 
HETATM   20  C   UNL     1      43.679 -17.899   3.469  1.00  0.00     0.023 A 
HETATM   21  C   UNL     1      44.295 -19.954   4.563  1.00  0.00     0.063 A 
HETATM   22  C   UNL     1      43.888 -18.520   2.226  1.00  0.00    -0.061 A 
HETATM   23  C   UNL     1      43.676 -17.757   0.950  1.00  0.00     0.048 C 
HETATM   24  C   UNL     1      44.301 -19.857   2.178  1.00  0.00     0.009 A 
HETATM   25  C   UNL     1      44.513 -20.603   3.344  1.00  0.00     0.032 A 
HETATM   26  N   UNL     1      44.410 -20.387   5.855  1.00  0.00    -0.277 N 
HETATM   27  H   UNL     1      44.688 -21.310   6.168  1.00  0.00     0.189 HD
HETATM   28  N   UNL     1      44.119 -19.459   6.783  1.00  0.00    -0.168 NA
ENDBRANCH   1  18
TORSDOF 5
ENDMDL
MODEL 5
REMARK VINA RESULT:      -7.4      2.779      3.746
REMARK  5 active torsions:
REMARK  status: ('A' for Active; 'I' for Inactive)
REMARK    1  A    between atoms: C_9  and  C_10 
REMARK       I    between atoms: C_10  and  N_11 
REMARK    2  A    between atoms: N_11  and  C_12 
REMARK    3  A    between atoms: C_12  and  C_13 
REMARK    4  A    between atoms: C_16  and  N_17 
REMARK       I    between atoms: N_17  and  C_18 
REMARK    5  A    between atoms: C_18  and  O_19 
ROOT
HETATM    1  C   UNL     1      41.215 -16.872   1.809  1.00  0.00     0.273 C 
HETATM    2  N   UNL     1      41.766 -16.354   0.659  1.00  0.00    -0.351 N 
HETATM    3  O   UNL     1      40.004 -17.004   1.969  1.00  0.00    -0.266 OA
HETATM    4  H   UNL     1      42.780 -16.393   0.595  1.00  0.00     0.163 HD
ENDROOT
BRANCH   2   5
HETATM    5  C   UNL     1      40.959 -16.076  -0.496  1.00  0.00     0.161 C 
BRANCH   5   6
HETATM    6  C   UNL     1      41.390 -14.811  -1.182  1.00  0.00    -0.040 A 
HETATM    7  C   UNL     1      41.395 -14.719  -2.578  1.00  0.00     0.011 A 
HETATM    8  C   UNL     1      41.783 -13.535  -3.220  1.00  0.00     0.030 A 
HETATM    9  C   UNL     1      42.182 -12.422  -2.479  1.00  0.00     0.036 A 
HETATM   10  C   UNL     1      42.203 -12.526  -1.081  1.00  0.00     0.030 A 
HETATM   11  C   UNL     1      41.816 -13.706  -0.439  1.00  0.00     0.011 A 
BRANCH   9  12
HETATM   12  N   UNL     1      42.571 -11.185  -3.022  1.00  0.00    -0.303 N 
HETATM   13  C   UNL     1      41.860 -10.142  -3.554  1.00  0.00     0.364 C 
HETATM   14  O   UNL     1      42.446  -9.144  -3.963  1.00  0.00    -0.238 OA
HETATM   15  H   UNL     1      43.561 -10.978  -3.021  1.00  0.00     0.171 HD
BRANCH  13  16
HETATM   16  O   UNL     1      40.514 -10.296  -3.581  1.00  0.00    -0.309 OA
HETATM   17  C   UNL     1      39.980 -10.574  -4.876  1.00  0.00     0.215 C 
ENDBRANCH  13  16
ENDBRANCH   9  12
ENDBRANCH   5   6
ENDBRANCH   2   5
BRANCH   1  18
HETATM   18  C   UNL     1      42.214 -17.268   2.814  1.00  0.00     0.157 A 
HETATM   19  C   UNL     1      42.975 -18.475   2.842  1.00  0.00     0.029 A 
HETATM   20  C   UNL     1      43.075 -19.632   2.044  1.00  0.00     0.023 A 
HETATM   21  C   UNL     1      43.778 -18.369   3.972  1.00  0.00     0.063 A 
HETATM   22  C   UNL     1      43.977 -20.648   2.405  1.00  0.00    -0.061 A 
HETATM   23  C   UNL     1      44.101 -21.887   1.566  1.00  0.00     0.048 C 
HETATM   24  C   UNL     1      44.768 -20.501   3.552  1.00  0.00     0.009 A 
HETATM   25  C   UNL     1      44.684 -19.360   4.359  1.00  0.00     0.032 A 
HETATM   26  N   UNL     1      43.461 -17.161   4.526  1.00  0.00    -0.277 N 
HETATM   27  H   UNL     1      43.853 -16.752   5.368  1.00  0.00     0.189 HD
HETATM   28  N   UNL     1      42.527 -16.465   3.854  1.00  0.00    -0.168 NA
ENDBRANCH   1  18
TORSDOF 5
ENDMDL
MODEL 6
REMARK VINA RESULT:      -7.3      3.033      9.145
REMARK  5 active torsions:
REMARK  status: ('A' for Active; 'I' for Inactive)
REMARK    1  A    between atoms: C_9  and  C_10 
REMARK       I    between atoms: C_10  and  N_11 
REMARK    2  A    between atoms: N_11  and  C_12 
REMARK    3  A    between atoms: C_12  and  C_13 
REMARK    4  A    between atoms: C_16  and  N_17 
REMARK       I    between atoms: N_17  and  C_18 
REMARK    5  A    between atoms: C_18  and  O_19 
ROOT
HETATM    1  C   UNL     1      41.550 -14.446  -0.498  1.00  0.00     0.273 C 
HETATM    2  N   UNL     1      42.193 -15.327   0.341  1.00  0.00    -0.351 N 
HETATM    3  O   UNL     1      40.688 -14.795  -1.302  1.00  0.00    -0.266 OA
HETATM    4  H   UNL     1      42.806 -14.912   1.037  1.00  0.00     0.163 HD
ENDROOT
BRANCH   2   5
HETATM    5  C   UNL     1      41.782 -16.700   0.437  1.00  0.00     0.161 C 
BRANCH   5   6
HETATM    6  C   UNL     1      42.134 -17.291   1.773  1.00  0.00    -0.040 A 
HETATM    7  C   UNL     1      43.280 -18.080   1.927  1.00  0.00     0.011 A 
HETATM    8  C   UNL     1      43.618 -18.621   3.175  1.00  0.00     0.030 A 
HETATM    9  C   UNL     1      42.815 -18.390   4.292  1.00  0.00     0.036 A 
HETATM   10  C   UNL     1      41.653 -17.623   4.129  1.00  0.00     0.030 A 
HETATM   11  C   UNL     1      41.313 -17.082   2.885  1.00  0.00     0.011 A 
BRANCH   9  12
HETATM   12  N   UNL     1      43.073 -18.868   5.589  1.00  0.00    -0.303 N 
HETATM   13  C   UNL     1      43.833 -18.385   6.620  1.00  0.00     0.364 C 
HETATM   14  O   UNL     1      43.892 -18.998   7.681  1.00  0.00    -0.238 OA
HETATM   15  H   UNL     1      42.611 -19.726   5.858  1.00  0.00     0.171 HD
BRANCH  13  16
HETATM   16  O   UNL     1      44.480 -17.217   6.382  1.00  0.00    -0.309 OA
HETATM   17  C   UNL     1      43.909 -16.085   7.041  1.00  0.00     0.215 C 
ENDBRANCH  13  16
ENDBRANCH   9  12
ENDBRANCH   5   6
ENDBRANCH   2   5
BRANCH   1  18
HETATM   18  C   UNL     1      41.979 -13.049  -0.325  1.00  0.00     0.157 A 
HETATM   19  C   UNL     1      42.211 -12.086  -1.352  1.00  0.00     0.029 A 
HETATM   20  C   UNL     1      42.145 -12.064  -2.759  1.00  0.00     0.023 A 
HETATM   21  C   UNL     1      42.585 -10.927  -0.682  1.00  0.00     0.063 A 
HETATM   22  C   UNL     1      42.457 -10.882  -3.451  1.00  0.00    -0.061 A 
HETATM   23  C   UNL     1      42.389 -10.837  -4.950  1.00  0.00     0.048 C 
HETATM   24  C   UNL     1      42.829  -9.735  -2.736  1.00  0.00     0.009 A 
HETATM   25  C   UNL     1      42.902  -9.734  -1.338  1.00  0.00     0.032 A 
HETATM   26  N   UNL     1      42.557 -11.253   0.645  1.00  0.00    -0.277 N 
HETATM   27  H   UNL     1      42.776 -10.649   1.429  1.00  0.00     0.189 HD
HETATM   28  N   UNL     1      42.190 -12.521   0.901  1.00  0.00    -0.168 NA
ENDBRANCH   1  18
TORSDOF 5
ENDMDL
MODEL 7
REMARK VINA RESULT:      -7.3      2.771      4.651
REMARK  5 active torsions:
REMARK  status: ('A' for Active; 'I' for Inactive)
REMARK    1  A    between atoms: C_9  and  C_10 
REMARK       I    between atoms: C_10  and  N_11 
REMARK    2  A    between atoms: N_11  and  C_12 
REMARK    3  A    between atoms: C_12  and  C_13 
REMARK    4  A    between atoms: C_16  and  N_17 
REMARK       I    between atoms: N_17  and  C_18 
REMARK    5  A    between atoms: C_18  and  O_19 
ROOT
HETATM    1  C   UNL     1      41.866 -14.233   1.602  1.00  0.00     0.273 C 
HETATM    2  N   UNL     1      41.465 -14.822   0.424  1.00  0.00    -0.351 N 
HETATM    3  O   UNL     1      42.454 -13.155   1.645  1.00  0.00    -0.266 OA
HETATM    4  H   UNL     1      40.893 -15.657   0.516  1.00  0.00     0.163 HD
ENDROOT
BRANCH   2   5
HETATM    5  C   UNL     1      41.576 -14.130  -0.830  1.00  0.00     0.161 C 
BRANCH   5   6
HETATM    6  C   UNL     1      40.366 -14.354  -1.694  1.00  0.00    -0.040 A 
HETATM    7  C   UNL     1      40.479 -14.997  -2.932  1.00  0.00     0.011 A 
HETATM    8  C   UNL     1      39.351 -15.220  -3.733  1.00  0.00     0.030 A 
HETATM    9  C   UNL     1      38.088 -14.797  -3.315  1.00  0.00     0.036 A 
HETATM   10  C   UNL     1      37.982 -14.129  -2.088  1.00  0.00     0.030 A 
HETATM   11  C   UNL     1      39.106 -13.906  -1.287  1.00  0.00     0.011 A 
BRANCH   9  12
HETATM   12  N   UNL     1      36.893 -14.988  -4.031  1.00  0.00    -0.303 N 
HETATM   13  C   UNL     1      36.072 -14.127  -4.709  1.00  0.00     0.364 C 
HETATM   14  O   UNL     1      35.066 -14.550  -5.271  1.00  0.00    -0.238 OA
HETATM   15  H   UNL     1      36.547 -15.936  -4.096  1.00  0.00     0.171 HD
BRANCH  13  16
HETATM   16  O   UNL     1      36.453 -12.826  -4.715  1.00  0.00    -0.309 OA
HETATM   17  C   UNL     1      35.557 -11.948  -4.033  1.00  0.00     0.215 C 
ENDBRANCH  13  16
ENDBRANCH   9  12
ENDBRANCH   5   6
ENDBRANCH   2   5
BRANCH   1  18
HETATM   18  C   UNL     1      41.505 -15.009   2.800  1.00  0.00     0.157 A 
HETATM   19  C   UNL     1      42.026 -16.277   3.193  1.00  0.00     0.029 A 
HETATM   20  C   UNL     1      42.962 -17.196   2.679  1.00  0.00     0.023 A 
HETATM   21  C   UNL     1      41.381 -16.577   4.388  1.00  0.00     0.063 A 
HETATM   22  C   UNL     1      43.223 -18.386   3.378  1.00  0.00    -0.061 A 
HETATM   23  C   UNL     1      44.221 -19.375   2.848  1.00  0.00     0.048 C 
HETATM   24  C   UNL     1      42.552 -18.649   4.579  1.00  0.00     0.009 A 
HETATM   25  C   UNL     1      41.617 -17.751   5.109  1.00  0.00     0.032 A 
HETATM   26  N   UNL     1      40.551 -15.518   4.624  1.00  0.00    -0.277 N 
HETATM   27  H   UNL     1      39.923 -15.396   5.411  1.00  0.00     0.189 HD
HETATM   28  N   UNL     1      40.601 -14.549   3.693  1.00  0.00    -0.168 NA
ENDBRANCH   1  18
TORSDOF 5
ENDMDL
MODEL 8
REMARK VINA RESULT:      -7.3      3.344      4.310
REMARK  5 active torsions:
REMARK  status: ('A' for Active; 'I' for Inactive)
REMARK    1  A    between atoms: C_9  and  C_10 
REMARK       I    between atoms: C_10  and  N_11 
REMARK    2  A    between atoms: N_11  and  C_12 
REMARK    3  A    between atoms: C_12  and  C_13 
REMARK    4  A    between atoms: C_16  and  N_17 
REMARK       I    between atoms: N_17  and  C_18 
REMARK    5  A    between atoms: C_18  and  O_19 
ROOT
HETATM    1  C   UNL     1      41.728 -16.891   1.471  1.00  0.00     0.273 C 
HETATM    2  N   UNL     1      42.009 -15.603   1.071  1.00  0.00    -0.351 N 
HETATM    3  O   UNL     1      40.921 -17.610   0.887  1.00  0.00    -0.266 OA
HETATM    4  H   UNL     1      42.771 -15.142   1.561  1.00  0.00     0.163 HD
ENDROOT
BRANCH   2   5
HETATM    5  C   UNL     1      41.484 -15.072  -0.156  1.00  0.00     0.161 C 
BRANCH   5   6
HETATM    6  C   UNL     1      40.171 -14.374   0.060  1.00  0.00    -0.040 A 
HETATM    7  C   UNL     1      39.297 -14.145  -1.008  1.00  0.00     0.011 A 
HETATM    8  C   UNL     1      38.065 -13.507  -0.807  1.00  0.00     0.030 A 
HETATM    9  C   UNL     1      37.688 -13.077   0.465  1.00  0.00     0.036 A 
HETATM   10  C   UNL     1      38.577 -13.282   1.529  1.00  0.00     0.030 A 
HETATM   11  C   UNL     1      39.806 -13.919   1.331  1.00  0.00     0.011 A 
BRANCH   9  12
HETATM   12  N   UNL     1      36.471 -12.446   0.779  1.00  0.00    -0.303 N 
HETATM   13  C   UNL     1      36.057 -11.142   0.706  1.00  0.00     0.364 C 
HETATM   14  O   UNL     1      34.916 -10.840   1.040  1.00  0.00    -0.238 OA
HETATM   15  H   UNL     1      35.722 -13.039   1.110  1.00  0.00     0.171 HD
BRANCH  13  16
HETATM   16  O   UNL     1      36.973 -10.255   0.244  1.00  0.00    -0.309 OA
HETATM   17  C   UNL     1      37.560  -9.437   1.257  1.00  0.00     0.215 C 
ENDBRANCH  13  16
ENDBRANCH   9  12
ENDBRANCH   5   6
ENDBRANCH   2   5
BRANCH   1  18
HETATM   18  C   UNL     1      42.500 -17.323   2.646  1.00  0.00     0.157 A 
HETATM   19  C   UNL     1      43.205 -18.553   2.809  1.00  0.00     0.029 A 
HETATM   20  C   UNL     1      43.424 -19.709   2.034  1.00  0.00     0.023 A 
HETATM   21  C   UNL     1      43.774 -18.478   4.075  1.00  0.00     0.063 A 
HETATM   22  C   UNL     1      44.207 -20.754   2.553  1.00  0.00    -0.061 A 
HETATM   23  C   UNL     1      44.455 -21.993   1.741  1.00  0.00     0.048 C 
HETATM   24  C   UNL     1      44.763 -20.637   3.833  1.00  0.00     0.009 A 
HETATM   25  C   UNL     1      44.558 -19.498   4.621  1.00  0.00     0.032 A 
HETATM   26  N   UNL     1      43.392 -17.263   4.570  1.00  0.00    -0.277 N 
HETATM   27  H   UNL     1      43.624 -16.870   5.476  1.00  0.00     0.189 HD
HETATM   28  N   UNL     1      42.628 -16.534   3.736  1.00  0.00    -0.168 NA
ENDBRANCH   1  18
TORSDOF 5
ENDMDL
MODEL 9
REMARK VINA RESULT:      -7.2      2.331      2.785
REMARK  5 active torsions:
REMARK  status: ('A' for Active; 'I' for Inactive)
REMARK    1  A    between atoms: C_9  and  C_10 
REMARK       I    between atoms: C_10  and  N_11 
REMARK    2  A    between atoms: N_11  and  C_12 
REMARK    3  A    between atoms: C_12  and  C_13 
REMARK    4  A    between atoms: C_16  and  N_17 
REMARK       I    between atoms: N_17  and  C_18 
REMARK    5  A    between atoms: C_18  and  O_19 
ROOT
HETATM    1  C   UNL     1      41.280 -16.596   6.108  1.00  0.00     0.273 C 
HETATM    2  N   UNL     1      41.642 -15.530   5.316  1.00  0.00    -0.351 N 
HETATM    3  O   UNL     1      40.159 -16.715   6.597  1.00  0.00    -0.266 OA
HETATM    4  H   UNL     1      42.558 -15.592   4.879  1.00  0.00     0.163 HD
ENDROOT
BRANCH   2   5
HETATM    5  C   UNL     1      40.675 -14.561   4.882  1.00  0.00     0.161 C 
BRANCH   5   6
HETATM    6  C   UNL     1      40.904 -14.152   3.454  1.00  0.00    -0.040 A 
HETATM    7  C   UNL     1      40.216 -13.066   2.901  1.00  0.00     0.011 A 
HETATM    8  C   UNL     1      40.438 -12.673   1.574  1.00  0.00     0.030 A 
HETATM    9  C   UNL     1      41.346 -13.364   0.771  1.00  0.00     0.036 A 
HETATM   10  C   UNL     1      42.014 -14.468   1.319  1.00  0.00     0.030 A 
HETATM   11  C   UNL     1      41.794 -14.862   2.643  1.00  0.00     0.011 A 
BRANCH   9  12
HETATM   12  N   UNL     1      41.657 -13.042  -0.562  1.00  0.00    -0.303 N 
HETATM   13  C   UNL     1      42.474 -12.096  -1.121  1.00  0.00     0.364 C 
HETATM   14  O   UNL     1      42.582 -12.021  -2.342  1.00  0.00    -0.238 OA
HETATM   15  H   UNL     1      41.225 -13.610  -1.280  1.00  0.00     0.171 HD
BRANCH  13  16
HETATM   16  O   UNL     1      43.131 -11.292  -0.250  1.00  0.00    -0.309 OA
HETATM   17  C   UNL     1      42.679  -9.937  -0.246  1.00  0.00     0.215 C 
ENDBRANCH  13  16
ENDBRANCH   9  12
ENDBRANCH   5   6
ENDBRANCH   2   5
BRANCH   1  18
HETATM   18  C   UNL     1      42.356 -17.583   6.295  1.00  0.00     0.157 A 
HETATM   19  C   UNL     1      42.992 -18.363   5.284  1.00  0.00     0.029 A 
HETATM   20  C   UNL     1      42.876 -18.508   3.887  1.00  0.00     0.023 A 
HETATM   21  C   UNL     1      43.939 -19.125   5.959  1.00  0.00     0.063 A 
HETATM   22  C   UNL     1      43.713 -19.412   3.211  1.00  0.00    -0.061 A 
HETATM   23  C   UNL     1      43.607 -19.577   1.723  1.00  0.00     0.048 C 
HETATM   24  C   UNL     1      44.654 -20.160   3.930  1.00  0.00     0.009 A 
HETATM   25  C   UNL     1      44.786 -20.033   5.319  1.00  0.00     0.032 A 
HETATM   26  N   UNL     1      43.815 -18.771   7.274  1.00  0.00    -0.277 N 
HETATM   27  H   UNL     1      44.348 -19.130   8.057  1.00  0.00     0.189 HD
HETATM   28  N   UNL     1      42.876 -17.839   7.515  1.00  0.00    -0.168 NA
ENDBRANCH   1  18
TORSDOF 5
ENDMDL
MODEL 10
REMARK VINA RESULT:      -7.1      3.441      4.343
REMARK  5 active torsions:
REMARK  status: ('A' for Active; 'I' for Inactive)
REMARK    1  A    between atoms: C_9  and  C_10 
REMARK       I    between atoms: C_10  and  N_11 
REMARK    2  A    between atoms: N_11  and  C_12 
REMARK    3  A    between atoms: C_12  and  C_13 
REMARK    4  A    between atoms: C_16  and  N_17 
REMARK       I    between atoms: N_17  and  C_18 
REMARK    5  A    between atoms: C_18  and  O_19 
ROOT
HETATM    1  C   UNL     1      43.428 -16.938   6.680  1.00  0.00     0.273 C 
HETATM    2  N   UNL     1      44.249 -15.905   6.286  1.00  0.00    -0.351 N 
HETATM    3  O   UNL     1      42.474 -16.781   7.439  1.00  0.00    -0.266 OA
HETATM    4  H   UNL     1      44.938 -16.132   5.574  1.00  0.00     0.163 HD
ENDROOT
BRANCH   2   5
HETATM    5  C   UNL     1      43.944 -14.542   6.619  1.00  0.00     0.161 C 
BRANCH   5   6
HETATM    6  C   UNL     1      43.105 -13.888   5.558  1.00  0.00    -0.040 A 
HETATM    7  C   UNL     1      41.870 -13.311   5.876  1.00  0.00     0.011 A 
HETATM    8  C   UNL     1      41.092 -12.687   4.891  1.00  0.00     0.030 A 
HETATM    9  C   UNL     1      41.529 -12.635   3.567  1.00  0.00     0.036 A 
HETATM   10  C   UNL     1      42.753 -13.238   3.246  1.00  0.00     0.030 A 
HETATM   11  C   UNL     1      43.531 -13.861   4.227  1.00  0.00     0.011 A 
BRANCH   9  12
HETATM   12  N   UNL     1      40.838 -12.020   2.509  1.00  0.00    -0.303 N 
HETATM   13  C   UNL     1      40.527 -10.713   2.241  1.00  0.00     0.364 C 
HETATM   14  O   UNL     1      39.906 -10.426   1.222  1.00  0.00    -0.238 OA
HETATM   15  H   UNL     1      40.502 -12.625   1.771  1.00  0.00     0.171 HD
BRANCH  13  16
HETATM   16  O   UNL     1      40.953  -9.804   3.151  1.00  0.00    -0.309 OA
HETATM   17  C   UNL     1      39.904  -9.078   3.792  1.00  0.00     0.215 C 
ENDBRANCH  13  16
ENDBRANCH   9  12
ENDBRANCH   5   6
ENDBRANCH   2   5
BRANCH   1  18
HETATM   18  C   UNL     1      43.792 -18.236   6.091  1.00  0.00     0.157 A 
HETATM   19  C   UNL     1      43.898 -18.553   4.704  1.00  0.00     0.029 A 
HETATM   20  C   UNL     1      43.718 -17.865   3.488  1.00  0.00     0.023 A 
HETATM   21  C   UNL     1      44.277 -19.890   4.667  1.00  0.00     0.063 A 
HETATM   22  C   UNL     1      43.924 -18.538   2.272  1.00  0.00    -0.061 A 
HETATM   23  C   UNL     1      43.741 -17.821   0.965  1.00  0.00     0.048 C 
HETATM   24  C   UNL     1      44.307 -19.886   2.279  1.00  0.00     0.009 A 
HETATM   25  C   UNL     1      44.491 -20.590   3.476  1.00  0.00     0.032 A 
HETATM   26  N   UNL     1      44.370 -20.274   5.975  1.00  0.00    -0.277 N 
HETATM   27  H   UNL     1      44.624 -21.190   6.327  1.00  0.00     0.189 HD
HETATM   28  N   UNL     1      44.092 -19.304   6.864  1.00  0.00    -0.168 NA
ENDBRANCH   1  18
TORSDOF 5
ENDMDL
