MODEL 1
REMARK VINA RESULT:      -8.5      0.000      0.000
REMARK  3 active torsions:
REMARK  status: ('A' for Active; 'I' for Inactive)
REMARK       I    between atoms: N_2  and  C_3 
REMARK    1  A    between atoms: C_3  and  C_4 
REMARK    2  A    between atoms: C_6  and  N_7 
REMARK       I    between atoms: N_7  and  C_8 
REMARK    3  A    between atoms: C_8  and  C_9 
ROOT
HETATM    1  N   UNL     1      41.988 -17.266   1.037  1.00  0.00    -0.321 N 
HETATM    2  C   UNL     1      43.113 -17.200   1.841  1.00  0.00     0.280 C 
HETATM    3  O   UNL     1      43.732 -16.176   2.112  1.00  0.00    -0.265 OA
HETATM    4  H   UNL     1      41.631 -18.205   0.890  1.00  0.00     0.169 HD
ENDROOT
BRANCH   1   5
HETATM    5  C   UNL     1      41.342 -16.217   0.356  1.00  0.00     0.036 A 
HETATM    6  C   UNL     1      41.519 -15.948  -1.003  1.00  0.00     0.046 A 
HETATM    7  C   UNL     1      40.790 -14.925  -1.622  1.00  0.00     0.034 A 
HETATM    8  C   UNL     1      39.931 -14.121  -0.867  1.00  0.00     0.017 A 
HETATM    9  C   UNL     1      39.771 -14.365   0.495  1.00  0.00     0.003 A 
HETATM   10  C   UNL     1      40.470 -15.413   1.101  1.00  0.00     0.029 A 
BRANCH   7  11
HETATM   11  C   UNL     1      40.953 -14.616  -3.063  1.00  0.00     0.251 C 
HETATM   12  N   UNL     1      41.800 -13.620  -3.478  1.00  0.00    -0.361 N 
HETATM   13  C   UNL     1      42.787 -12.890  -2.715  1.00  0.00     0.149 C 
HETATM   14  H   UNL     1      41.796 -13.495  -4.484  1.00  0.00     0.162 HD
HETATM   15  O   UNL     1      40.336 -15.277  -3.896  1.00  0.00    -0.268 OA
ENDBRANCH   7  11
ENDBRANCH   1   5
BRANCH   2  16
HETATM   16  C   UNL     1      43.532 -18.499   2.330  1.00  0.00     0.144 A 
HETATM   17  O   UNL     1      43.946 -18.629   3.632  1.00  0.00    -0.304 OA
HETATM   18  C   UNL     1      44.254 -19.941   3.826  1.00  0.00     0.086 A 
HETATM   19  C   UNL     1      44.046 -20.666   2.659  1.00  0.00     0.001 A 
HETATM   20  C   UNL     1      44.709 -20.497   5.020  1.00  0.00     0.038 A 
HETATM   21  C   UNL     1      43.586 -19.728   1.700  1.00  0.00     0.057 A 
HETATM   22  C   UNL     1      44.304 -22.048   2.670  1.00  0.00     0.014 A 
HETATM   23  C   UNL     1      44.762 -22.637   3.857  1.00  0.00     0.001 A 
HETATM   24  C   UNL     1      44.961 -21.872   5.010  1.00  0.00     0.003 A 
ENDBRANCH   2  16
TORSDOF 3
ENDMDL
MODEL 2
REMARK VINA RESULT:      -8.4      0.654      1.295
REMARK  3 active torsions:
REMARK  status: ('A' for Active; 'I' for Inactive)
REMARK       I    between atoms: N_2  and  C_3 
REMARK    1  A    between atoms: C_3  and  C_4 
REMARK    2  A    between atoms: C_6  and  N_7 
REMARK       I    between atoms: N_7  and  C_8 
REMARK    3  A    between atoms: C_8  and  C_9 
ROOT
HETATM    1  N   UNL     1      41.846 -16.968   1.156  1.00  0.00    -0.321 N 
HETATM    2  C   UNL     1      42.932 -16.813   2.001  1.00  0.00     0.280 C 
HETATM    3  O   UNL     1      43.499 -15.751   2.241  1.00  0.00    -0.265 OA
HETATM    4  H   UNL     1      41.532 -17.927   1.047  1.00  0.00     0.169 HD
ENDROOT
BRANCH   1   5
HETATM    5  C   UNL     1      41.191 -15.985   0.392  1.00  0.00     0.036 A 
HETATM    6  C   UNL     1      41.433 -15.767  -0.965  1.00  0.00     0.046 A 
HETATM    7  C   UNL     1      40.692 -14.810  -1.672  1.00  0.00     0.034 A 
HETATM    8  C   UNL     1      39.752 -14.019  -1.004  1.00  0.00     0.017 A 
HETATM    9  C   UNL     1      39.526 -14.212   0.356  1.00  0.00     0.003 A 
HETATM   10  C   UNL     1      40.238 -15.194   1.049  1.00  0.00     0.029 A 
BRANCH   7  11
HETATM   11  C   UNL     1      40.923 -14.557  -3.115  1.00  0.00     0.251 C 
HETATM   12  N   UNL     1      41.807 -13.593  -3.527  1.00  0.00    -0.361 N 
HETATM   13  C   UNL     1      42.775 -12.854  -2.748  1.00  0.00     0.149 C 
HETATM   14  H   UNL     1      41.849 -13.504  -4.535  1.00  0.00     0.162 HD
HETATM   15  O   UNL     1      40.329 -15.237  -3.949  1.00  0.00    -0.268 OA
ENDBRANCH   7  11
ENDBRANCH   1   5
BRANCH   2  16
HETATM   16  C   UNL     1      43.379 -18.066   2.578  1.00  0.00     0.144 A 
HETATM   17  O   UNL     1      43.383 -19.201   1.806  1.00  0.00    -0.304 OA
HETATM   18  C   UNL     1      43.866 -20.211   2.581  1.00  0.00     0.086 A 
HETATM   19  C   UNL     1      44.172 -19.743   3.853  1.00  0.00     0.001 A 
HETATM   20  C   UNL     1      44.039 -21.532   2.172  1.00  0.00     0.038 A 
HETATM   21  C   UNL     1      43.851 -18.362   3.843  1.00  0.00     0.057 A 
HETATM   22  C   UNL     1      44.693 -20.647   4.795  1.00  0.00     0.014 A 
HETATM   23  C   UNL     1      44.881 -21.983   4.413  1.00  0.00     0.001 A 
HETATM   24  C   UNL     1      44.558 -22.415   3.124  1.00  0.00     0.003 A 
ENDBRANCH   2  16
TORSDOF 3
ENDMDL
MODEL 3
REMARK VINA RESULT:      -7.9      6.601      8.673
REMARK  3 active torsions:
REMARK  status: ('A' for Active; 'I' for Inactive)
REMARK       I    between atoms: N_2  and  C_3 
REMARK    1  A    between atoms: C_3  and  C_4 
REMARK    2  A    between atoms: C_6  and  N_7 
REMARK       I    between atoms: N_7  and  C_8 
REMARK    3  A    between atoms: C_8  and  C_9 
ROOT
HETATM    1  N   UNL     1      44.768 -14.852   6.577  1.00  0.00    -0.321 N 
HETATM    2  C   UNL     1      44.160 -16.026   6.989  1.00  0.00     0.280 C 
HETATM    3  O   UNL     1      43.736 -16.247   8.119  1.00  0.00    -0.265 OA
HETATM    4  H   UNL     1      45.093 -14.862   5.615  1.00  0.00     0.169 HD
ENDROOT
BRANCH   1   5
HETATM    5  C   UNL     1      45.048 -13.703   7.340  1.00  0.00     0.036 A 
HETATM    6  C   UNL     1      44.104 -13.049   8.134  1.00  0.00     0.046 A 
HETATM    7  C   UNL     1      44.478 -11.948   8.915  1.00  0.00     0.034 A 
HETATM    8  C   UNL     1      45.784 -11.455   8.851  1.00  0.00     0.017 A 
HETATM    9  C   UNL     1      46.724 -12.086   8.040  1.00  0.00     0.003 A 
HETATM   10  C   UNL     1      46.358 -13.208   7.292  1.00  0.00     0.029 A 
BRANCH   7  11
HETATM   11  C   UNL     1      43.500 -11.234   9.771  1.00  0.00     0.251 C 
HETATM   12  N   UNL     1      43.202 -11.688  11.030  1.00  0.00    -0.361 N 
HETATM   13  C   UNL     1      43.868 -12.708  11.810  1.00  0.00     0.149 C 
HETATM   14  H   UNL     1      42.499 -11.125  11.495  1.00  0.00     0.162 HD
HETATM   15  O   UNL     1      42.966 -10.209   9.350  1.00  0.00    -0.268 OA
ENDBRANCH   7  11
ENDBRANCH   1   5
BRANCH   2  16
HETATM   16  C   UNL     1      44.092 -17.023   5.937  1.00  0.00     0.144 A 
HETATM   17  O   UNL     1      43.378 -16.752   4.796  1.00  0.00    -0.304 OA
HETATM   18  C   UNL     1      43.501 -17.835   3.980  1.00  0.00     0.086 A 
HETATM   19  C   UNL     1      44.288 -18.810   4.583  1.00  0.00     0.001 A 
HETATM   20  C   UNL     1      42.932 -17.964   2.716  1.00  0.00     0.038 A 
HETATM   21  C   UNL     1      44.659 -18.279   5.844  1.00  0.00     0.057 A 
HETATM   22  C   UNL     1      44.534 -20.004   3.883  1.00  0.00     0.014 A 
HETATM   23  C   UNL     1      43.976 -20.161   2.606  1.00  0.00     0.001 A 
HETATM   24  C   UNL     1      43.188 -19.158   2.036  1.00  0.00     0.003 A 
ENDBRANCH   2  16
TORSDOF 3
ENDMDL
MODEL 4
REMARK VINA RESULT:      -7.8      1.978      2.733
REMARK  3 active torsions:
REMARK  status: ('A' for Active; 'I' for Inactive)
REMARK       I    between atoms: N_2  and  C_3 
REMARK    1  A    between atoms: C_3  and  C_4 
REMARK    2  A    between atoms: C_6  and  N_7 
REMARK       I    between atoms: N_7  and  C_8 
REMARK    3  A    between atoms: C_8  and  C_9 
ROOT
HETATM    1  N   UNL     1      41.873 -17.313   1.363  1.00  0.00    -0.321 N 
HETATM    2  C   UNL     1      43.113 -17.277   1.977  1.00  0.00     0.280 C 
HETATM    3  O   UNL     1      43.817 -16.279   2.099  1.00  0.00    -0.265 OA
HETATM    4  H   UNL     1      41.451 -18.235   1.319  1.00  0.00     0.169 HD
ENDROOT
BRANCH   1   5
HETATM    5  C   UNL     1      41.178 -16.257   0.743  1.00  0.00     0.036 A 
HETATM    6  C   UNL     1      40.118 -15.570   1.337  1.00  0.00     0.046 A 
HETATM    7  C   UNL     1      39.520 -14.487   0.680  1.00  0.00     0.034 A 
HETATM    8  C   UNL     1      39.938 -14.130  -0.605  1.00  0.00     0.017 A 
HETATM    9  C   UNL     1      40.977 -14.828  -1.215  1.00  0.00     0.003 A 
HETATM   10  C   UNL     1      41.598 -15.883  -0.541  1.00  0.00     0.029 A 
BRANCH   7  11
HETATM   11  C   UNL     1      38.392 -13.737   1.285  1.00  0.00     0.251 C 
HETATM   12  N   UNL     1      38.622 -12.712   2.167  1.00  0.00    -0.361 N 
HETATM   13  C   UNL     1      39.868 -12.052   2.490  1.00  0.00     0.149 C 
HETATM   14  H   UNL     1      37.767 -12.304   2.526  1.00  0.00     0.162 HD
HETATM   15  O   UNL     1      37.239 -14.026   0.972  1.00  0.00    -0.268 OA
ENDBRANCH   7  11
ENDBRANCH   1   5
BRANCH   2  16
HETATM   16  C   UNL     1      43.541 -18.578   2.455  1.00  0.00     0.144 A 
HETATM   17  O   UNL     1      43.898 -18.729   3.772  1.00  0.00    -0.304 OA
HETATM   18  C   UNL     1      44.229 -20.037   3.950  1.00  0.00     0.086 A 
HETATM   19  C   UNL     1      44.093 -20.739   2.757  1.00  0.00     0.001 A 
HETATM   20  C   UNL     1      44.641 -20.611   5.150  1.00  0.00     0.038 A 
HETATM   21  C   UNL     1      43.655 -19.790   1.800  1.00  0.00     0.057 A 
HETATM   22  C   UNL     1      44.385 -22.114   2.749  1.00  0.00     0.014 A 
HETATM   23  C   UNL     1      44.801 -22.720   3.943  1.00  0.00     0.001 A 
HETATM   24  C   UNL     1      44.928 -21.980   5.121  1.00  0.00     0.003 A 
ENDBRANCH   2  16
TORSDOF 3
ENDMDL
MODEL 5
REMARK VINA RESULT:      -7.7      7.214      9.284
REMARK  3 active torsions:
REMARK  status: ('A' for Active; 'I' for Inactive)
REMARK       I    between atoms: N_2  and  C_3 
REMARK    1  A    between atoms: C_3  and  C_4 
REMARK    2  A    between atoms: C_6  and  N_7 
REMARK       I    between atoms: N_7  and  C_8 
REMARK    3  A    between atoms: C_8  and  C_9 
ROOT
HETATM    1  N   UNL     1      43.839 -14.739   7.290  1.00  0.00    -0.321 N 
HETATM    2  C   UNL     1      44.771 -13.717   7.333  1.00  0.00     0.280 C 
HETATM    3  O   UNL     1      45.747 -13.615   6.596  1.00  0.00    -0.265 OA
HETATM    4  H   UNL     1      43.119 -14.682   8.004  1.00  0.00     0.169 HD
ENDROOT
BRANCH   1   5
HETATM    5  C   UNL     1      43.816 -15.861   6.441  1.00  0.00     0.036 A 
HETATM    6  C   UNL     1      43.020 -15.955   5.298  1.00  0.00     0.046 A 
HETATM    7  C   UNL     1      43.102 -17.080   4.468  1.00  0.00     0.034 A 
HETATM    8  C   UNL     1      43.933 -18.149   4.817  1.00  0.00     0.017 A 
HETATM    9  C   UNL     1      44.710 -18.075   5.971  1.00  0.00     0.003 A 
HETATM   10  C   UNL     1      44.655 -16.933   6.776  1.00  0.00     0.029 A 
BRANCH   7  11
HETATM   11  C   UNL     1      42.271 -17.208   3.246  1.00  0.00     0.251 C 
HETATM   12  N   UNL     1      42.840 -17.156   2.000  1.00  0.00    -0.361 N 
HETATM   13  C   UNL     1      44.239 -17.197   1.637  1.00  0.00     0.149 C 
HETATM   14  H   UNL     1      42.159 -17.227   1.254  1.00  0.00     0.162 HD
HETATM   15  O   UNL     1      41.059 -17.384   3.357  1.00  0.00    -0.268 OA
ENDBRANCH   7  11
ENDBRANCH   1   5
BRANCH   2  16
HETATM   16  C   UNL     1      44.503 -12.755   8.384  1.00  0.00     0.144 A 
HETATM   17  O   UNL     1      43.426 -11.911   8.268  1.00  0.00    -0.304 OA
HETATM   18  C   UNL     1      43.398 -11.142   9.391  1.00  0.00     0.086 A 
HETATM   19  C   UNL     1      44.450 -11.476  10.236  1.00  0.00     0.001 A 
HETATM   20  C   UNL     1      42.453 -10.158   9.673  1.00  0.00     0.038 A 
HETATM   21  C   UNL     1      45.159 -12.512   9.576  1.00  0.00     0.057 A 
HETATM   22  C   UNL     1      44.580 -10.788  11.455  1.00  0.00     0.014 A 
HETATM   23  C   UNL     1      43.642  -9.793  11.768  1.00  0.00     0.001 A 
HETATM   24  C   UNL     1      42.599  -9.484  10.890  1.00  0.00     0.003 A 
ENDBRANCH   2  16
TORSDOF 3
ENDMDL
MODEL 6
REMARK VINA RESULT:      -7.6      2.243      2.792
REMARK  3 active torsions:
REMARK  status: ('A' for Active; 'I' for Inactive)
REMARK       I    between atoms: N_2  and  C_3 
REMARK    1  A    between atoms: C_3  and  C_4 
REMARK    2  A    between atoms: C_6  and  N_7 
REMARK       I    between atoms: N_7  and  C_8 
REMARK    3  A    between atoms: C_8  and  C_9 
ROOT
HETATM    1  N   UNL     1      41.441 -15.747   1.795  1.00  0.00    -0.321 N 
HETATM    2  C   UNL     1      41.612 -17.095   2.060  1.00  0.00     0.280 C 
HETATM    3  O   UNL     1      41.223 -18.014   1.345  1.00  0.00    -0.265 OA
HETATM    4  H   UNL     1      41.792 -15.128   2.519  1.00  0.00     0.169 HD
ENDROOT
BRANCH   1   5
HETATM    5  C   UNL     1      40.785 -15.152   0.701  1.00  0.00     0.036 A 
HETATM    6  C   UNL     1      41.270 -15.185  -0.607  1.00  0.00     0.046 A 
HETATM    7  C   UNL     1      40.526 -14.624  -1.652  1.00  0.00     0.034 A 
HETATM    8  C   UNL     1      39.322 -13.967  -1.381  1.00  0.00     0.017 A 
HETATM    9  C   UNL     1      38.845 -13.906  -0.074  1.00  0.00     0.003 A 
HETATM   10  C   UNL     1      39.571 -14.501   0.961  1.00  0.00     0.029 A 
BRANCH   7  11
HETATM   11  C   UNL     1      41.013 -14.644  -3.053  1.00  0.00     0.251 C 
HETATM   12  N   UNL     1      41.933 -13.726  -3.492  1.00  0.00    -0.361 N 
HETATM   13  C   UNL     1      42.721 -12.789  -2.722  1.00  0.00     0.149 C 
HETATM   14  H   UNL     1      42.158 -13.834  -4.473  1.00  0.00     0.162 HD
HETATM   15  O   UNL     1      40.601 -15.510  -3.822  1.00  0.00    -0.268 OA
ENDBRANCH   7  11
ENDBRANCH   1   5
BRANCH   2  16
HETATM   16  C   UNL     1      42.290 -17.339   3.319  1.00  0.00     0.144 A 
HETATM   17  O   UNL     1      41.666 -17.008   4.496  1.00  0.00    -0.304 OA
HETATM   18  C   UNL     1      42.505 -17.362   5.508  1.00  0.00     0.086 A 
HETATM   19  C   UNL     1      43.673 -17.918   4.997  1.00  0.00     0.001 A 
HETATM   20  C   UNL     1      42.246 -17.203   6.867  1.00  0.00     0.038 A 
HETATM   21  C   UNL     1      43.527 -17.894   3.588  1.00  0.00     0.057 A 
HETATM   22  C   UNL     1      44.661 -18.352   5.898  1.00  0.00     0.014 A 
HETATM   23  C   UNL     1      44.428 -18.207   7.273  1.00  0.00     0.001 A 
HETATM   24  C   UNL     1      43.242 -17.640   7.747  1.00  0.00     0.003 A 
ENDBRANCH   2  16
TORSDOF 3
ENDMDL
MODEL 7
REMARK VINA RESULT:      -7.6      2.170      3.000
REMARK  3 active torsions:
REMARK  status: ('A' for Active; 'I' for Inactive)
REMARK       I    between atoms: N_2  and  C_3 
REMARK    1  A    between atoms: C_3  and  C_4 
REMARK    2  A    between atoms: C_6  and  N_7 
REMARK       I    between atoms: N_7  and  C_8 
REMARK    3  A    between atoms: C_8  and  C_9 
ROOT
HETATM    1  N   UNL     1      41.689 -16.695   3.308  1.00  0.00    -0.321 N 
HETATM    2  C   UNL     1      42.968 -16.983   2.866  1.00  0.00     0.280 C 
HETATM    3  O   UNL     1      43.660 -16.248   2.167  1.00  0.00    -0.265 OA
HETATM    4  H   UNL     1      41.252 -17.438   3.844  1.00  0.00     0.169 HD
ENDROOT
BRANCH   1   5
HETATM    5  C   UNL     1      40.914 -15.549   3.044  1.00  0.00     0.036 A 
HETATM    6  C   UNL     1      40.008 -15.451   1.988  1.00  0.00     0.046 A 
HETATM    7  C   UNL     1      39.226 -14.299   1.830  1.00  0.00     0.034 A 
HETATM    8  C   UNL     1      39.400 -13.212   2.692  1.00  0.00     0.017 A 
HETATM    9  C   UNL     1      40.323 -13.292   3.732  1.00  0.00     0.003 A 
HETATM   10  C   UNL     1      41.072 -14.458   3.910  1.00  0.00     0.029 A 
BRANCH   7  11
HETATM   11  C   UNL     1      38.253 -14.165   0.719  1.00  0.00     0.251 C 
HETATM   12  N   UNL     1      38.656 -13.747  -0.523  1.00  0.00    -0.361 N 
HETATM   13  C   UNL     1      39.998 -13.588  -1.038  1.00  0.00     0.149 C 
HETATM   14  H   UNL     1      37.889 -13.672  -1.180  1.00  0.00     0.162 HD
HETATM   15  O   UNL     1      37.074 -14.453   0.913  1.00  0.00    -0.268 OA
ENDBRANCH   7  11
ENDBRANCH   1   5
BRANCH   2  16
HETATM   16  C   UNL     1      43.428 -18.291   3.289  1.00  0.00     0.144 A 
HETATM   17  O   UNL     1      43.521 -19.305   2.368  1.00  0.00    -0.304 OA
HETATM   18  C   UNL     1      43.995 -20.400   3.023  1.00  0.00     0.086 A 
HETATM   19  C   UNL     1      44.209 -20.108   4.365  1.00  0.00     0.001 A 
HETATM   20  C   UNL     1      44.241 -21.644   2.447  1.00  0.00     0.038 A 
HETATM   21  C   UNL     1      43.837 -18.749   4.527  1.00  0.00     0.057 A 
HETATM   22  C   UNL     1      44.708 -21.120   5.203  1.00  0.00     0.014 A 
HETATM   23  C   UNL     1      44.968 -22.383   4.651  1.00  0.00     0.001 A 
HETATM   24  C   UNL     1      44.737 -22.638   3.297  1.00  0.00     0.003 A 
ENDBRANCH   2  16
TORSDOF 3
ENDMDL
MODEL 8
REMARK VINA RESULT:      -7.5      2.177      8.334
REMARK  3 active torsions:
REMARK  status: ('A' for Active; 'I' for Inactive)
REMARK       I    between atoms: N_2  and  C_3 
REMARK    1  A    between atoms: C_3  and  C_4 
REMARK    2  A    between atoms: C_6  and  N_7 
REMARK       I    between atoms: N_7  and  C_8 
REMARK    3  A    between atoms: C_8  and  C_9 
ROOT
HETATM    1  N   UNL     1      42.875 -17.210   1.457  1.00  0.00    -0.321 N 
HETATM    2  C   UNL     1      41.550 -16.901   1.202  1.00  0.00     0.280 C 
HETATM    3  O   UNL     1      40.581 -17.448   1.719  1.00  0.00    -0.265 OA
HETATM    4  H   UNL     1      43.544 -16.681   0.907  1.00  0.00     0.169 HD
ENDROOT
BRANCH   1   5
HETATM    5  C   UNL     1      43.388 -18.201   2.315  1.00  0.00     0.036 A 
HETATM    6  C   UNL     1      43.563 -19.535   1.944  1.00  0.00     0.046 A 
HETATM    7  C   UNL     1      44.140 -20.449   2.836  1.00  0.00     0.034 A 
HETATM    8  C   UNL     1      44.481 -20.044   4.130  1.00  0.00     0.017 A 
HETATM    9  C   UNL     1      44.283 -18.720   4.517  1.00  0.00     0.003 A 
HETATM   10  C   UNL     1      43.744 -17.803   3.611  1.00  0.00     0.029 A 
BRANCH   7  11
HETATM   11  C   UNL     1      44.341 -21.872   2.470  1.00  0.00     0.251 C 
HETATM   12  N   UNL     1      44.709 -22.796   3.415  1.00  0.00    -0.361 N 
HETATM   13  C   UNL     1      44.750 -22.658   4.854  1.00  0.00     0.149 C 
HETATM   14  H   UNL     1      44.840 -23.722   3.027  1.00  0.00     0.162 HD
HETATM   15  O   UNL     1      44.155 -22.228   1.309  1.00  0.00    -0.268 OA
ENDBRANCH   7  11
ENDBRANCH   1   5
BRANCH   2  16
HETATM   16  C   UNL     1      41.398 -15.855   0.209  1.00  0.00     0.144 A 
HETATM   17  O   UNL     1      41.166 -16.196  -1.100  1.00  0.00    -0.304 OA
HETATM   18  C   UNL     1      41.042 -15.035  -1.801  1.00  0.00     0.086 A 
HETATM   19  C   UNL     1      41.195 -13.940  -0.957  1.00  0.00     0.001 A 
HETATM   20  C   UNL     1      40.792 -14.938  -3.168  1.00  0.00     0.038 A 
HETATM   21  C   UNL     1      41.428 -14.479   0.333  1.00  0.00     0.057 A 
HETATM   22  C   UNL     1      41.090 -12.650  -1.504  1.00  0.00     0.014 A 
HETATM   23  C   UNL     1      40.837 -12.520  -2.877  1.00  0.00     0.001 A 
HETATM   24  C   UNL     1      40.692 -13.645  -3.693  1.00  0.00     0.003 A 
ENDBRANCH   2  16
TORSDOF 3
ENDMDL
MODEL 9
REMARK VINA RESULT:      -7.5      7.584      9.343
REMARK  3 active torsions:
REMARK  status: ('A' for Active; 'I' for Inactive)
REMARK       I    between atoms: N_2  and  C_3 
REMARK    1  A    between atoms: C_3  and  C_4 
REMARK    2  A    between atoms: C_6  and  N_7 
REMARK       I    between atoms: N_7  and  C_8 
REMARK    3  A    between atoms: C_8  and  C_9 
ROOT
HETATM    1  N   UNL     1      44.501 -13.945   7.725  1.00  0.00    -0.321 N 
HETATM    2  C   UNL     1      43.779 -14.149   6.562  1.00  0.00     0.280 C 
HETATM    3  O   UNL     1      43.100 -13.302   5.990  1.00  0.00    -0.265 OA
HETATM    4  H   UNL     1      44.973 -14.772   8.078  1.00  0.00     0.169 HD
ENDROOT
BRANCH   1   5
HETATM    5  C   UNL     1      44.594 -12.772   8.497  1.00  0.00     0.036 A 
HETATM    6  C   UNL     1      43.491 -12.103   9.030  1.00  0.00     0.046 A 
HETATM    7  C   UNL     1      43.671 -10.976   9.842  1.00  0.00     0.034 A 
HETATM    8  C   UNL     1      44.956 -10.474  10.069  1.00  0.00     0.017 A 
HETATM    9  C   UNL     1      46.060 -11.120   9.518  1.00  0.00     0.003 A 
HETATM   10  C   UNL     1      45.879 -12.267   8.741  1.00  0.00     0.029 A 
BRANCH   7  11
HETATM   11  C   UNL     1      42.519 -10.245  10.424  1.00  0.00     0.251 C 
HETATM   12  N   UNL     1      42.074 -10.527  11.691  1.00  0.00    -0.361 N 
HETATM   13  C   UNL     1      42.696 -11.337  12.714  1.00  0.00     0.149 C 
HETATM   14  H   UNL     1      41.265  -9.977  11.954  1.00  0.00     0.162 HD
HETATM   15  O   UNL     1      41.973  -9.361   9.769  1.00  0.00    -0.268 OA
ENDBRANCH   7  11
ENDBRANCH   1   5
BRANCH   2  16
HETATM   16  C   UNL     1      43.872 -15.511   6.074  1.00  0.00     0.144 A 
HETATM   17  O   UNL     1      43.406 -15.812   4.818  1.00  0.00    -0.304 OA
HETATM   18  C   UNL     1      43.637 -17.137   4.611  1.00  0.00     0.086 A 
HETATM   19  C   UNL     1      44.248 -17.703   5.724  1.00  0.00     0.001 A 
HETATM   20  C   UNL     1      43.319 -17.843   3.453  1.00  0.00     0.038 A 
HETATM   21  C   UNL     1      44.391 -16.649   6.662  1.00  0.00     0.057 A 
HETATM   22  C   UNL     1      44.572 -19.070   5.691  1.00  0.00     0.014 A 
HETATM   23  C   UNL     1      44.266 -19.807   4.538  1.00  0.00     0.001 A 
HETATM   24  C   UNL     1      43.649 -19.201   3.440  1.00  0.00     0.003 A 
ENDBRANCH   2  16
TORSDOF 3
ENDMDL
MODEL 10
REMARK VINA RESULT:      -7.5      6.480      9.057
REMARK  3 active torsions:
REMARK  status: ('A' for Active; 'I' for Inactive)
REMARK       I    between atoms: N_2  and  C_3 
REMARK    1  A    between atoms: C_3  and  C_4 
REMARK    2  A    between atoms: C_6  and  N_7 
REMARK       I    between atoms: N_7  and  C_8 
REMARK    3  A    between atoms: C_8  and  C_9 
ROOT
HETATM    1  N   UNL     1      43.452 -15.286   6.297  1.00  0.00    -0.321 N 
HETATM    2  C   UNL     1      43.994 -14.048   5.992  1.00  0.00     0.280 C 
HETATM    3  O   UNL     1      44.296 -13.663   4.867  1.00  0.00    -0.265 OA
HETATM    4  H   UNL     1      43.302 -15.447   7.288  1.00  0.00     0.169 HD
ENDROOT
BRANCH   1   5
HETATM    5  C   UNL     1      43.163 -16.348   5.420  1.00  0.00     0.036 A 
HETATM    6  C   UNL     1      43.946 -17.499   5.309  1.00  0.00     0.046 A 
HETATM    7  C   UNL     1      43.555 -18.541   4.459  1.00  0.00     0.034 A 
HETATM    8  C   UNL     1      42.414 -18.406   3.663  1.00  0.00     0.017 A 
HETATM    9  C   UNL     1      41.644 -17.249   3.747  1.00  0.00     0.003 A 
HETATM   10  C   UNL     1      42.014 -16.227   4.626  1.00  0.00     0.029 A 
BRANCH   7  11
HETATM   11  C   UNL     1      44.363 -19.777   4.321  1.00  0.00     0.251 C 
HETATM   12  N   UNL     1      44.523 -20.635   5.379  1.00  0.00    -0.361 N 
HETATM   13  C   UNL     1      43.830 -20.652   6.648  1.00  0.00     0.149 C 
HETATM   14  H   UNL     1      45.120 -21.423   5.159  1.00  0.00     0.162 HD
HETATM   15  O   UNL     1      44.878 -20.043   3.237  1.00  0.00    -0.268 OA
ENDBRANCH   7  11
ENDBRANCH   1   5
BRANCH   2  16
HETATM   16  C   UNL     1      44.209 -13.225   7.167  1.00  0.00     0.144 A 
HETATM   17  O   UNL     1      43.230 -12.349   7.565  1.00  0.00    -0.304 OA
HETATM   18  C   UNL     1      43.679 -11.731   8.692  1.00  0.00     0.086 A 
HETATM   19  C   UNL     1      44.946 -12.196   9.028  1.00  0.00     0.001 A 
HETATM   20  C   UNL     1      42.982 -10.771   9.421  1.00  0.00     0.038 A 
HETATM   21  C   UNL     1      45.280 -13.154   8.038  1.00  0.00     0.057 A 
HETATM   22  C   UNL     1      45.572 -11.675  10.174  1.00  0.00     0.014 A 
HETATM   23  C   UNL     1      44.893 -10.709  10.930  1.00  0.00     0.001 A 
HETATM   24  C   UNL     1      43.621 -10.265  10.558  1.00  0.00     0.003 A 
ENDBRANCH   2  16
TORSDOF 3
ENDMDL
