MODEL 1
REMARK VINA RESULT:      -8.2      0.000      0.000
REMARK  5 active torsions:
REMARK  status: ('A' for Active; 'I' for Inactive)
REMARK    1  A    between atoms: C_6  and  C_7 
REMARK    2  A    between atoms: C_7  and  C_8 
REMARK       I    between atoms: C_8  and  N_9 
REMARK    3  A    between atoms: N_9  and  N_10 
REMARK    4  A    between atoms: C_11  and  C_12 
REMARK    5  A    between atoms: C_13  and  O_14 
ROOT
HETATM    1  C   UNL     1      44.304 -12.886   8.922  1.00  0.00     0.244 C 
HETATM    2  N   UNL     1      44.070 -13.459   7.687  1.00  0.00    -0.247 N 
HETATM    3  O   UNL     1      44.794 -13.493   9.879  1.00  0.00    -0.271 OA
HETATM    4  H   UNL     1      43.552 -12.920   6.985  1.00  0.00     0.192 HD
ENDROOT
BRANCH   1   5
HETATM    5  C   UNL     1      44.030 -11.396   9.028  1.00  0.00     0.183 C 
BRANCH   5   6
HETATM    6  C   UNL     1      43.559 -10.940  10.370  1.00  0.00     0.114 A 
HETATM    7  N   UNL     1      44.146 -10.084  11.186  1.00  0.00    -0.233 NA
HETATM    8  C   UNL     1      43.350 -10.033  12.309  1.00  0.00     0.085 A 
HETATM    9  C   UNL     1      42.269 -10.895  12.186  1.00  0.00     0.062 A 
HETATM   10  C   UNL     1      43.494  -9.276  13.479  1.00  0.00     0.034 A 
HETATM   11  C   UNL     1      41.306 -11.067  13.182  1.00  0.00     0.032 A 
HETATM   12  N   UNL     1      42.420 -11.456  10.945  1.00  0.00    -0.342 N 
HETATM   13  C   UNL     1      41.468 -10.308  14.347  1.00  0.00     0.002 A 
HETATM   14  C   UNL     1      42.540  -9.424  14.495  1.00  0.00     0.002 A 
HETATM   15  H   UNL     1      41.804 -12.141  10.529  1.00  0.00     0.167 HD
ENDBRANCH   5   6
ENDBRANCH   1   5
BRANCH   2  16
HETATM   16  N   UNL     1      44.371 -14.767   7.472  1.00  0.00    -0.184 NA
HETATM   17  C   UNL     1      43.404 -15.489   7.003  1.00  0.00     0.153 C 
BRANCH  17  18
HETATM   18  C   UNL     1      43.609 -16.923   6.719  1.00  0.00     0.017 A 
HETATM   19  C   UNL     1      43.745 -17.871   7.741  1.00  0.00     0.077 A 
HETATM   20  C   UNL     1      43.941 -19.216   7.431  1.00  0.00     0.039 A 
HETATM   21  C   UNL     1      44.002 -19.621   6.098  1.00  0.00     0.022 A 
HETATM   22  C   UNL     1      43.867 -18.675   5.081  1.00  0.00     0.012 A 
HETATM   23 BR   UNL     1      43.954 -19.227   3.274  1.00  0.00    -0.051 Br
HETATM   24  C   UNL     1      43.670 -17.326   5.381  1.00  0.00     0.034 A 
BRANCH  19  25
HETATM   25  O   UNL     1      43.699 -17.556   9.071  1.00  0.00    -0.360 OA
HETATM   26  H   UNL     1      43.635 -16.576   9.159  1.00  0.00     0.217 HD
ENDBRANCH  19  25
ENDBRANCH  17  18
ENDBRANCH   2  16
TORSDOF 5
ENDMDL
MODEL 2
REMARK VINA RESULT:      -8.1      4.383      9.375
REMARK  5 active torsions:
REMARK  status: ('A' for Active; 'I' for Inactive)
REMARK    1  A    between atoms: C_6  and  C_7 
REMARK    2  A    between atoms: C_7  and  C_8 
REMARK       I    between atoms: C_8  and  N_9 
REMARK    3  A    between atoms: N_9  and  N_10 
REMARK    4  A    between atoms: C_11  and  C_12 
REMARK    5  A    between atoms: C_13  and  O_14 
ROOT
HETATM    1  C   UNL     1      43.403 -14.851   3.765  1.00  0.00     0.244 C 
HETATM    2  N   UNL     1      43.607 -14.921   5.130  1.00  0.00    -0.247 N 
HETATM    3  O   UNL     1      43.768 -13.903   3.064  1.00  0.00    -0.271 OA
HETATM    4  H   UNL     1      43.169 -15.686   5.654  1.00  0.00     0.192 HD
ENDROOT
BRANCH   1   5
HETATM    5  C   UNL     1      42.791 -16.081   3.119  1.00  0.00     0.183 C 
BRANCH   5   6
HETATM    6  C   UNL     1      43.198 -17.380   3.736  1.00  0.00     0.114 A 
HETATM    7  N   UNL     1      42.999 -17.782   4.978  1.00  0.00    -0.233 NA
HETATM    8  C   UNL     1      43.596 -19.019   5.069  1.00  0.00     0.085 A 
HETATM    9  C   UNL     1      44.192 -19.369   3.865  1.00  0.00     0.062 A 
HETATM   10  C   UNL     1      43.674 -19.902   6.155  1.00  0.00     0.034 A 
HETATM   11  C   UNL     1      44.890 -20.562   3.670  1.00  0.00     0.032 A 
HETATM   12  N   UNL     1      43.922 -18.314   3.032  1.00  0.00    -0.342 N 
HETATM   13  C   UNL     1      44.964 -21.430   4.767  1.00  0.00     0.002 A 
HETATM   14  C   UNL     1      44.365 -21.110   5.988  1.00  0.00     0.002 A 
HETATM   15  H   UNL     1      44.215 -18.234   2.069  1.00  0.00     0.167 HD
ENDBRANCH   5   6
ENDBRANCH   1   5
BRANCH   2  16
HETATM   16  N   UNL     1      44.231 -13.904   5.782  1.00  0.00    -0.184 NA
HETATM   17  C   UNL     1      44.368 -14.064   7.059  1.00  0.00     0.153 C 
BRANCH  17  18
HETATM   18  C   UNL     1      45.037 -13.034   7.877  1.00  0.00     0.017 A 
HETATM   19  C   UNL     1      46.306 -12.537   7.552  1.00  0.00     0.077 A 
HETATM   20  C   UNL     1      46.907 -11.567   8.352  1.00  0.00     0.039 A 
HETATM   21  C   UNL     1      46.243 -11.088   9.482  1.00  0.00     0.022 A 
HETATM   22  C   UNL     1      44.980 -11.585   9.804  1.00  0.00     0.012 A 
HETATM   23 BR   UNL     1      44.084 -10.935  11.337  1.00  0.00    -0.051 Br
HETATM   24  C   UNL     1      44.369 -12.556   9.009  1.00  0.00     0.034 A 
BRANCH  19  25
HETATM   25  O   UNL     1      47.024 -12.955   6.466  1.00  0.00    -0.360 OA
HETATM   26  H   UNL     1      46.446 -12.900   5.669  1.00  0.00     0.217 HD
ENDBRANCH  19  25
ENDBRANCH  17  18
ENDBRANCH   2  16
TORSDOF 5
ENDMDL
MODEL 3
REMARK VINA RESULT:      -8.0      9.564     12.130
REMARK  5 active torsions:
REMARK  status: ('A' for Active; 'I' for Inactive)
REMARK    1  A    between atoms: C_6  and  C_7 
REMARK    2  A    between atoms: C_7  and  C_8 
REMARK       I    between atoms: C_8  and  N_9 
REMARK    3  A    between atoms: N_9  and  N_10 
REMARK    4  A    between atoms: C_11  and  C_12 
REMARK    5  A    between atoms: C_13  and  O_14 
ROOT
HETATM    1  C   UNL     1      42.331 -16.974   0.934  1.00  0.00     0.244 C 
HETATM    2  N   UNL     1      42.179 -15.987  -0.021  1.00  0.00    -0.247 N 
HETATM    3  O   UNL     1      41.438 -17.765   1.252  1.00  0.00    -0.271 OA
HETATM    4  H   UNL     1      42.929 -15.299  -0.140  1.00  0.00     0.192 HD
ENDROOT
BRANCH   1   5
HETATM    5  C   UNL     1      43.724 -17.127   1.518  1.00  0.00     0.183 C 
BRANCH   5   6
HETATM    6  C   UNL     1      43.946 -18.390   2.285  1.00  0.00     0.114 A 
HETATM    7  N   UNL     1      44.264 -18.516   3.561  1.00  0.00    -0.233 NA
HETATM    8  C   UNL     1      44.402 -19.868   3.778  1.00  0.00     0.085 A 
HETATM    9  C   UNL     1      44.190 -20.581   2.605  1.00  0.00     0.062 A 
HETATM   10  C   UNL     1      44.717 -20.563   4.954  1.00  0.00     0.034 A 
HETATM   11  C   UNL     1      44.286 -21.971   2.522  1.00  0.00     0.032 A 
HETATM   12  N   UNL     1      43.897 -19.621   1.672  1.00  0.00    -0.342 N 
HETATM   13  C   UNL     1      44.607 -22.648   3.704  1.00  0.00     0.002 A 
HETATM   14  C   UNL     1      44.816 -21.959   4.902  1.00  0.00     0.002 A 
HETATM   15  H   UNL     1      43.691 -19.790   0.697  1.00  0.00     0.167 HD
ENDBRANCH   5   6
ENDBRANCH   1   5
BRANCH   2  16
HETATM   16  N   UNL     1      40.991 -15.835  -0.664  1.00  0.00    -0.184 NA
HETATM   17  C   UNL     1      40.983 -14.957  -1.615  1.00  0.00     0.153 C 
BRANCH  17  18
HETATM   18  C   UNL     1      39.755 -14.707  -2.395  1.00  0.00     0.017 A 
HETATM   19  C   UNL     1      39.206 -15.674  -3.246  1.00  0.00     0.077 A 
HETATM   20  C   UNL     1      38.046 -15.398  -3.969  1.00  0.00     0.039 A 
HETATM   21  C   UNL     1      37.430 -14.152  -3.846  1.00  0.00     0.022 A 
HETATM   22  C   UNL     1      37.979 -13.190  -2.999  1.00  0.00     0.012 A 
HETATM   23 BR   UNL     1      37.143 -11.502  -2.836  1.00  0.00    -0.051 Br
HETATM   24  C   UNL     1      39.139 -13.457  -2.270  1.00  0.00     0.034 A 
BRANCH  19  25
HETATM   25  O   UNL     1      39.749 -16.916  -3.425  1.00  0.00    -0.360 OA
HETATM   26  H   UNL     1      39.600 -17.191  -4.360  1.00  0.00     0.217 HD
ENDBRANCH  19  25
ENDBRANCH  17  18
ENDBRANCH   2  16
TORSDOF 5
ENDMDL
MODEL 4
REMARK VINA RESULT:      -8.0      1.980      2.520
REMARK  5 active torsions:
REMARK  status: ('A' for Active; 'I' for Inactive)
REMARK    1  A    between atoms: C_6  and  C_7 
REMARK    2  A    between atoms: C_7  and  C_8 
REMARK       I    between atoms: C_8  and  N_9 
REMARK    3  A    between atoms: N_9  and  N_10 
REMARK    4  A    between atoms: C_11  and  C_12 
REMARK    5  A    between atoms: C_13  and  O_14 
ROOT
HETATM    1  C   UNL     1      45.565 -13.214   7.516  1.00  0.00     0.244 C 
HETATM    2  N   UNL     1      44.389 -13.933   7.617  1.00  0.00    -0.247 N 
HETATM    3  O   UNL     1      46.277 -13.201   6.509  1.00  0.00    -0.271 OA
HETATM    4  H   UNL     1      43.920 -13.983   8.528  1.00  0.00     0.192 HD
ENDROOT
BRANCH   1   5
HETATM    5  C   UNL     1      45.902 -12.320   8.696  1.00  0.00     0.183 C 
BRANCH   5   6
HETATM    6  C   UNL     1      44.720 -11.835   9.471  1.00  0.00     0.114 A 
HETATM    7  N   UNL     1      43.744 -11.050   9.052  1.00  0.00    -0.233 NA
HETATM    8  C   UNL     1      42.927 -10.856  10.143  1.00  0.00     0.085 A 
HETATM    9  C   UNL     1      43.428 -11.516  11.258  1.00  0.00     0.062 A 
HETATM   10  C   UNL     1      41.740 -10.120  10.258  1.00  0.00     0.034 A 
HETATM   11  C   UNL     1      42.816 -11.478  12.512  1.00  0.00     0.032 A 
HETATM   12  N   UNL     1      44.564 -12.135  10.805  1.00  0.00    -0.342 N 
HETATM   13  C   UNL     1      41.635 -10.733  12.611  1.00  0.00     0.002 A 
HETATM   14  C   UNL     1      41.101 -10.068  11.504  1.00  0.00     0.002 A 
HETATM   15  H   UNL     1      45.186 -12.704  11.362  1.00  0.00     0.167 HD
ENDBRANCH   5   6
ENDBRANCH   1   5
BRANCH   2  16
HETATM   16  N   UNL     1      43.959 -14.691   6.574  1.00  0.00    -0.184 NA
HETATM   17  C   UNL     1      44.079 -15.970   6.731  1.00  0.00     0.153 C 
BRANCH  17  18
HETATM   18  C   UNL     1      43.640 -16.901   5.673  1.00  0.00     0.017 A 
HETATM   19  C   UNL     1      42.522 -16.638   4.870  1.00  0.00     0.077 A 
HETATM   20  C   UNL     1      42.137 -17.544   3.883  1.00  0.00     0.039 A 
HETATM   21  C   UNL     1      42.867 -18.718   3.693  1.00  0.00     0.022 A 
HETATM   22  C   UNL     1      43.979 -18.977   4.494  1.00  0.00     0.012 A 
HETATM   23 BR   UNL     1      44.965 -20.571   4.235  1.00  0.00    -0.051 Br
HETATM   24  C   UNL     1      44.374 -18.077   5.484  1.00  0.00     0.034 A 
BRANCH  19  25
HETATM   25  O   UNL     1      41.753 -15.514   4.994  1.00  0.00    -0.360 OA
HETATM   26  H   UNL     1      40.924 -15.645   4.477  1.00  0.00     0.217 HD
ENDBRANCH  19  25
ENDBRANCH  17  18
ENDBRANCH   2  16
TORSDOF 5
ENDMDL
MODEL 5
REMARK VINA RESULT:      -7.9      8.042     10.999
REMARK  5 active torsions:
REMARK  status: ('A' for Active; 'I' for Inactive)
REMARK    1  A    between atoms: C_6  and  C_7 
REMARK    2  A    between atoms: C_7  and  C_8 
REMARK       I    between atoms: C_8  and  N_9 
REMARK    3  A    between atoms: N_9  and  N_10 
REMARK    4  A    between atoms: C_11  and  C_12 
REMARK    5  A    between atoms: C_13  and  O_14 
ROOT
HETATM    1  C   UNL     1      41.901 -13.645   1.384  1.00  0.00     0.244 C 
HETATM    2  N   UNL     1      41.720 -15.015   1.353  1.00  0.00    -0.247 N 
HETATM    3  O   UNL     1      42.802 -13.085   2.014  1.00  0.00    -0.271 OA
HETATM    4  H   UNL     1      40.879 -15.389   0.903  1.00  0.00     0.192 HD
ENDROOT
BRANCH   1   5
HETATM    5  C   UNL     1      40.983 -12.832   0.488  1.00  0.00     0.183 C 
BRANCH   5   6
HETATM    6  C   UNL     1      40.383 -13.594  -0.649  1.00  0.00     0.114 A 
HETATM    7  N   UNL     1      40.961 -14.512  -1.402  1.00  0.00    -0.233 NA
HETATM    8  C   UNL     1      40.017 -14.877  -2.335  1.00  0.00     0.085 A 
HETATM    9  C   UNL     1      38.847 -14.149  -2.163  1.00  0.00     0.062 A 
HETATM   10  C   UNL     1      40.092 -15.822  -3.367  1.00  0.00     0.034 A 
HETATM   11  C   UNL     1      37.725 -14.295  -2.981  1.00  0.00     0.032 A 
HETATM   12  N   UNL     1      39.102 -13.345  -1.084  1.00  0.00    -0.342 N 
HETATM   13  C   UNL     1      37.819 -15.239  -4.011  1.00  0.00     0.002 A 
HETATM   14  C   UNL     1      38.979 -15.993  -4.201  1.00  0.00     0.002 A 
HETATM   15  H   UNL     1      38.460 -12.675  -0.684  1.00  0.00     0.167 HD
ENDBRANCH   5   6
ENDBRANCH   1   5
BRANCH   2  16
HETATM   16  N   UNL     1      42.553 -15.830   2.053  1.00  0.00    -0.184 NA
HETATM   17  C   UNL     1      42.211 -17.078   2.085  1.00  0.00     0.153 C 
BRANCH  17  18
HETATM   18  C   UNL     1      43.039 -18.065   2.805  1.00  0.00     0.017 A 
HETATM   19  C   UNL     1      43.580 -17.799   4.070  1.00  0.00     0.077 A 
HETATM   20  C   UNL     1      44.360 -18.756   4.716  1.00  0.00     0.039 A 
HETATM   21  C   UNL     1      44.605 -19.984   4.102  1.00  0.00     0.022 A 
HETATM   22  C   UNL     1      44.066 -20.247   2.842  1.00  0.00     0.012 A 
HETATM   23 BR   UNL     1      44.402 -21.912   2.011  1.00  0.00    -0.051 Br
HETATM   24  C   UNL     1      43.283 -19.296   2.187  1.00  0.00     0.034 A 
BRANCH  19  25
HETATM   25  O   UNL     1      43.390 -16.621   4.738  1.00  0.00    -0.360 OA
HETATM   26  H   UNL     1      42.648 -16.134   4.309  1.00  0.00     0.217 HD
ENDBRANCH  19  25
ENDBRANCH  17  18
ENDBRANCH   2  16
TORSDOF 5
ENDMDL
MODEL 6
REMARK VINA RESULT:      -7.8      5.494      9.993
REMARK  5 active torsions:
REMARK  status: ('A' for Active; 'I' for Inactive)
REMARK    1  A    between atoms: C_6  and  C_7 
REMARK    2  A    between atoms: C_7  and  C_8 
REMARK       I    between atoms: C_8  and  N_9 
REMARK    3  A    between atoms: N_9  and  N_10 
REMARK    4  A    between atoms: C_11  and  C_12 
REMARK    5  A    between atoms: C_13  and  O_14 
ROOT
HETATM    1  C   UNL     1      43.821 -17.189   7.040  1.00  0.00     0.244 C 
HETATM    2  N   UNL     1      43.439 -16.342   6.017  1.00  0.00    -0.247 N 
HETATM    3  O   UNL     1      43.259 -17.239   8.137  1.00  0.00    -0.271 OA
HETATM    4  H   UNL     1      44.031 -16.280   5.183  1.00  0.00     0.192 HD
ENDROOT
BRANCH   1   5
HETATM    5  C   UNL     1      44.929 -18.173   6.710  1.00  0.00     0.183 C 
BRANCH   5   6
HETATM    6  C   UNL     1      44.706 -18.974   5.468  1.00  0.00     0.114 A 
HETATM    7  N   UNL     1      44.218 -18.557   4.314  1.00  0.00    -0.233 NA
HETATM    8  C   UNL     1      44.164 -19.672   3.508  1.00  0.00     0.085 A 
HETATM    9  C   UNL     1      44.605 -20.797   4.192  1.00  0.00     0.062 A 
HETATM   10  C   UNL     1      43.741 -19.800   2.178  1.00  0.00     0.034 A 
HETATM   11  C   UNL     1      44.641 -22.074   3.629  1.00  0.00     0.032 A 
HETATM   12  N   UNL     1      44.949 -20.328   5.433  1.00  0.00    -0.342 N 
HETATM   13  C   UNL     1      44.209 -22.185   2.301  1.00  0.00     0.002 A 
HETATM   14  C   UNL     1      43.770 -21.069   1.585  1.00  0.00     0.002 A 
HETATM   15  H   UNL     1      45.309 -20.886   6.194  1.00  0.00     0.167 HD
ENDBRANCH   5   6
ENDBRANCH   1   5
BRANCH   2  16
HETATM   16  N   UNL     1      42.394 -15.489   6.191  1.00  0.00    -0.184 NA
HETATM   17  C   UNL     1      42.486 -14.364   5.557  1.00  0.00     0.153 C 
BRANCH  17  18
HETATM   18  C   UNL     1      41.411 -13.357   5.658  1.00  0.00     0.017 A 
HETATM   19  C   UNL     1      40.061 -13.718   5.745  1.00  0.00     0.077 A 
HETATM   20  C   UNL     1      39.075 -12.736   5.835  1.00  0.00     0.039 A 
HETATM   21  C   UNL     1      39.433 -11.388   5.837  1.00  0.00     0.022 A 
HETATM   22  C   UNL     1      40.779 -11.031   5.749  1.00  0.00     0.012 A 
HETATM   23 BR   UNL     1      41.261  -9.202   5.750  1.00  0.00    -0.051 Br
HETATM   24  C   UNL     1      41.774 -12.006   5.660  1.00  0.00     0.034 A 
BRANCH  19  25
HETATM   25  O   UNL     1      39.626 -15.015   5.746  1.00  0.00    -0.360 OA
HETATM   26  H   UNL     1      40.406 -15.606   5.626  1.00  0.00     0.217 HD
ENDBRANCH  19  25
ENDBRANCH  17  18
ENDBRANCH   2  16
TORSDOF 5
ENDMDL
MODEL 7
REMARK VINA RESULT:      -7.8      1.932      2.249
REMARK  5 active torsions:
REMARK  status: ('A' for Active; 'I' for Inactive)
REMARK    1  A    between atoms: C_6  and  C_7 
REMARK    2  A    between atoms: C_7  and  C_8 
REMARK       I    between atoms: C_8  and  N_9 
REMARK    3  A    between atoms: N_9  and  N_10 
REMARK    4  A    between atoms: C_11  and  C_12 
REMARK    5  A    between atoms: C_13  and  O_14 
ROOT
HETATM    1  C   UNL     1      41.772 -12.538   6.207  1.00  0.00     0.244 C 
HETATM    2  N   UNL     1      42.963 -13.190   6.467  1.00  0.00    -0.247 N 
HETATM    3  O   UNL     1      40.797 -13.075   5.676  1.00  0.00    -0.271 OA
HETATM    4  H   UNL     1      43.761 -12.641   6.801  1.00  0.00     0.192 HD
ENDROOT
BRANCH   1   5
HETATM    5  C   UNL     1      41.668 -11.113   6.721  1.00  0.00     0.183 C 
BRANCH   5   6
HETATM    6  C   UNL     1      42.089 -10.928   8.143  1.00  0.00     0.114 A 
HETATM    7  N   UNL     1      43.308 -10.716   8.604  1.00  0.00    -0.233 NA
HETATM    8  C   UNL     1      43.184 -10.662   9.974  1.00  0.00     0.085 A 
HETATM    9  C   UNL     1      41.866 -10.869  10.358  1.00  0.00     0.062 A 
HETATM   10  C   UNL     1      44.159 -10.445  10.957  1.00  0.00     0.034 A 
HETATM   11  C   UNL     1      41.447 -10.889  11.690  1.00  0.00     0.032 A 
HETATM   12  N   UNL     1      41.188 -11.031   9.178  1.00  0.00    -0.342 N 
HETATM   13  C   UNL     1      42.435 -10.677  12.660  1.00  0.00     0.002 A 
HETATM   14  C   UNL     1      43.767 -10.454  12.303  1.00  0.00     0.002 A 
HETATM   15  H   UNL     1      40.198 -11.206   9.087  1.00  0.00     0.167 HD
ENDBRANCH   5   6
ENDBRANCH   1   5
BRANCH   2  16
HETATM   16  N   UNL     1      43.115 -14.497   6.125  1.00  0.00    -0.184 NA
HETATM   17  C   UNL     1      43.404 -15.296   7.101  1.00  0.00     0.153 C 
BRANCH  17  18
HETATM   18  C   UNL     1      43.586 -16.741   6.859  1.00  0.00     0.017 A 
HETATM   19  C   UNL     1      43.655 -17.667   7.908  1.00  0.00     0.077 A 
HETATM   20  C   UNL     1      43.831 -19.023   7.638  1.00  0.00     0.039 A 
HETATM   21  C   UNL     1      43.940 -19.461   6.318  1.00  0.00     0.022 A 
HETATM   22  C   UNL     1      43.872 -18.537   5.275  1.00  0.00     0.012 A 
HETATM   23 BR   UNL     1      44.023 -19.135   3.487  1.00  0.00    -0.051 Br
HETATM   24  C   UNL     1      43.695 -17.178   5.534  1.00  0.00     0.034 A 
BRANCH  19  25
HETATM   25  O   UNL     1      43.559 -17.319   9.227  1.00  0.00    -0.360 OA
HETATM   26  H   UNL     1      44.413 -16.912   9.506  1.00  0.00     0.217 HD
ENDBRANCH  19  25
ENDBRANCH  17  18
ENDBRANCH   2  16
TORSDOF 5
ENDMDL
MODEL 8
REMARK VINA RESULT:      -7.6      8.360     10.509
REMARK  5 active torsions:
REMARK  status: ('A' for Active; 'I' for Inactive)
REMARK    1  A    between atoms: C_6  and  C_7 
REMARK    2  A    between atoms: C_7  and  C_8 
REMARK       I    between atoms: C_8  and  N_9 
REMARK    3  A    between atoms: N_9  and  N_10 
REMARK    4  A    between atoms: C_11  and  C_12 
REMARK    5  A    between atoms: C_13  and  O_14 
ROOT
HETATM    1  C   UNL     1      39.446 -15.132   2.098  1.00  0.00     0.244 C 
HETATM    2  N   UNL     1      39.839 -16.392   1.691  1.00  0.00    -0.247 N 
HETATM    3  O   UNL     1      39.809 -14.607   3.155  1.00  0.00    -0.271 OA
HETATM    4  H   UNL     1      39.399 -16.800   0.859  1.00  0.00     0.192 HD
ENDROOT
BRANCH   1   5
HETATM    5  C   UNL     1      38.610 -14.342   1.107  1.00  0.00     0.183 C 
BRANCH   5   6
HETATM    6  C   UNL     1      39.369 -13.800  -0.060  1.00  0.00     0.114 A 
HETATM    7  N   UNL     1      38.967 -13.711  -1.315  1.00  0.00    -0.233 NA
HETATM    8  C   UNL     1      40.035 -13.191  -2.012  1.00  0.00     0.085 A 
HETATM    9  C   UNL     1      41.119 -12.982  -1.169  1.00  0.00     0.062 A 
HETATM   10  C   UNL     1      40.154 -12.878  -3.373  1.00  0.00     0.034 A 
HETATM   11  C   UNL     1      42.347 -12.482  -1.606  1.00  0.00     0.032 A 
HETATM   12  N   UNL     1      40.670 -13.371   0.066  1.00  0.00    -0.342 N 
HETATM   13  C   UNL     1      42.450 -12.180  -2.969  1.00  0.00     0.002 A 
HETATM   14  C   UNL     1      41.374 -12.369  -3.839  1.00  0.00     0.002 A 
HETATM   15  H   UNL     1      41.209 -13.355   0.920  1.00  0.00     0.167 HD
ENDBRANCH   5   6
ENDBRANCH   1   5
BRANCH   2  16
HETATM   16  N   UNL     1      40.664 -17.138   2.473  1.00  0.00    -0.184 NA
HETATM   17  C   UNL     1      41.723 -17.595   1.885  1.00  0.00     0.153 C 
BRANCH  17  18
HETATM   18  C   UNL     1      42.701 -18.411   2.631  1.00  0.00     0.017 A 
HETATM   19  C   UNL     1      43.226 -18.000   3.862  1.00  0.00     0.077 A 
HETATM   20  C   UNL     1      44.151 -18.797   4.534  1.00  0.00     0.039 A 
HETATM   21  C   UNL     1      44.558 -20.010   3.977  1.00  0.00     0.022 A 
HETATM   22  C   UNL     1      44.035 -20.417   2.750  1.00  0.00     0.012 A 
HETATM   23 BR   UNL     1      44.590 -22.061   1.997  1.00  0.00    -0.051 Br
HETATM   24  C   UNL     1      43.107 -19.627   2.070  1.00  0.00     0.034 A 
BRANCH  19  25
HETATM   25  O   UNL     1      42.882 -16.826   4.474  1.00  0.00    -0.360 OA
HETATM   26  H   UNL     1      41.917 -16.674   4.340  1.00  0.00     0.217 HD
ENDBRANCH  19  25
ENDBRANCH  17  18
ENDBRANCH   2  16
TORSDOF 5
ENDMDL
MODEL 9
REMARK VINA RESULT:      -7.4      3.384      3.991
REMARK  5 active torsions:
REMARK  status: ('A' for Active; 'I' for Inactive)
REMARK    1  A    between atoms: C_6  and  C_7 
REMARK    2  A    between atoms: C_7  and  C_8 
REMARK       I    between atoms: C_8  and  N_9 
REMARK    3  A    between atoms: N_9  and  N_10 
REMARK    4  A    between atoms: C_11  and  C_12 
REMARK    5  A    between atoms: C_13  and  O_14 
ROOT
HETATM    1  C   UNL     1      40.074 -12.022   6.987  1.00  0.00     0.244 C 
HETATM    2  N   UNL     1      39.786 -13.363   6.823  1.00  0.00    -0.247 N 
HETATM    3  O   UNL     1      40.721 -11.354   6.176  1.00  0.00    -0.271 OA
HETATM    4  H   UNL     1      39.347 -13.870   7.598  1.00  0.00     0.192 HD
ENDROOT
BRANCH   1   5
HETATM    5  C   UNL     1      39.446 -11.349   8.195  1.00  0.00     0.183 C 
BRANCH   5   6
HETATM    6  C   UNL     1      40.372 -11.144   9.349  1.00  0.00     0.114 A 
HETATM    7  N   UNL     1      40.073 -11.138  10.636  1.00  0.00    -0.233 NA
HETATM    8  C   UNL     1      41.251 -10.863  11.291  1.00  0.00     0.085 A 
HETATM    9  C   UNL     1      42.286 -10.671  10.386  1.00  0.00     0.062 A 
HETATM   10  C   UNL     1      41.512 -10.753  12.664  1.00  0.00     0.034 A 
HETATM   11  C   UNL     1      43.592 -10.357  10.767  1.00  0.00     0.032 A 
HETATM   12  N   UNL     1      41.705 -10.860   9.159  1.00  0.00    -0.342 N 
HETATM   13  C   UNL     1      43.834 -10.244  12.141  1.00  0.00     0.002 A 
HETATM   14  C   UNL     1      42.815 -10.442  13.076  1.00  0.00     0.002 A 
HETATM   15  H   UNL     1      42.175 -10.791   8.268  1.00  0.00     0.167 HD
ENDBRANCH   5   6
ENDBRANCH   1   5
BRANCH   2  16
HETATM   16  N   UNL     1      40.230 -14.028   5.723  1.00  0.00    -0.184 NA
HETATM   17  C   UNL     1      40.614 -15.247   5.929  1.00  0.00     0.153 C 
BRANCH  17  18
HETATM   18  C   UNL     1      41.109 -16.076   4.812  1.00  0.00     0.017 A 
HETATM   19  C   UNL     1      40.554 -16.000   3.528  1.00  0.00     0.077 A 
HETATM   20  C   UNL     1      41.047 -16.803   2.501  1.00  0.00     0.039 A 
HETATM   21  C   UNL     1      42.097 -17.687   2.751  1.00  0.00     0.022 A 
HETATM   22  C   UNL     1      42.647 -17.761   4.031  1.00  0.00     0.012 A 
HETATM   23 BR   UNL     1      44.069 -18.962   4.368  1.00  0.00    -0.051 Br
HETATM   24  C   UNL     1      42.162 -16.961   5.066  1.00  0.00     0.034 A 
BRANCH  19  25
HETATM   25  O   UNL     1      39.523 -15.163   3.201  1.00  0.00    -0.360 OA
HETATM   26  H   UNL     1      39.371 -15.220   2.229  1.00  0.00     0.217 HD
ENDBRANCH  19  25
ENDBRANCH  17  18
ENDBRANCH   2  16
TORSDOF 5
ENDMDL
MODEL 10
REMARK VINA RESULT:      -7.4      7.666     10.944
REMARK  5 active torsions:
REMARK  status: ('A' for Active; 'I' for Inactive)
REMARK    1  A    between atoms: C_6  and  C_7 
REMARK    2  A    between atoms: C_7  and  C_8 
REMARK       I    between atoms: C_8  and  N_9 
REMARK    3  A    between atoms: N_9  and  N_10 
REMARK    4  A    between atoms: C_11  and  C_12 
REMARK    5  A    between atoms: C_13  and  O_14 
ROOT
HETATM    1  C   UNL     1      43.015 -15.446   3.475  1.00  0.00     0.244 C 
HETATM    2  N   UNL     1      41.819 -15.768   2.863  1.00  0.00    -0.247 N 
HETATM    3  O   UNL     1      43.610 -14.379   3.301  1.00  0.00    -0.271 OA
HETATM    4  H   UNL     1      41.452 -16.720   2.969  1.00  0.00     0.192 HD
ENDROOT
BRANCH   1   5
HETATM    5  C   UNL     1      43.531 -16.446   4.495  1.00  0.00     0.183 C 
BRANCH   5   6
HETATM    6  C   UNL     1      43.737 -17.828   3.966  1.00  0.00     0.114 A 
HETATM    7  N   UNL     1      43.348 -18.316   2.802  1.00  0.00    -0.233 NA
HETATM    8  C   UNL     1      43.730 -19.639   2.806  1.00  0.00     0.085 A 
HETATM    9  C   UNL     1      44.343 -19.972   4.007  1.00  0.00     0.062 A 
HETATM   10  C   UNL     1      43.579 -20.621   1.817  1.00  0.00     0.034 A 
HETATM   11  C   UNL     1      44.814 -21.253   4.299  1.00  0.00     0.032 A 
HETATM   12  N   UNL     1      44.341 -18.805   4.725  1.00  0.00    -0.342 N 
HETATM   13  C   UNL     1      44.650 -22.223   3.303  1.00  0.00     0.002 A 
HETATM   14  C   UNL     1      44.047 -21.915   2.081  1.00  0.00     0.002 A 
HETATM   15  H   UNL     1      44.710 -18.687   5.658  1.00  0.00     0.167 HD
ENDBRANCH   5   6
ENDBRANCH   1   5
BRANCH   2  16
HETATM   16  N   UNL     1      41.233 -14.893   2.003  1.00  0.00    -0.184 NA
HETATM   17  C   UNL     1      41.393 -15.158   0.746  1.00  0.00     0.153 C 
BRANCH  17  18
HETATM   18  C   UNL     1      40.798 -14.287  -0.286  1.00  0.00     0.017 A 
HETATM   19  C   UNL     1      39.418 -14.056  -0.357  1.00  0.00     0.077 A 
HETATM   20  C   UNL     1      38.894 -13.229  -1.350  1.00  0.00     0.039 A 
HETATM   21  C   UNL     1      39.746 -12.630  -2.278  1.00  0.00     0.022 A 
HETATM   22  C   UNL     1      41.119 -12.863  -2.206  1.00  0.00     0.012 A 
HETATM   23 BR   UNL     1      42.271 -12.051  -3.467  1.00  0.00    -0.051 Br
HETATM   24  C   UNL     1      41.654 -13.688  -1.215  1.00  0.00     0.034 A 
BRANCH  19  25
HETATM   25  O   UNL     1      38.516 -14.606   0.511  1.00  0.00    -0.360 OA
HETATM   26  H   UNL     1      37.607 -14.388   0.198  1.00  0.00     0.217 HD
ENDBRANCH  19  25
ENDBRANCH  17  18
ENDBRANCH   2  16
TORSDOF 5
ENDMDL
