MODEL 1
REMARK VINA RESULT:      -9.7      0.000      0.000
REMARK  1 active torsions:
REMARK  status: ('A' for Active; 'I' for Inactive)
REMARK    1  A    between atoms: C_4  and  C_5 
REMARK       I    between atoms: C_5  and  N_6 
ROOT
HETATM    1  C   UNL     1      43.480 -17.221   1.970  1.00  0.00     0.275 C 
HETATM    2  N   UNL     1      42.162 -17.177   1.529  1.00  0.00    -0.342 N 
HETATM    3  C   UNL     1      41.906 -16.675   0.170  1.00  0.00     0.167 C 
HETATM    4  C   UNL     1      41.021 -15.470   0.256  1.00  0.00    -0.005 A 
HETATM    5  C   UNL     1      40.349 -15.103   1.408  1.00  0.00     0.020 A 
HETATM    6  N   UNL     1      39.643 -13.963   1.158  1.00  0.00    -0.358 N 
HETATM    7  H   UNL     1      39.077 -13.457   1.825  1.00  0.00     0.166 HD
HETATM    8  C   UNL     1      39.808 -13.597  -0.163  1.00  0.00     0.043 A 
HETATM    9  C   UNL     1      40.670 -14.529  -0.752  1.00  0.00     0.000 A 
HETATM   10  C   UNL     1      39.266 -12.520  -0.874  1.00  0.00     0.030 A 
HETATM   11  C   UNL     1      39.607 -12.396  -2.225  1.00  0.00     0.002 A 
HETATM   12  C   UNL     1      40.458 -13.311  -2.839  1.00  0.00     0.001 A 
HETATM   13  C   UNL     1      40.999 -14.379  -2.113  1.00  0.00     0.014 A 
HETATM   14  C   UNL     1      40.422 -15.836   2.706  1.00  0.00     0.077 C 
HETATM   15  C   UNL     1      40.983 -17.251   2.420  1.00  0.00     0.132 C 
HETATM   16  O   UNL     1      44.460 -16.972   1.275  1.00  0.00    -0.266 OA
ENDROOT
BRANCH   1  17
HETATM   17  C   UNL     1      43.744 -17.692   3.391  1.00  0.00     0.156 A 
HETATM   18  N   UNL     1      43.678 -16.804   4.340  1.00  0.00    -0.164 NA
HETATM   19  N   UNL     1      43.893 -17.207   5.635  1.00  0.00    -0.238 N 
HETATM   20  C   UNL     1      43.806 -16.181   6.656  1.00  0.00     0.183 C 
HETATM   21  C   UNL     1      44.236 -18.503   6.012  1.00  0.00     0.274 A 
HETATM   22  C   UNL     1      44.327 -19.498   4.929  1.00  0.00     0.046 A 
HETATM   23  O   UNL     1      44.452 -18.845   7.172  1.00  0.00    -0.266 OA
HETATM   24  C   UNL     1      44.069 -19.111   3.618  1.00  0.00     0.016 A 
HETATM   25  C   UNL     1      44.666 -20.827   5.218  1.00  0.00     0.018 A 
HETATM   26  C   UNL     1      44.142 -20.056   2.588  1.00  0.00     0.015 A 
HETATM   27  C   UNL     1      44.483 -21.381   2.877  1.00  0.00     0.001 A 
HETATM   28  C   UNL     1      44.746 -21.766   4.190  1.00  0.00     0.001 A 
ENDBRANCH   1  17
TORSDOF 1
ENDMDL
MODEL 2
REMARK VINA RESULT:      -9.3      4.339      6.025
REMARK  1 active torsions:
REMARK  status: ('A' for Active; 'I' for Inactive)
REMARK    1  A    between atoms: C_4  and  C_5 
REMARK       I    between atoms: C_5  and  N_6 
ROOT
HETATM    1  C   UNL     1      43.193 -14.275   4.297  1.00  0.00     0.275 C 
HETATM    2  N   UNL     1      41.911 -13.737   4.261  1.00  0.00    -0.342 N 
HETATM    3  C   UNL     1      41.749 -12.316   4.607  1.00  0.00     0.167 C 
HETATM    4  C   UNL     1      40.840 -12.206   5.793  1.00  0.00    -0.005 A 
HETATM    5  C   UNL     1      40.077 -13.259   6.263  1.00  0.00     0.020 A 
HETATM    6  N   UNL     1      39.373 -12.836   7.352  1.00  0.00    -0.358 N 
HETATM    7  H   UNL     1      38.750 -13.401   7.912  1.00  0.00     0.166 HD
HETATM    8  C   UNL     1      39.631 -11.499   7.578  1.00  0.00     0.043 A 
HETATM    9  C   UNL     1      40.550 -11.079   6.611  1.00  0.00     0.000 A 
HETATM   10  C   UNL     1      39.125 -10.637   8.559  1.00  0.00     0.030 A 
HETATM   11  C   UNL     1      39.564  -9.309   8.546  1.00  0.00     0.002 A 
HETATM   12  C   UNL     1      40.475  -8.862   7.592  1.00  0.00     0.001 A 
HETATM   13  C   UNL     1      40.978  -9.737   6.622  1.00  0.00     0.014 A 
HETATM   14  C   UNL     1      40.065 -14.631   5.676  1.00  0.00     0.077 C 
HETATM   15  C   UNL     1      40.670 -14.542   4.253  1.00  0.00     0.132 C 
HETATM   16  O   UNL     1      44.218 -13.630   4.494  1.00  0.00    -0.266 OA
ENDROOT
BRANCH   1  17
HETATM   17  C   UNL     1      43.357 -15.754   3.988  1.00  0.00     0.156 A 
HETATM   18  N   UNL     1      43.451 -16.099   2.736  1.00  0.00    -0.164 NA
HETATM   19  N   UNL     1      43.620 -17.427   2.430  1.00  0.00    -0.238 N 
HETATM   20  C   UNL     1      43.722 -17.760   1.023  1.00  0.00     0.183 C 
HETATM   21  C   UNL     1      43.641 -18.457   3.367  1.00  0.00     0.274 A 
HETATM   22  C   UNL     1      43.515 -18.059   4.781  1.00  0.00     0.046 A 
HETATM   23  O   UNL     1      43.766 -19.644   3.079  1.00  0.00    -0.266 OA
HETATM   24  C   UNL     1      43.388 -16.713   5.106  1.00  0.00     0.016 A 
HETATM   25  C   UNL     1      43.528 -19.030   5.791  1.00  0.00     0.018 A 
HETATM   26  C   UNL     1      43.280 -16.329   6.448  1.00  0.00     0.015 A 
HETATM   27  C   UNL     1      43.290 -17.299   7.455  1.00  0.00     0.001 A 
HETATM   28  C   UNL     1      43.413 -18.648   7.128  1.00  0.00     0.001 A 
ENDBRANCH   1  17
TORSDOF 1
ENDMDL
MODEL 3
REMARK VINA RESULT:      -9.2      2.984      7.720
REMARK  1 active torsions:
REMARK  status: ('A' for Active; 'I' for Inactive)
REMARK    1  A    between atoms: C_4  and  C_5 
REMARK       I    between atoms: C_5  and  N_6 
ROOT
HETATM    1  C   UNL     1      40.347 -15.665   2.485  1.00  0.00     0.275 C 
HETATM    2  N   UNL     1      41.713 -15.885   2.344  1.00  0.00    -0.342 N 
HETATM    3  C   UNL     1      42.149 -17.159   1.749  1.00  0.00     0.167 C 
HETATM    4  C   UNL     1      42.999 -17.892   2.741  1.00  0.00    -0.005 A 
HETATM    5  C   UNL     1      43.501 -17.306   3.889  1.00  0.00     0.020 A 
HETATM    6  N   UNL     1      44.221 -18.239   4.576  1.00  0.00    -0.358 N 
HETATM    7  H   UNL     1      44.683 -18.096   5.463  1.00  0.00     0.166 HD
HETATM    8  C   UNL     1      44.235 -19.425   3.869  1.00  0.00     0.043 A 
HETATM    9  C   UNL     1      43.474 -19.232   2.711  1.00  0.00     0.000 A 
HETATM   10  C   UNL     1      44.857 -20.643   4.166  1.00  0.00     0.030 A 
HETATM   11  C   UNL     1      44.705 -21.690   3.251  1.00  0.00     0.002 A 
HETATM   12  C   UNL     1      43.957 -21.526   2.088  1.00  0.00     0.001 A 
HETATM   13  C   UNL     1      43.334 -20.304   1.807  1.00  0.00     0.014 A 
HETATM   14  C   UNL     1      43.258 -15.892   4.299  1.00  0.00     0.077 C 
HETATM   15  C   UNL     1      42.758 -15.117   3.055  1.00  0.00     0.132 C 
HETATM   16  O   UNL     1      39.470 -16.407   2.056  1.00  0.00    -0.266 OA
ENDROOT
BRANCH   1  17
HETATM   17  C   UNL     1      39.896 -14.372   3.144  1.00  0.00     0.156 A 
HETATM   18  N   UNL     1      39.879 -14.335   4.445  1.00  0.00    -0.164 NA
HETATM   19  N   UNL     1      39.494 -13.172   5.066  1.00  0.00    -0.238 N 
HETATM   20  C   UNL     1      39.495 -13.180   6.516  1.00  0.00     0.183 C 
HETATM   21  C   UNL     1      39.058 -12.029   4.401  1.00  0.00     0.274 A 
HETATM   22  C   UNL     1      39.063 -12.086   2.928  1.00  0.00     0.046 A 
HETATM   23  O   UNL     1      38.691 -11.003   4.969  1.00  0.00    -0.266 OA
HETATM   24  C   UNL     1      39.492 -13.243   2.288  1.00  0.00     0.016 A 
HETATM   25  C   UNL     1      38.641 -10.980   2.178  1.00  0.00     0.018 A 
HETATM   26  C   UNL     1      39.509 -13.297   0.888  1.00  0.00     0.015 A 
HETATM   27  C   UNL     1      39.085 -12.194   0.141  1.00  0.00     0.001 A 
HETATM   28  C   UNL     1      38.651 -11.038   0.784  1.00  0.00     0.001 A 
ENDBRANCH   1  17
TORSDOF 1
ENDMDL
MODEL 4
REMARK VINA RESULT:      -9.2      2.037      7.805
REMARK  1 active torsions:
REMARK  status: ('A' for Active; 'I' for Inactive)
REMARK    1  A    between atoms: C_4  and  C_5 
REMARK       I    between atoms: C_5  and  N_6 
ROOT
HETATM    1  C   UNL     1      41.443 -16.959   1.221  1.00  0.00     0.275 C 
HETATM    2  N   UNL     1      42.771 -17.187   1.566  1.00  0.00    -0.342 N 
HETATM    3  C   UNL     1      43.288 -18.560   1.450  1.00  0.00     0.167 C 
HETATM    4  C   UNL     1      43.749 -19.020   2.799  1.00  0.00    -0.005 A 
HETATM    5  C   UNL     1      43.912 -18.168   3.876  1.00  0.00     0.020 A 
HETATM    6  N   UNL     1      44.329 -18.898   4.951  1.00  0.00    -0.358 N 
HETATM    7  H   UNL     1      44.506 -18.539   5.879  1.00  0.00     0.166 HD
HETATM    8  C   UNL     1      44.486 -20.218   4.580  1.00  0.00     0.043 A 
HETATM    9  C   UNL     1      44.127 -20.321   3.232  1.00  0.00     0.000 A 
HETATM   10  C   UNL     1      44.912 -21.320   5.331  1.00  0.00     0.030 A 
HETATM   11  C   UNL     1      44.982 -22.559   4.685  1.00  0.00     0.002 A 
HETATM   12  C   UNL     1      44.636 -22.690   3.342  1.00  0.00     0.001 A 
HETATM   13  C   UNL     1      44.205 -21.581   2.605  1.00  0.00     0.014 A 
HETATM   14  C   UNL     1      43.642 -16.701   3.850  1.00  0.00     0.077 C 
HETATM   15  C   UNL     1      43.594 -16.255   2.367  1.00  0.00     0.132 C 
HETATM   16  O   UNL     1      40.695 -17.796   0.726  1.00  0.00    -0.266 OA
ENDROOT
BRANCH   1  17
HETATM   17  C   UNL     1      40.892 -15.553   1.387  1.00  0.00     0.156 A 
HETATM   18  N   UNL     1      40.523 -15.189   2.580  1.00  0.00    -0.164 NA
HETATM   19  N   UNL     1      40.040 -13.916   2.762  1.00  0.00    -0.238 N 
HETATM   20  C   UNL     1      39.646 -13.558   4.110  1.00  0.00     0.183 C 
HETATM   21  C   UNL     1      39.858 -12.988   1.740  1.00  0.00     0.274 A 
HETATM   22  C   UNL     1      40.261 -13.415   0.387  1.00  0.00     0.046 A 
HETATM   23  O   UNL     1      39.400 -11.861   1.910  1.00  0.00    -0.266 OA
HETATM   24  C   UNL     1      40.792 -14.686   0.199  1.00  0.00     0.016 A 
HETATM   25  C   UNL     1      40.113 -12.544  -0.701  1.00  0.00     0.018 A 
HETATM   26  C   UNL     1      41.187 -15.091  -1.082  1.00  0.00     0.015 A 
HETATM   27  C   UNL     1      41.037 -14.223  -2.167  1.00  0.00     0.001 A 
HETATM   28  C   UNL     1      40.500 -12.951  -1.978  1.00  0.00     0.001 A 
ENDBRANCH   1  17
TORSDOF 1
ENDMDL
MODEL 5
REMARK VINA RESULT:      -9.1      2.428      7.454
REMARK  1 active torsions:
REMARK  status: ('A' for Active; 'I' for Inactive)
REMARK    1  A    between atoms: C_4  and  C_5 
REMARK       I    between atoms: C_5  and  N_6 
ROOT
HETATM    1  C   UNL     1      41.449 -16.120   1.448  1.00  0.00     0.275 C 
HETATM    2  N   UNL     1      42.771 -16.475   1.693  1.00  0.00    -0.342 N 
HETATM    3  C   UNL     1      43.188 -17.848   1.366  1.00  0.00     0.167 C 
HETATM    4  C   UNL     1      43.671 -18.518   2.616  1.00  0.00    -0.005 A 
HETATM    5  C   UNL     1      43.936 -17.835   3.789  1.00  0.00     0.020 A 
HETATM    6  N   UNL     1      44.346 -18.731   4.733  1.00  0.00    -0.358 N 
HETATM    7  H   UNL     1      44.585 -18.516   5.690  1.00  0.00     0.166 HD
HETATM    8  C   UNL     1      44.397 -19.995   4.179  1.00  0.00     0.043 A 
HETATM    9  C   UNL     1      43.977 -19.888   2.849  1.00  0.00     0.000 A 
HETATM   10  C   UNL     1      44.777 -21.214   4.752  1.00  0.00     0.030 A 
HETATM   11  C   UNL     1      44.736 -22.353   3.942  1.00  0.00     0.002 A 
HETATM   12  C   UNL     1      44.327 -22.276   2.613  1.00  0.00     0.001 A 
HETATM   13  C   UNL     1      43.943 -21.051   2.055  1.00  0.00     0.014 A 
HETATM   14  C   UNL     1      43.766 -16.364   3.974  1.00  0.00     0.077 C 
HETATM   15  C   UNL     1      43.688 -15.716   2.570  1.00  0.00     0.132 C 
HETATM   16  O   UNL     1      40.625 -16.832   0.882  1.00  0.00    -0.266 OA
ENDROOT
BRANCH   1  17
HETATM   17  C   UNL     1      41.002 -14.718   1.829  1.00  0.00     0.156 A 
HETATM   18  N   UNL     1      41.014 -13.810   0.898  1.00  0.00    -0.164 NA
HETATM   19  N   UNL     1      40.596 -12.539   1.211  1.00  0.00    -0.238 N 
HETATM   20  C   UNL     1      40.625 -11.565   0.138  1.00  0.00     0.183 C 
HETATM   21  C   UNL     1      40.209 -12.127   2.484  1.00  0.00     0.274 A 
HETATM   22  C   UNL     1      40.217 -13.158   3.537  1.00  0.00     0.046 A 
HETATM   23  O   UNL     1      39.863 -10.980   2.758  1.00  0.00    -0.266 OA
HETATM   24  C   UNL     1      40.596 -14.458   3.222  1.00  0.00     0.016 A 
HETATM   25  C   UNL     1      39.841 -12.831   4.847  1.00  0.00     0.018 A 
HETATM   26  C   UNL     1      40.593 -15.443   4.217  1.00  0.00     0.015 A 
HETATM   27  C   UNL     1      40.221 -15.116   5.524  1.00  0.00     0.001 A 
HETATM   28  C   UNL     1      39.846 -13.812   5.839  1.00  0.00     0.001 A 
ENDBRANCH   1  17
TORSDOF 1
ENDMDL
MODEL 6
REMARK VINA RESULT:      -9.0      1.789      2.926
REMARK  1 active torsions:
REMARK  status: ('A' for Active; 'I' for Inactive)
REMARK    1  A    between atoms: C_4  and  C_5 
REMARK       I    between atoms: C_5  and  N_6 
ROOT
HETATM    1  C   UNL     1      43.557 -17.312   1.622  1.00  0.00     0.275 C 
HETATM    2  N   UNL     1      42.272 -17.202   1.101  1.00  0.00    -0.342 N 
HETATM    3  C   UNL     1      41.946 -16.003   0.314  1.00  0.00     0.167 C 
HETATM    4  C   UNL     1      40.818 -15.277   0.980  1.00  0.00    -0.005 A 
HETATM    5  C   UNL     1      40.053 -15.829   1.992  1.00  0.00     0.020 A 
HETATM    6  N   UNL     1      39.122 -14.913   2.385  1.00  0.00    -0.358 N 
HETATM    7  H   UNL     1      38.444 -15.036   3.123  1.00  0.00     0.166 HD
HETATM    8  C   UNL     1      39.237 -13.776   1.611  1.00  0.00     0.043 A 
HETATM    9  C   UNL     1      40.295 -13.980   0.719  1.00  0.00     0.000 A 
HETATM   10  C   UNL     1      38.490 -12.591   1.633  1.00  0.00     0.030 A 
HETATM   11  C   UNL     1      38.829 -11.592   0.715  1.00  0.00     0.002 A 
HETATM   12  C   UNL     1      39.875 -11.770  -0.187  1.00  0.00     0.001 A 
HETATM   13  C   UNL     1      40.618 -12.956  -0.194  1.00  0.00     0.014 A 
HETATM   14  C   UNL     1      40.253 -17.194   2.561  1.00  0.00     0.077 C 
HETATM   15  C   UNL     1      41.116 -18.002   1.562  1.00  0.00     0.132 C 
HETATM   16  O   UNL     1      44.476 -16.533   1.389  1.00  0.00    -0.266 OA
ENDROOT
BRANCH   1  17
HETATM   17  C   UNL     1      43.881 -18.525   2.477  1.00  0.00     0.156 A 
HETATM   18  N   UNL     1      44.076 -19.657   1.864  1.00  0.00    -0.164 NA
HETATM   19  N   UNL     1      44.391 -20.765   2.611  1.00  0.00    -0.238 N 
HETATM   20  C   UNL     1      44.601 -22.000   1.882  1.00  0.00     0.183 C 
HETATM   21  C   UNL     1      44.462 -20.786   4.002  1.00  0.00     0.274 A 
HETATM   22  C   UNL     1      44.222 -19.504   4.689  1.00  0.00     0.046 A 
HETATM   23  O   UNL     1      44.718 -21.790   4.661  1.00  0.00    -0.266 OA
HETATM   24  C   UNL     1      43.945 -18.366   3.940  1.00  0.00     0.016 A 
HETATM   25  C   UNL     1      44.275 -19.432   6.088  1.00  0.00     0.018 A 
HETATM   26  C   UNL     1      43.728 -17.143   4.589  1.00  0.00     0.015 A 
HETATM   27  C   UNL     1      43.779 -17.074   5.984  1.00  0.00     0.001 A 
HETATM   28  C   UNL     1      44.051 -18.216   6.733  1.00  0.00     0.001 A 
ENDBRANCH   1  17
TORSDOF 1
ENDMDL
MODEL 7
REMARK VINA RESULT:      -9.0      1.361      3.062
REMARK  1 active torsions:
REMARK  status: ('A' for Active; 'I' for Inactive)
REMARK    1  A    between atoms: C_4  and  C_5 
REMARK       I    between atoms: C_5  and  N_6 
ROOT
HETATM    1  C   UNL     1      43.309 -17.134   2.190  1.00  0.00     0.275 C 
HETATM    2  N   UNL     1      42.013 -17.171   1.687  1.00  0.00    -0.342 N 
HETATM    3  C   UNL     1      41.829 -16.982   0.239  1.00  0.00     0.167 C 
HETATM    4  C   UNL     1      40.971 -15.776   0.012  1.00  0.00    -0.005 A 
HETATM    5  C   UNL     1      40.257 -15.153   1.020  1.00  0.00     0.020 A 
HETATM    6  N   UNL     1      39.591 -14.088   0.488  1.00  0.00    -0.358 N 
HETATM    7  H   UNL     1      39.009 -13.438   0.997  1.00  0.00     0.166 HD
HETATM    8  C   UNL     1      39.824 -14.029  -0.872  1.00  0.00     0.043 A 
HETATM    9  C   UNL     1      40.688 -15.080  -1.196  1.00  0.00     0.000 A 
HETATM   10  C   UNL     1      39.340 -13.131  -1.830  1.00  0.00     0.030 A 
HETATM   11  C   UNL     1      39.743 -13.316  -3.156  1.00  0.00     0.002 A 
HETATM   12  C   UNL     1      40.598 -14.357  -3.509  1.00  0.00     0.001 A 
HETATM   13  C   UNL     1      41.080 -15.243  -2.539  1.00  0.00     0.014 A 
HETATM   14  C   UNL     1      40.255 -15.578   2.450  1.00  0.00     0.077 C 
HETATM   15  C   UNL     1      40.795 -17.028   2.514  1.00  0.00     0.132 C 
HETATM   16  O   UNL     1      44.324 -17.060   1.506  1.00  0.00    -0.266 OA
ENDROOT
BRANCH   1  17
HETATM   17  C   UNL     1      43.498 -17.279   3.691  1.00  0.00     0.156 A 
HETATM   18  N   UNL     1      43.634 -18.483   4.166  1.00  0.00    -0.164 NA
HETATM   19  N   UNL     1      43.826 -18.641   5.517  1.00  0.00    -0.238 N 
HETATM   20  C   UNL     1      43.974 -20.001   5.996  1.00  0.00     0.183 C 
HETATM   21  C   UNL     1      43.830 -17.599   6.441  1.00  0.00     0.274 A 
HETATM   22  C   UNL     1      43.657 -16.240   5.896  1.00  0.00     0.046 A 
HETATM   23  O   UNL     1      43.976 -17.755   7.650  1.00  0.00    -0.266 OA
HETATM   24  C   UNL     1      43.505 -16.064   4.526  1.00  0.00     0.016 A 
HETATM   25  C   UNL     1      43.649 -15.132   6.754  1.00  0.00     0.018 A 
HETATM   26  C   UNL     1      43.353 -14.774   4.003  1.00  0.00     0.015 A 
HETATM   27  C   UNL     1      43.343 -13.669   4.860  1.00  0.00     0.001 A 
HETATM   28  C   UNL     1      43.490 -13.848   6.234  1.00  0.00     0.001 A 
ENDBRANCH   1  17
TORSDOF 1
ENDMDL
MODEL 8
REMARK VINA RESULT:      -8.9      3.635      7.483
REMARK  1 active torsions:
REMARK  status: ('A' for Active; 'I' for Inactive)
REMARK    1  A    between atoms: C_4  and  C_5 
REMARK       I    between atoms: C_5  and  N_6 
ROOT
HETATM    1  C   UNL     1      42.764 -14.167   5.113  1.00  0.00     0.275 C 
HETATM    2  N   UNL     1      42.102 -15.390   5.102  1.00  0.00    -0.342 N 
HETATM    3  C   UNL     1      42.900 -16.608   5.315  1.00  0.00     0.167 C 
HETATM    4  C   UNL     1      42.768 -17.492   4.113  1.00  0.00    -0.005 A 
HETATM    5  C   UNL     1      41.819 -17.293   3.127  1.00  0.00     0.020 A 
HETATM    6  N   UNL     1      41.970 -18.259   2.175  1.00  0.00    -0.358 N 
HETATM    7  H   UNL     1      41.428 -18.345   1.327  1.00  0.00     0.166 HD
HETATM    8  C   UNL     1      42.983 -19.120   2.547  1.00  0.00     0.043 A 
HETATM    9  C   UNL     1      43.500 -18.660   3.763  1.00  0.00     0.000 A 
HETATM   10  C   UNL     1      43.476 -20.261   1.903  1.00  0.00     0.030 A 
HETATM   11  C   UNL     1      44.521 -20.956   2.522  1.00  0.00     0.002 A 
HETATM   12  C   UNL     1      45.052 -20.524   3.735  1.00  0.00     0.001 A 
HETATM   13  C   UNL     1      44.554 -19.377   4.364  1.00  0.00     0.014 A 
HETATM   14  C   UNL     1      40.824 -16.181   3.115  1.00  0.00     0.077 C 
HETATM   15  C   UNL     1      40.747 -15.599   4.548  1.00  0.00     0.132 C 
HETATM   16  O   UNL     1      43.948 -14.014   5.391  1.00  0.00    -0.266 OA
ENDROOT
BRANCH   1  17
HETATM   17  C   UNL     1      41.950 -12.912   4.843  1.00  0.00     0.156 A 
HETATM   18  N   UNL     1      41.423 -12.306   5.868  1.00  0.00    -0.164 NA
HETATM   19  N   UNL     1      40.700 -11.158   5.654  1.00  0.00    -0.238 N 
HETATM   20  C   UNL     1      40.137 -10.520   6.827  1.00  0.00     0.183 C 
HETATM   21  C   UNL     1      40.434 -10.615   4.400  1.00  0.00     0.274 A 
HETATM   22  C   UNL     1      41.019 -11.317   3.244  1.00  0.00     0.046 A 
HETATM   23  O   UNL     1      39.763  -9.602   4.220  1.00  0.00    -0.266 OA
HETATM   24  C   UNL     1      41.790 -12.456   3.451  1.00  0.00     0.016 A 
HETATM   25  C   UNL     1      40.804 -10.840   1.944  1.00  0.00     0.018 A 
HETATM   26  C   UNL     1      42.357 -13.120   2.357  1.00  0.00     0.015 A 
HETATM   27  C   UNL     1      42.139 -12.644   1.060  1.00  0.00     0.001 A 
HETATM   28  C   UNL     1      41.363 -11.506   0.854  1.00  0.00     0.001 A 
ENDBRANCH   1  17
TORSDOF 1
ENDMDL
MODEL 9
REMARK VINA RESULT:      -8.9      3.225      7.937
REMARK  1 active torsions:
REMARK  status: ('A' for Active; 'I' for Inactive)
REMARK    1  A    between atoms: C_4  and  C_5 
REMARK       I    between atoms: C_5  and  N_6 
ROOT
HETATM    1  C   UNL     1      42.663 -14.140   3.436  1.00  0.00     0.275 C 
HETATM    2  N   UNL     1      41.953 -15.330   3.555  1.00  0.00    -0.342 N 
HETATM    3  C   UNL     1      42.610 -16.461   4.229  1.00  0.00     0.167 C 
HETATM    4  C   UNL     1      42.706 -17.608   3.271  1.00  0.00    -0.005 A 
HETATM    5  C   UNL     1      42.022 -17.652   2.069  1.00  0.00     0.020 A 
HETATM    6  N   UNL     1      42.333 -18.818   1.433  1.00  0.00    -0.358 N 
HETATM    7  H   UNL     1      41.995 -19.106   0.525  1.00  0.00     0.166 HD
HETATM    8  C   UNL     1      43.182 -19.565   2.224  1.00  0.00     0.043 A 
HETATM    9  C   UNL     1      43.432 -18.826   3.386  1.00  0.00     0.000 A 
HETATM   10  C   UNL     1      43.744 -20.827   2.000  1.00  0.00     0.030 A 
HETATM   11  C   UNL     1      44.577 -21.353   2.993  1.00  0.00     0.002 A 
HETATM   12  C   UNL     1      44.840 -20.642   4.162  1.00  0.00     0.001 A 
HETATM   13  C   UNL     1      44.277 -19.378   4.369  1.00  0.00     0.014 A 
HETATM   14  C   UNL     1      41.121 -16.576   1.563  1.00  0.00     0.077 C 
HETATM   15  C   UNL     1      40.751 -15.666   2.761  1.00  0.00     0.132 C 
HETATM   16  O   UNL     1      43.759 -13.925   3.943  1.00  0.00    -0.266 OA
ENDROOT
BRANCH   1  17
HETATM   17  C   UNL     1      42.006 -12.987   2.697  1.00  0.00     0.156 A 
HETATM   18  N   UNL     1      42.432 -12.722   1.496  1.00  0.00    -0.164 NA
HETATM   19  N   UNL     1      41.841 -11.697   0.798  1.00  0.00    -0.238 N 
HETATM   20  C   UNL     1      42.349 -11.445  -0.537  1.00  0.00     0.183 C 
HETATM   21  C   UNL     1      40.845 -10.868   1.305  1.00  0.00     0.274 A 
HETATM   22  C   UNL     1      40.381 -11.162   2.673  1.00  0.00     0.046 A 
HETATM   23  O   UNL     1      40.343  -9.937   0.680  1.00  0.00    -0.266 OA
HETATM   24  C   UNL     1      40.941 -12.225   3.374  1.00  0.00     0.016 A 
HETATM   25  C   UNL     1      39.380 -10.379   3.263  1.00  0.00     0.018 A 
HETATM   26  C   UNL     1      40.495 -12.516   4.669  1.00  0.00     0.015 A 
HETATM   27  C   UNL     1      39.498 -11.732   5.257  1.00  0.00     0.001 A 
HETATM   28  C   UNL     1      38.942 -10.664   4.556  1.00  0.00     0.001 A 
ENDBRANCH   1  17
TORSDOF 1
ENDMDL
MODEL 10
REMARK VINA RESULT:      -8.9      3.093      4.186
REMARK  1 active torsions:
REMARK  status: ('A' for Active; 'I' for Inactive)
REMARK    1  A    between atoms: C_4  and  C_5 
REMARK       I    between atoms: C_5  and  N_6 
ROOT
HETATM    1  C   UNL     1      41.384 -15.941   5.643  1.00  0.00     0.275 C 
HETATM    2  N   UNL     1      41.956 -14.679   5.519  1.00  0.00    -0.342 N 
HETATM    3  C   UNL     1      41.058 -13.512   5.516  1.00  0.00     0.167 C 
HETATM    4  C   UNL     1      41.223 -12.777   4.222  1.00  0.00    -0.005 A 
HETATM    5  C   UNL     1      42.259 -13.019   3.338  1.00  0.00     0.020 A 
HETATM    6  N   UNL     1      42.116 -12.195   2.261  1.00  0.00    -0.358 N 
HETATM    7  H   UNL     1      42.717 -12.171   1.449  1.00  0.00     0.166 HD
HETATM    8  C   UNL     1      41.018 -11.379   2.446  1.00  0.00     0.043 A 
HETATM    9  C   UNL     1      40.440 -11.724   3.671  1.00  0.00     0.000 A 
HETATM   10  C   UNL     1      40.498 -10.370   1.626  1.00  0.00     0.030 A 
HETATM   11  C   UNL     1      39.360  -9.691   2.075  1.00  0.00     0.002 A 
HETATM   12  C   UNL     1      38.766 -10.010   3.293  1.00  0.00     0.001 A 
HETATM   13  C   UNL     1      39.293 -11.026   4.099  1.00  0.00     0.014 A 
HETATM   14  C   UNL     1      43.329 -14.040   3.541  1.00  0.00     0.077 C 
HETATM   15  C   UNL     1      43.332 -14.431   5.039  1.00  0.00     0.132 C 
HETATM   16  O   UNL     1      40.195 -16.153   5.854  1.00  0.00    -0.266 OA
ENDROOT
BRANCH   1  17
HETATM   17  C   UNL     1      42.304 -17.149   5.597  1.00  0.00     0.156 A 
HETATM   18  N   UNL     1      42.813 -17.560   6.721  1.00  0.00    -0.164 NA
HETATM   19  N   UNL     1      43.632 -18.663   6.711  1.00  0.00    -0.238 N 
HETATM   20  C   UNL     1      44.172 -19.082   7.989  1.00  0.00     0.183 C 
HETATM   21  C   UNL     1      44.011 -19.353   5.563  1.00  0.00     0.274 A 
HETATM   22  C   UNL     1      43.444 -18.870   4.290  1.00  0.00     0.046 A 
HETATM   23  O   UNL     1      44.766 -20.322   5.563  1.00  0.00    -0.266 OA
HETATM   24  C   UNL     1      42.580 -17.781   4.294  1.00  0.00     0.016 A 
HETATM   25  C   UNL     1      43.772 -19.506   3.085  1.00  0.00     0.018 A 
HETATM   26  C   UNL     1      42.029 -17.327   3.089  1.00  0.00     0.015 A 
HETATM   27  C   UNL     1      42.359 -17.960   1.887  1.00  0.00     0.001 A 
HETATM   28  C   UNL     1      43.229 -19.048   1.885  1.00  0.00     0.001 A 
ENDBRANCH   1  17
TORSDOF 1
ENDMDL
