MODEL 1
REMARK VINA RESULT:      -9.2      0.000      0.000
REMARK  6 active torsions:
REMARK  status: ('A' for Active; 'I' for Inactive)
REMARK    1  A    between atoms: C_3  and  N_4 
REMARK       I    between atoms: N_4  and  C_5 
REMARK       I    between atoms: C_5  and  N_6 
REMARK    2  A    between atoms: N_6  and  N_7 
REMARK       I    between atoms: N_7  and  C_8 
REMARK    3  A    between atoms: C_8  and  C_9 
REMARK    4  A    between atoms: C_9  and  N_10 
REMARK       I    between atoms: N_10  and  C_11 
REMARK       I    between atoms: C_11  and  N_12 
REMARK    5  A    between atoms: N_12  and  C_13 
REMARK    6  A    between atoms: C_16  and  O_17 
ROOT
HETATM    1  N   UNL     1      44.026 -13.850   7.749  1.00  0.00    -0.265 N 
HETATM    2  C   UNL     1      43.970 -14.186   6.403  1.00  0.00     0.253 C 
HETATM    3  O   UNL     1      44.694 -13.654   5.561  1.00  0.00    -0.270 OA
HETATM    4  H   UNL     1      43.757 -14.587   8.412  1.00  0.00     0.190 HD
ENDROOT
BRANCH   2   5
HETATM    5  C   UNL     1      43.119 -15.411   6.068  1.00  0.00     0.228 C 
BRANCH   5   6
HETATM    6  N   UNL     1      43.464 -16.156   4.871  1.00  0.00    -0.334 N 
HETATM    7  C   UNL     1      42.761 -16.066   3.718  1.00  0.00     0.321 C 
HETATM    8  N   UNL     1      42.966 -17.023   2.775  1.00  0.00    -0.309 N 
HETATM    9  O   UNL     1      42.006 -15.119   3.500  1.00  0.00    -0.247 OA
HETATM   10  H   UNL     1      42.548 -16.772   1.887  1.00  0.00     0.170 HD
HETATM   11  H   UNL     1      44.397 -16.542   4.798  1.00  0.00     0.164 HD
BRANCH   8  12
HETATM   12  C   UNL     1      43.467 -18.340   2.864  1.00  0.00     0.036 A 
HETATM   13  C   UNL     1      44.247 -18.823   3.915  1.00  0.00     0.032 A 
HETATM   14  C   UNL     1      44.661 -20.161   3.936  1.00  0.00     0.039 A 
HETATM   15  C   UNL     1      44.279 -21.045   2.928  1.00  0.00     0.068 A 
HETATM   16  C   UNL     1      43.494 -20.574   1.880  1.00  0.00     0.039 A 
HETATM   17  C   UNL     1      43.089 -19.232   1.852  1.00  0.00     0.032 A 
BRANCH  15  18
HETATM   18  O   UNL     1      44.735 -22.324   3.083  1.00  0.00    -0.356 OA
HETATM   19  C   UNL     1      44.668 -22.870   4.394  1.00  0.00     0.210 C 
ENDBRANCH  15  18
ENDBRANCH   8  12
ENDBRANCH   5   6
ENDBRANCH   2   5
BRANCH   1  20
HETATM   20  N   UNL     1      45.135 -13.049   8.117  1.00  0.00    -0.249 N 
HETATM   21  C   UNL     1      44.997 -11.912   8.886  1.00  0.00     0.339 C 
HETATM   22  N   UNL     1      43.869 -11.903   9.671  1.00  0.00    -0.307 N 
HETATM   23  O   UNL     1      45.872 -11.055   8.841  1.00  0.00    -0.245 OA
HETATM   24  H   UNL     1      43.351 -12.766   9.632  1.00  0.00     0.170 HD
HETATM   25  H   UNL     1      45.858 -12.956   7.402  1.00  0.00     0.192 HD
BRANCH  22  26
HETATM   26  C   UNL     1      43.433 -10.890  10.552  1.00  0.00     0.042 A 
HETATM   27  C   UNL     1      42.409 -10.011  10.134  1.00  0.00    -0.034 A 
HETATM   28  C   UNL     1      41.745 -10.133   8.788  1.00  0.00     0.050 C 
HETATM   29  C   UNL     1      41.981  -8.988  11.001  1.00  0.00     0.032 A 
HETATM   30  C   UNL     1      42.554  -8.840  12.263  1.00  0.00     0.034 A 
HETATM   31  C   UNL     1      43.560  -9.701  12.677  1.00  0.00     0.026 A 
HETATM   32 CL   UNL     1      42.015  -7.583  13.307  1.00  0.00    -0.084 Cl
HETATM   33  C   UNL     1      43.995 -10.719  11.825  1.00  0.00     0.032 A 
ENDBRANCH  22  26
ENDBRANCH   1  20
TORSDOF 6
ENDMDL
MODEL 2
REMARK VINA RESULT:      -9.1      1.614      1.743
REMARK  6 active torsions:
REMARK  status: ('A' for Active; 'I' for Inactive)
REMARK    1  A    between atoms: C_3  and  N_4 
REMARK       I    between atoms: N_4  and  C_5 
REMARK       I    between atoms: C_5  and  N_6 
REMARK    2  A    between atoms: N_6  and  N_7 
REMARK       I    between atoms: N_7  and  C_8 
REMARK    3  A    between atoms: C_8  and  C_9 
REMARK    4  A    between atoms: C_9  and  N_10 
REMARK       I    between atoms: N_10  and  C_11 
REMARK       I    between atoms: C_11  and  N_12 
REMARK    5  A    between atoms: N_12  and  C_13 
REMARK    6  A    between atoms: C_16  and  O_17 
ROOT
HETATM    1  N   UNL     1      43.827 -12.891   7.777  1.00  0.00    -0.265 N 
HETATM    2  C   UNL     1      43.941 -13.799   6.732  1.00  0.00     0.253 C 
HETATM    3  O   UNL     1      44.728 -14.746   6.766  1.00  0.00    -0.270 OA
HETATM    4  H   UNL     1      42.911 -12.438   7.887  1.00  0.00     0.190 HD
ENDROOT
BRANCH   2   5
HETATM    5  C   UNL     1      42.874 -13.682   5.643  1.00  0.00     0.228 C 
BRANCH   5   6
HETATM    6  N   UNL     1      42.475 -14.903   4.968  1.00  0.00    -0.334 N 
HETATM    7  C   UNL     1      41.414 -15.648   5.358  1.00  0.00     0.321 C 
HETATM    8  N   UNL     1      41.316 -16.914   4.872  1.00  0.00    -0.309 N 
HETATM    9  O   UNL     1      40.532 -15.181   6.078  1.00  0.00    -0.247 OA
HETATM   10  H   UNL     1      40.408 -17.320   5.063  1.00  0.00     0.170 HD
HETATM   11  H   UNL     1      42.816 -15.067   4.030  1.00  0.00     0.164 HD
BRANCH   8  12
HETATM   12  C   UNL     1      42.284 -17.797   4.347  1.00  0.00     0.036 A 
HETATM   13  C   UNL     1      43.152 -18.573   5.116  1.00  0.00     0.032 A 
HETATM   14  C   UNL     1      44.050 -19.455   4.501  1.00  0.00     0.039 A 
HETATM   15  C   UNL     1      44.076 -19.601   3.115  1.00  0.00     0.068 A 
HETATM   16  C   UNL     1      43.208 -18.838   2.340  1.00  0.00     0.039 A 
HETATM   17  C   UNL     1      42.316 -17.946   2.954  1.00  0.00     0.032 A 
BRANCH  15  18
HETATM   18  O   UNL     1      44.985 -20.509   2.651  1.00  0.00    -0.356 OA
HETATM   19  C   UNL     1      44.476 -21.780   2.265  1.00  0.00     0.210 C 
ENDBRANCH  15  18
ENDBRANCH   8  12
ENDBRANCH   5   6
ENDBRANCH   2   5
BRANCH   1  20
HETATM   20  N   UNL     1      44.486 -13.273   8.972  1.00  0.00    -0.249 N 
HETATM   21  C   UNL     1      44.368 -12.547  10.139  1.00  0.00     0.339 C 
HETATM   22  N   UNL     1      43.224 -11.790  10.213  1.00  0.00    -0.307 N 
HETATM   23  O   UNL     1      45.235 -12.659  10.998  1.00  0.00    -0.245 OA
HETATM   24  H   UNL     1      42.597 -11.942   9.439  1.00  0.00     0.170 HD
HETATM   25  H   UNL     1      45.419 -13.667   8.844  1.00  0.00     0.192 HD
BRANCH  22  26
HETATM   26  C   UNL     1      42.816 -10.932  11.257  1.00  0.00     0.042 A 
HETATM   27  C   UNL     1      41.452 -10.584  11.365  1.00  0.00    -0.034 A 
HETATM   28  C   UNL     1      40.408 -11.118  10.421  1.00  0.00     0.050 C 
HETATM   29  C   UNL     1      41.041  -9.715  12.394  1.00  0.00     0.032 A 
HETATM   30  C   UNL     1      41.964  -9.202  13.302  1.00  0.00     0.034 A 
HETATM   31  C   UNL     1      43.306  -9.542  13.199  1.00  0.00     0.026 A 
HETATM   32 CL   UNL     1      41.440  -8.143  14.553  1.00  0.00    -0.084 Cl
HETATM   33  C   UNL     1      43.727 -10.401  12.181  1.00  0.00     0.032 A 
ENDBRANCH  22  26
ENDBRANCH   1  20
TORSDOF 6
ENDMDL
MODEL 3
REMARK VINA RESULT:      -9.1      4.020     10.711
REMARK  6 active torsions:
REMARK  status: ('A' for Active; 'I' for Inactive)
REMARK    1  A    between atoms: C_3  and  N_4 
REMARK       I    between atoms: N_4  and  C_5 
REMARK       I    between atoms: C_5  and  N_6 
REMARK    2  A    between atoms: N_6  and  N_7 
REMARK       I    between atoms: N_7  and  C_8 
REMARK    3  A    between atoms: C_8  and  C_9 
REMARK    4  A    between atoms: C_9  and  N_10 
REMARK       I    between atoms: N_10  and  C_11 
REMARK       I    between atoms: C_11  and  N_12 
REMARK    5  A    between atoms: N_12  and  C_13 
REMARK    6  A    between atoms: C_16  and  O_17 
ROOT
HETATM    1  N   UNL     1      43.673 -14.009   4.569  1.00  0.00    -0.265 N 
HETATM    2  C   UNL     1      43.140 -14.336   5.809  1.00  0.00     0.253 C 
HETATM    3  O   UNL     1      41.976 -14.715   5.946  1.00  0.00    -0.270 OA
HETATM    4  H   UNL     1      44.687 -14.139   4.463  1.00  0.00     0.190 HD
ENDROOT
BRANCH   2   5
HETATM    5  C   UNL     1      44.149 -14.417   6.955  1.00  0.00     0.228 C 
BRANCH   5   6
HETATM    6  N   UNL     1      44.315 -13.236   7.781  1.00  0.00    -0.334 N 
HETATM    7  C   UNL     1      45.524 -12.690   8.053  1.00  0.00     0.321 C 
HETATM    8  N   UNL     1      45.600 -11.796   9.074  1.00  0.00    -0.309 N 
HETATM    9  O   UNL     1      46.511 -12.944   7.364  1.00  0.00    -0.247 OA
HETATM   10  H   UNL     1      46.487 -11.306   9.079  1.00  0.00     0.170 HD
HETATM   11  H   UNL     1      43.511 -12.643   7.939  1.00  0.00     0.164 HD
BRANCH   8  12
HETATM   12  C   UNL     1      44.776 -11.581  10.199  1.00  0.00     0.036 A 
HETATM   13  C   UNL     1      44.359 -12.579  11.081  1.00  0.00     0.032 A 
HETATM   14  C   UNL     1      43.576 -12.259  12.197  1.00  0.00     0.039 A 
HETATM   15  C   UNL     1      43.222 -10.938  12.470  1.00  0.00     0.068 A 
HETATM   16  C   UNL     1      43.640  -9.935  11.601  1.00  0.00     0.039 A 
HETATM   17  C   UNL     1      44.415 -10.256  10.476  1.00  0.00     0.032 A 
BRANCH  15  18
HETATM   18  O   UNL     1      42.474 -10.766  13.600  1.00  0.00    -0.356 OA
HETATM   19  C   UNL     1      41.063 -10.860  13.453  1.00  0.00     0.210 C 
ENDBRANCH  15  18
ENDBRANCH   8  12
ENDBRANCH   5   6
ENDBRANCH   2   5
BRANCH   1  20
HETATM   20  N   UNL     1      42.873 -14.379   3.460  1.00  0.00    -0.249 N 
HETATM   21  C   UNL     1      42.967 -15.621   2.868  1.00  0.00     0.339 C 
HETATM   22  N   UNL     1      43.462 -16.598   3.698  1.00  0.00    -0.307 N 
HETATM   23  O   UNL     1      42.582 -15.759   1.712  1.00  0.00    -0.245 OA
HETATM   24  H   UNL     1      43.605 -16.282   4.643  1.00  0.00     0.170 HD
HETATM   25  H   UNL     1      42.697 -13.633   2.786  1.00  0.00     0.192 HD
BRANCH  22  26
HETATM   26  C   UNL     1      43.694 -17.958   3.396  1.00  0.00     0.042 A 
HETATM   27  C   UNL     1      44.315 -18.779   4.363  1.00  0.00    -0.034 A 
HETATM   28  C   UNL     1      44.714 -18.263   5.719  1.00  0.00     0.050 C 
HETATM   29  C   UNL     1      44.564 -20.131   4.062  1.00  0.00     0.032 A 
HETATM   30  C   UNL     1      44.203 -20.663   2.826  1.00  0.00     0.034 A 
HETATM   31  C   UNL     1      43.592 -19.859   1.873  1.00  0.00     0.026 A 
HETATM   32 CL   UNL     1      44.515 -22.319   2.479  1.00  0.00    -0.084 Cl
HETATM   33  C   UNL     1      43.342 -18.515   2.158  1.00  0.00     0.032 A 
ENDBRANCH  22  26
ENDBRANCH   1  20
TORSDOF 6
ENDMDL
MODEL 4
REMARK VINA RESULT:      -9.0      4.423     10.398
REMARK  6 active torsions:
REMARK  status: ('A' for Active; 'I' for Inactive)
REMARK    1  A    between atoms: C_3  and  N_4 
REMARK       I    between atoms: N_4  and  C_5 
REMARK       I    between atoms: C_5  and  N_6 
REMARK    2  A    between atoms: N_6  and  N_7 
REMARK       I    between atoms: N_7  and  C_8 
REMARK    3  A    between atoms: C_8  and  C_9 
REMARK    4  A    between atoms: C_9  and  N_10 
REMARK       I    between atoms: N_10  and  C_11 
REMARK       I    between atoms: C_11  and  N_12 
REMARK    5  A    between atoms: N_12  and  C_13 
REMARK    6  A    between atoms: C_16  and  O_17 
ROOT
HETATM    1  N   UNL     1      42.239 -15.238   6.485  1.00  0.00    -0.265 N 
HETATM    2  C   UNL     1      40.906 -15.427   6.146  1.00  0.00     0.253 C 
HETATM    3  O   UNL     1      40.332 -16.505   6.308  1.00  0.00    -0.270 OA
HETATM    4  H   UNL     1      42.510 -14.280   6.742  1.00  0.00     0.190 HD
ENDROOT
BRANCH   2   5
HETATM    5  C   UNL     1      40.137 -14.158   5.775  1.00  0.00     0.228 C 
BRANCH   5   6
HETATM    6  N   UNL     1      39.908 -13.186   6.829  1.00  0.00    -0.334 N 
HETATM    7  C   UNL     1      39.378 -11.961   6.600  1.00  0.00     0.321 C 
HETATM    8  N   UNL     1      39.499 -11.026   7.579  1.00  0.00    -0.309 N 
HETATM    9  O   UNL     1      38.754 -11.716   5.569  1.00  0.00    -0.247 OA
HETATM   10  H   UNL     1      38.916 -10.218   7.399  1.00  0.00     0.170 HD
HETATM   11  H   UNL     1      39.885 -13.512   7.786  1.00  0.00     0.164 HD
BRANCH   8  12
HETATM   12  C   UNL     1      40.404 -10.902   8.655  1.00  0.00     0.036 A 
HETATM   13  C   UNL     1      40.083 -11.130   9.993  1.00  0.00     0.032 A 
HETATM   14  C   UNL     1      41.064 -11.023  10.987  1.00  0.00     0.039 A 
HETATM   15  C   UNL     1      42.385 -10.718  10.661  1.00  0.00     0.068 A 
HETATM   16  C   UNL     1      42.716 -10.497   9.328  1.00  0.00     0.039 A 
HETATM   17  C   UNL     1      41.732 -10.593   8.333  1.00  0.00     0.032 A 
BRANCH  15  18
HETATM   18  O   UNL     1      43.242 -10.666  11.724  1.00  0.00    -0.356 OA
HETATM   19  C   UNL     1      42.686 -10.936  13.005  1.00  0.00     0.210 C 
ENDBRANCH  15  18
ENDBRANCH   8  12
ENDBRANCH   5   6
ENDBRANCH   2   5
BRANCH   1  20
HETATM   20  N   UNL     1      42.812 -16.280   7.254  1.00  0.00    -0.249 N 
HETATM   21  C   UNL     1      43.141 -17.502   6.705  1.00  0.00     0.339 C 
HETATM   22  N   UNL     1      43.364 -17.463   5.349  1.00  0.00    -0.307 N 
HETATM   23  O   UNL     1      43.241 -18.477   7.442  1.00  0.00    -0.245 OA
HETATM   24  H   UNL     1      43.338 -16.531   4.969  1.00  0.00     0.170 HD
HETATM   25  H   UNL     1      42.458 -16.358   8.208  1.00  0.00     0.192 HD
BRANCH  22  26
HETATM   26  C   UNL     1      43.700 -18.534   4.494  1.00  0.00     0.042 A 
HETATM   27  C   UNL     1      43.042 -18.650   3.249  1.00  0.00    -0.034 A 
HETATM   28  C   UNL     1      42.012 -17.654   2.788  1.00  0.00     0.050 C 
HETATM   29  C   UNL     1      43.361 -19.726   2.398  1.00  0.00     0.032 A 
HETATM   30  C   UNL     1      44.316 -20.669   2.771  1.00  0.00     0.034 A 
HETATM   31  C   UNL     1      44.964 -20.558   3.993  1.00  0.00     0.026 A 
HETATM   32 CL   UNL     1      44.690 -21.975   1.716  1.00  0.00    -0.084 Cl
HETATM   33  C   UNL     1      44.656 -19.497   4.848  1.00  0.00     0.032 A 
ENDBRANCH  22  26
ENDBRANCH   1  20
TORSDOF 6
ENDMDL
MODEL 5
REMARK VINA RESULT:      -8.8      2.678      3.566
REMARK  6 active torsions:
REMARK  status: ('A' for Active; 'I' for Inactive)
REMARK    1  A    between atoms: C_3  and  N_4 
REMARK       I    between atoms: N_4  and  C_5 
REMARK       I    between atoms: C_5  and  N_6 
REMARK    2  A    between atoms: N_6  and  N_7 
REMARK       I    between atoms: N_7  and  C_8 
REMARK    3  A    between atoms: C_8  and  C_9 
REMARK    4  A    between atoms: C_9  and  N_10 
REMARK       I    between atoms: N_10  and  C_11 
REMARK       I    between atoms: C_11  and  N_12 
REMARK    5  A    between atoms: N_12  and  C_13 
REMARK    6  A    between atoms: C_16  and  O_17 
ROOT
HETATM    1  N   UNL     1      44.312 -13.721   8.164  1.00  0.00    -0.265 N 
HETATM    2  C   UNL     1      44.572 -14.182   6.880  1.00  0.00     0.253 C 
HETATM    3  O   UNL     1      45.317 -13.582   6.104  1.00  0.00    -0.270 OA
HETATM    4  H   UNL     1      44.079 -14.436   8.865  1.00  0.00     0.190 HD
ENDROOT
BRANCH   2   5
HETATM    5  C   UNL     1      44.060 -15.589   6.573  1.00  0.00     0.228 C 
BRANCH   5   6
HETATM    6  N   UNL     1      42.905 -15.703   5.702  1.00  0.00    -0.334 N 
HETATM    7  C   UNL     1      41.906 -16.591   5.914  1.00  0.00     0.321 C 
HETATM    8  N   UNL     1      41.047 -16.836   4.889  1.00  0.00    -0.309 N 
HETATM    9  O   UNL     1      41.738 -17.116   7.015  1.00  0.00    -0.247 OA
HETATM   10  H   UNL     1      40.235 -17.358   5.196  1.00  0.00     0.170 HD
HETATM   11  H   UNL     1      42.695 -14.934   5.079  1.00  0.00     0.164 HD
BRANCH   8  12
HETATM   12  C   UNL     1      41.178 -16.671   3.493  1.00  0.00     0.036 A 
HETATM   13  C   UNL     1      41.884 -17.534   2.655  1.00  0.00     0.032 A 
HETATM   14  C   UNL     1      41.919 -17.310   1.272  1.00  0.00     0.039 A 
HETATM   15  C   UNL     1      41.227 -16.243   0.701  1.00  0.00     0.068 A 
HETATM   16  C   UNL     1      40.512 -15.382   1.529  1.00  0.00     0.039 A 
HETATM   17  C   UNL     1      40.486 -15.599   2.914  1.00  0.00     0.032 A 
BRANCH  15  18
HETATM   18  O   UNL     1      41.330 -16.154  -0.658  1.00  0.00    -0.356 OA
HETATM   19  C   UNL     1      40.929 -14.924  -1.249  1.00  0.00     0.210 C 
ENDBRANCH  15  18
ENDBRANCH   8  12
ENDBRANCH   5   6
ENDBRANCH   2   5
BRANCH   1  20
HETATM   20  N   UNL     1      45.151 -12.666   8.600  1.00  0.00    -0.249 N 
HETATM   21  C   UNL     1      44.701 -11.667   9.437  1.00  0.00     0.339 C 
HETATM   22  N   UNL     1      43.618 -12.027  10.203  1.00  0.00    -0.307 N 
HETATM   23  O   UNL     1      45.298 -10.596   9.460  1.00  0.00    -0.245 OA
HETATM   24  H   UNL     1      43.364 -12.997  10.102  1.00  0.00     0.170 HD
HETATM   25  H   UNL     1      45.817 -12.327   7.904  1.00  0.00     0.192 HD
BRANCH  22  26
HETATM   26  C   UNL     1      42.916 -11.238  11.139  1.00  0.00     0.042 A 
HETATM   27  C   UNL     1      41.836 -10.444  10.695  1.00  0.00    -0.034 A 
HETATM   28  C   UNL     1      41.386 -10.430   9.258  1.00  0.00     0.050 C 
HETATM   29  C   UNL     1      41.142  -9.641  11.620  1.00  0.00     0.032 A 
HETATM   30  C   UNL     1      41.509  -9.627  12.964  1.00  0.00     0.034 A 
HETATM   31  C   UNL     1      42.570 -10.405  13.405  1.00  0.00     0.026 A 
HETATM   32 CL   UNL     1      40.647  -8.640  14.079  1.00  0.00    -0.084 Cl
HETATM   33  C   UNL     1      43.268 -11.204  12.496  1.00  0.00     0.032 A 
ENDBRANCH  22  26
ENDBRANCH   1  20
TORSDOF 6
ENDMDL
MODEL 6
REMARK VINA RESULT:      -8.7      2.372      2.817
REMARK  6 active torsions:
REMARK  status: ('A' for Active; 'I' for Inactive)
REMARK    1  A    between atoms: C_3  and  N_4 
REMARK       I    between atoms: N_4  and  C_5 
REMARK       I    between atoms: C_5  and  N_6 
REMARK    2  A    between atoms: N_6  and  N_7 
REMARK       I    between atoms: N_7  and  C_8 
REMARK    3  A    between atoms: C_8  and  C_9 
REMARK    4  A    between atoms: C_9  and  N_10 
REMARK       I    between atoms: N_10  and  C_11 
REMARK       I    between atoms: C_11  and  N_12 
REMARK    5  A    between atoms: N_12  and  C_13 
REMARK    6  A    between atoms: C_16  and  O_17 
ROOT
HETATM    1  N   UNL     1      41.264 -12.696   6.563  1.00  0.00    -0.265 N 
HETATM    2  C   UNL     1      40.174 -13.014   5.762  1.00  0.00     0.253 C 
HETATM    3  O   UNL     1      39.513 -12.154   5.179  1.00  0.00    -0.270 OA
HETATM    4  H   UNL     1      41.995 -13.415   6.639  1.00  0.00     0.190 HD
ENDROOT
BRANCH   2   5
HETATM    5  C   UNL     1      39.989 -14.503   5.468  1.00  0.00     0.228 C 
BRANCH   5   6
HETATM    6  N   UNL     1      40.811 -15.084   4.422  1.00  0.00    -0.334 N 
HETATM    7  C   UNL     1      40.379 -15.246   3.150  1.00  0.00     0.321 C 
HETATM    8  N   UNL     1      41.091 -16.074   2.340  1.00  0.00    -0.309 N 
HETATM    9  O   UNL     1      39.412 -14.621   2.717  1.00  0.00    -0.247 OA
HETATM   10  H   UNL     1      40.809 -15.985   1.371  1.00  0.00     0.170 HD
HETATM   11  H   UNL     1      41.812 -15.121   4.564  1.00  0.00     0.164 HD
BRANCH   8  12
HETATM   12  C   UNL     1      41.978 -17.134   2.625  1.00  0.00     0.036 A 
HETATM   13  C   UNL     1      42.166 -17.694   3.889  1.00  0.00     0.032 A 
HETATM   14  C   UNL     1      43.039 -18.776   4.064  1.00  0.00     0.039 A 
HETATM   15  C   UNL     1      43.713 -19.336   2.980  1.00  0.00     0.068 A 
HETATM   16  C   UNL     1      43.525 -18.789   1.713  1.00  0.00     0.039 A 
HETATM   17  C   UNL     1      42.660 -17.699   1.539  1.00  0.00     0.032 A 
BRANCH  15  18
HETATM   18  O   UNL     1      44.515 -20.398   3.288  1.00  0.00    -0.356 OA
HETATM   19  C   UNL     1      44.524 -21.480   2.365  1.00  0.00     0.210 C 
ENDBRANCH  15  18
ENDBRANCH   8  12
ENDBRANCH   5   6
ENDBRANCH   2   5
BRANCH   1  20
HETATM   20  N   UNL     1      41.709 -11.356   6.458  1.00  0.00    -0.249 N 
HETATM   21  C   UNL     1      41.931 -10.567   7.568  1.00  0.00     0.339 C 
HETATM   22  N   UNL     1      42.195 -11.278   8.714  1.00  0.00    -0.307 N 
HETATM   23  O   UNL     1      41.914  -9.348   7.443  1.00  0.00    -0.245 OA
HETATM   24  H   UNL     1      42.272 -12.270   8.557  1.00  0.00     0.170 HD
HETATM   25  H   UNL     1      41.322 -10.832   5.672  1.00  0.00     0.192 HD
BRANCH  22  26
HETATM   26  C   UNL     1      42.449 -10.775  10.008  1.00  0.00     0.042 A 
HETATM   27  C   UNL     1      43.779 -10.740  10.482  1.00  0.00    -0.034 A 
HETATM   28  C   UNL     1      44.943 -11.195   9.644  1.00  0.00     0.050 C 
HETATM   29  C   UNL     1      44.036 -10.255  11.779  1.00  0.00     0.032 A 
HETATM   30  C   UNL     1      42.996  -9.810  12.591  1.00  0.00     0.034 A 
HETATM   31  C   UNL     1      41.688  -9.843  12.129  1.00  0.00     0.026 A 
HETATM   32 CL   UNL     1      43.333  -9.221  14.172  1.00  0.00    -0.084 Cl
HETATM   33  C   UNL     1      41.418 -10.324  10.845  1.00  0.00     0.032 A 
ENDBRANCH  22  26
ENDBRANCH   1  20
TORSDOF 6
ENDMDL
MODEL 7
REMARK VINA RESULT:      -8.7      4.498      6.402
REMARK  6 active torsions:
REMARK  status: ('A' for Active; 'I' for Inactive)
REMARK    1  A    between atoms: C_3  and  N_4 
REMARK       I    between atoms: N_4  and  C_5 
REMARK       I    between atoms: C_5  and  N_6 
REMARK    2  A    between atoms: N_6  and  N_7 
REMARK       I    between atoms: N_7  and  C_8 
REMARK    3  A    between atoms: C_8  and  C_9 
REMARK    4  A    between atoms: C_9  and  N_10 
REMARK       I    between atoms: N_10  and  C_11 
REMARK       I    between atoms: C_11  and  N_12 
REMARK    5  A    between atoms: N_12  and  C_13 
REMARK    6  A    between atoms: C_16  and  O_17 
ROOT
HETATM    1  N   UNL     1      44.788 -19.153   6.620  1.00  0.00    -0.265 N 
HETATM    2  C   UNL     1      44.358 -20.415   6.230  1.00  0.00     0.253 C 
HETATM    3  O   UNL     1      43.661 -21.126   6.955  1.00  0.00    -0.270 OA
HETATM    4  H   UNL     1      44.957 -18.477   5.864  1.00  0.00     0.190 HD
ENDROOT
BRANCH   2   5
HETATM    5  C   UNL     1      44.611 -20.769   4.764  1.00  0.00     0.228 C 
BRANCH   5   6
HETATM    6  N   UNL     1      43.815 -20.081   3.765  1.00  0.00    -0.334 N 
HETATM    7  C   UNL     1      44.050 -20.184   2.436  1.00  0.00     0.321 C 
HETATM    8  N   UNL     1      43.466 -19.269   1.617  1.00  0.00    -0.309 N 
HETATM    9  O   UNL     1      44.717 -21.108   1.972  1.00  0.00    -0.247 OA
HETATM   10  H   UNL     1      43.541 -19.535   0.642  1.00  0.00     0.170 HD
HETATM   11  H   UNL     1      42.903 -19.735   4.033  1.00  0.00     0.164 HD
BRANCH   8  12
HETATM   12  C   UNL     1      42.969 -17.970   1.860  1.00  0.00     0.036 A 
HETATM   13  C   UNL     1      43.752 -16.878   2.237  1.00  0.00     0.032 A 
HETATM   14  C   UNL     1      43.172 -15.616   2.413  1.00  0.00     0.039 A 
HETATM   15  C   UNL     1      41.811 -15.414   2.186  1.00  0.00     0.068 A 
HETATM   16  C   UNL     1      41.024 -16.496   1.802  1.00  0.00     0.039 A 
HETATM   17  C   UNL     1      41.602 -17.763   1.637  1.00  0.00     0.032 A 
BRANCH  15  18
HETATM   18  O   UNL     1      41.381 -14.131   2.375  1.00  0.00    -0.356 OA
HETATM   19  C   UNL     1      42.332 -13.099   2.140  1.00  0.00     0.210 C 
ENDBRANCH  15  18
ENDBRANCH   8  12
ENDBRANCH   5   6
ENDBRANCH   2   5
BRANCH   1  20
HETATM   20  N   UNL     1      44.166 -18.646   7.787  1.00  0.00    -0.249 N 
HETATM   21  C   UNL     1      43.503 -17.437   7.800  1.00  0.00     0.339 C 
HETATM   22  N   UNL     1      43.049 -17.036   6.567  1.00  0.00    -0.307 N 
HETATM   23  O   UNL     1      43.343 -16.858   8.869  1.00  0.00    -0.245 OA
HETATM   24  H   UNL     1      43.193 -17.726   5.847  1.00  0.00     0.170 HD
HETATM   25  H   UNL     1      44.665 -18.832   8.658  1.00  0.00     0.192 HD
BRANCH  22  26
HETATM   26  C   UNL     1      42.353 -15.852   6.240  1.00  0.00     0.042 A 
HETATM   27  C   UNL     1      43.071 -14.641   6.135  1.00  0.00    -0.034 A 
HETATM   28  C   UNL     1      44.562 -14.571   6.331  1.00  0.00     0.050 C 
HETATM   29  C   UNL     1      42.381 -13.454   5.827  1.00  0.00     0.032 A 
HETATM   30  C   UNL     1      41.003 -13.465   5.623  1.00  0.00     0.034 A 
HETATM   31  C   UNL     1      40.293 -14.653   5.725  1.00  0.00     0.026 A 
HETATM   32 CL   UNL     1      40.179 -12.003   5.246  1.00  0.00    -0.084 Cl
HETATM   33  C   UNL     1      40.966 -15.838   6.033  1.00  0.00     0.032 A 
ENDBRANCH  22  26
ENDBRANCH   1  20
TORSDOF 6
ENDMDL
MODEL 8
REMARK VINA RESULT:      -8.6      6.049      9.175
REMARK  6 active torsions:
REMARK  status: ('A' for Active; 'I' for Inactive)
REMARK    1  A    between atoms: C_3  and  N_4 
REMARK       I    between atoms: N_4  and  C_5 
REMARK       I    between atoms: C_5  and  N_6 
REMARK    2  A    between atoms: N_6  and  N_7 
REMARK       I    between atoms: N_7  and  C_8 
REMARK    3  A    between atoms: C_8  and  C_9 
REMARK    4  A    between atoms: C_9  and  N_10 
REMARK       I    between atoms: N_10  and  C_11 
REMARK       I    between atoms: C_11  and  N_12 
REMARK    5  A    between atoms: N_12  and  C_13 
REMARK    6  A    between atoms: C_16  and  O_17 
ROOT
HETATM    1  N   UNL     1      40.937 -15.212   4.569  1.00  0.00    -0.265 N 
HETATM    2  C   UNL     1      40.539 -14.297   3.602  1.00  0.00     0.253 C 
HETATM    3  O   UNL     1      41.182 -13.275   3.359  1.00  0.00    -0.270 OA
HETATM    4  H   UNL     1      40.647 -16.186   4.418  1.00  0.00     0.190 HD
ENDROOT
BRANCH   2   5
HETATM    5  C   UNL     1      39.385 -14.750   2.707  1.00  0.00     0.228 C 
BRANCH   5   6
HETATM    6  N   UNL     1      39.718 -15.197   1.366  1.00  0.00    -0.334 N 
HETATM    7  C   UNL     1      40.571 -16.218   1.119  1.00  0.00     0.321 C 
HETATM    8  N   UNL     1      41.055 -16.348  -0.144  1.00  0.00    -0.309 N 
HETATM    9  O   UNL     1      40.855 -17.041   1.990  1.00  0.00    -0.247 OA
HETATM   10  H   UNL     1      41.525 -17.235  -0.277  1.00  0.00     0.170 HD
HETATM   11  H   UNL     1      39.105 -14.932   0.606  1.00  0.00     0.164 HD
BRANCH   8  12
HETATM   12  C   UNL     1      41.187 -15.421  -1.201  1.00  0.00     0.036 A 
HETATM   13  C   UNL     1      40.746 -15.639  -2.507  1.00  0.00     0.032 A 
HETATM   14  C   UNL     1      40.882 -14.639  -3.478  1.00  0.00     0.039 A 
HETATM   15  C   UNL     1      41.429 -13.398  -3.158  1.00  0.00     0.068 A 
HETATM   16  C   UNL     1      41.864 -13.168  -1.855  1.00  0.00     0.039 A 
HETATM   17  C   UNL     1      41.738 -14.173  -0.885  1.00  0.00     0.032 A 
BRANCH  15  18
HETATM   18  O   UNL     1      41.484 -12.509  -4.194  1.00  0.00    -0.356 OA
HETATM   19  C   UNL     1      40.529 -11.454  -4.180  1.00  0.00     0.210 C 
ENDBRANCH  15  18
ENDBRANCH   8  12
ENDBRANCH   5   6
ENDBRANCH   2   5
BRANCH   1  20
HETATM   20  N   UNL     1      42.248 -15.018   5.069  1.00  0.00    -0.249 N 
HETATM   21  C   UNL     1      43.075 -16.073   5.392  1.00  0.00     0.339 C 
HETATM   22  N   UNL     1      42.769 -17.242   4.737  1.00  0.00    -0.307 N 
HETATM   23  O   UNL     1      44.000 -15.885   6.175  1.00  0.00    -0.245 OA
HETATM   24  H   UNL     1      42.039 -17.135   4.052  1.00  0.00     0.170 HD
HETATM   25  H   UNL     1      42.356 -14.223   5.700  1.00  0.00     0.192 HD
BRANCH  22  26
HETATM   26  C   UNL     1      43.407 -18.496   4.857  1.00  0.00     0.042 A 
HETATM   27  C   UNL     1      44.022 -19.064   3.719  1.00  0.00    -0.034 A 
HETATM   28  C   UNL     1      44.046 -18.366   2.385  1.00  0.00     0.050 C 
HETATM   29  C   UNL     1      44.645 -20.322   3.827  1.00  0.00     0.032 A 
HETATM   30  C   UNL     1      44.662 -21.005   5.041  1.00  0.00     0.034 A 
HETATM   31  C   UNL     1      44.059 -20.450   6.161  1.00  0.00     0.026 A 
HETATM   32 CL   UNL     1      45.430 -22.540   5.151  1.00  0.00    -0.084 Cl
HETATM   33  C   UNL     1      43.435 -19.203   6.067  1.00  0.00     0.032 A 
ENDBRANCH  22  26
ENDBRANCH   1  20
TORSDOF 6
ENDMDL
MODEL 9
REMARK VINA RESULT:      -8.5      5.390      6.394
REMARK  6 active torsions:
REMARK  status: ('A' for Active; 'I' for Inactive)
REMARK    1  A    between atoms: C_3  and  N_4 
REMARK       I    between atoms: N_4  and  C_5 
REMARK       I    between atoms: C_5  and  N_6 
REMARK    2  A    between atoms: N_6  and  N_7 
REMARK       I    between atoms: N_7  and  C_8 
REMARK    3  A    between atoms: C_8  and  C_9 
REMARK    4  A    between atoms: C_9  and  N_10 
REMARK       I    between atoms: N_10  and  C_11 
REMARK       I    between atoms: C_11  and  N_12 
REMARK    5  A    between atoms: N_12  and  C_13 
REMARK    6  A    between atoms: C_16  and  O_17 
ROOT
HETATM    1  N   UNL     1      39.188 -13.177   2.568  1.00  0.00    -0.265 N 
HETATM    2  C   UNL     1      39.701 -12.454   1.499  1.00  0.00     0.253 C 
HETATM    3  O   UNL     1      40.069 -11.284   1.612  1.00  0.00    -0.270 OA
HETATM    4  H   UNL     1      39.323 -14.195   2.534  1.00  0.00     0.190 HD
ENDROOT
BRANCH   2   5
HETATM    5  C   UNL     1      39.993 -13.268   0.238  1.00  0.00     0.228 C 
BRANCH   5   6
HETATM    6  N   UNL     1      41.028 -14.282   0.323  1.00  0.00    -0.334 N 
HETATM    7  C   UNL     1      41.254 -15.189  -0.656  1.00  0.00     0.321 C 
HETATM    8  N   UNL     1      42.013 -16.275  -0.351  1.00  0.00    -0.309 N 
HETATM    9  O   UNL     1      40.841 -15.012  -1.801  1.00  0.00    -0.247 OA
HETATM   10  H   UNL     1      42.283 -16.790  -1.180  1.00  0.00     0.170 HD
HETATM   11  H   UNL     1      41.774 -14.152   0.994  1.00  0.00     0.164 HD
BRANCH   8  12
HETATM   12  C   UNL     1      42.314 -16.896   0.881  1.00  0.00     0.036 A 
HETATM   13  C   UNL     1      41.376 -17.188   1.872  1.00  0.00     0.032 A 
HETATM   14  C   UNL     1      41.765 -17.849   3.045  1.00  0.00     0.039 A 
HETATM   15  C   UNL     1      43.084 -18.256   3.235  1.00  0.00     0.068 A 
HETATM   16  C   UNL     1      44.025 -17.977   2.247  1.00  0.00     0.039 A 
HETATM   17  C   UNL     1      43.639 -17.306   1.078  1.00  0.00     0.032 A 
BRANCH  15  18
HETATM   18  O   UNL     1      43.321 -18.907   4.412  1.00  0.00    -0.356 OA
HETATM   19  C   UNL     1      44.547 -19.621   4.511  1.00  0.00     0.210 C 
ENDBRANCH  15  18
ENDBRANCH   8  12
ENDBRANCH   5   6
ENDBRANCH   2   5
BRANCH   1  20
HETATM   20  N   UNL     1      39.352 -12.565   3.834  1.00  0.00    -0.249 N 
HETATM   21  C   UNL     1      39.925 -13.225   4.902  1.00  0.00     0.339 C 
HETATM   22  N   UNL     1      40.759 -14.255   4.537  1.00  0.00    -0.307 N 
HETATM   23  O   UNL     1      39.686 -12.836   6.039  1.00  0.00    -0.245 OA
HETATM   24  H   UNL     1      40.896 -14.322   3.542  1.00  0.00     0.170 HD
HETATM   25  H   UNL     1      38.592 -11.944   4.116  1.00  0.00     0.192 HD
BRANCH  22  26
HETATM   26  C   UNL     1      41.480 -15.128   5.381  1.00  0.00     0.042 A 
HETATM   27  C   UNL     1      42.884 -15.001   5.460  1.00  0.00    -0.034 A 
HETATM   28  C   UNL     1      43.641 -13.947   4.696  1.00  0.00     0.050 C 
HETATM   29  C   UNL     1      43.610 -15.879   6.286  1.00  0.00     0.032 A 
HETATM   30  C   UNL     1      42.958 -16.865   7.024  1.00  0.00     0.034 A 
HETATM   31  C   UNL     1      41.578 -16.992   6.949  1.00  0.00     0.026 A 
HETATM   32 CL   UNL     1      43.865 -17.926   8.028  1.00  0.00    -0.084 Cl
HETATM   33  C   UNL     1      40.846 -16.128   6.131  1.00  0.00     0.032 A 
ENDBRANCH  22  26
ENDBRANCH   1  20
TORSDOF 6
ENDMDL
MODEL 10
REMARK VINA RESULT:      -8.5      4.592     10.035
REMARK  6 active torsions:
REMARK  status: ('A' for Active; 'I' for Inactive)
REMARK    1  A    between atoms: C_3  and  N_4 
REMARK       I    between atoms: N_4  and  C_5 
REMARK       I    between atoms: C_5  and  N_6 
REMARK    2  A    between atoms: N_6  and  N_7 
REMARK       I    between atoms: N_7  and  C_8 
REMARK    3  A    between atoms: C_8  and  C_9 
REMARK    4  A    between atoms: C_9  and  N_10 
REMARK       I    between atoms: N_10  and  C_11 
REMARK       I    between atoms: C_11  and  N_12 
REMARK    5  A    between atoms: N_12  and  C_13 
REMARK    6  A    between atoms: C_16  and  O_17 
ROOT
HETATM    1  N   UNL     1      41.550 -14.728   0.600  1.00  0.00    -0.265 N 
HETATM    2  C   UNL     1      40.915 -13.581   1.058  1.00  0.00     0.253 C 
HETATM    3  O   UNL     1      39.700 -13.535   1.253  1.00  0.00    -0.270 OA
HETATM    4  H   UNL     1      42.533 -14.844   0.877  1.00  0.00     0.190 HD
ENDROOT
BRANCH   2   5
HETATM    5  C   UNL     1      41.844 -12.459   1.521  1.00  0.00     0.228 C 
BRANCH   5   6
HETATM    6  N   UNL     1      42.103 -12.352   2.946  1.00  0.00    -0.334 N 
HETATM    7  C   UNL     1      42.723 -13.321   3.657  1.00  0.00     0.321 C 
HETATM    8  N   UNL     1      42.633 -13.269   5.012  1.00  0.00    -0.309 N 
HETATM    9  O   UNL     1      43.400 -14.188   3.105  1.00  0.00    -0.247 OA
HETATM   10  H   UNL     1      43.276 -13.913   5.457  1.00  0.00     0.170 HD
HETATM   11  H   UNL     1      42.069 -11.435   3.372  1.00  0.00     0.164 HD
BRANCH   8  12
HETATM   12  C   UNL     1      41.701 -12.645   5.870  1.00  0.00     0.036 A 
HETATM   13  C   UNL     1      41.965 -11.513   6.641  1.00  0.00     0.032 A 
HETATM   14  C   UNL     1      40.958 -10.940   7.429  1.00  0.00     0.039 A 
HETATM   15  C   UNL     1      39.668 -11.467   7.438  1.00  0.00     0.068 A 
HETATM   16  C   UNL     1      39.393 -12.591   6.666  1.00  0.00     0.039 A 
HETATM   17  C   UNL     1      40.403 -13.172   5.885  1.00  0.00     0.032 A 
BRANCH  15  18
HETATM   18  O   UNL     1      38.781 -10.799   8.234  1.00  0.00    -0.356 OA
HETATM   19  C   UNL     1      39.333  -9.965   9.245  1.00  0.00     0.210 C 
ENDBRANCH  15  18
ENDBRANCH   8  12
ENDBRANCH   5   6
ENDBRANCH   2   5
BRANCH   1  20
HETATM   20  N   UNL     1      40.752 -15.898   0.616  1.00  0.00    -0.249 N 
HETATM   21  C   UNL     1      41.217 -17.099   1.109  1.00  0.00     0.339 C 
HETATM   22  N   UNL     1      42.241 -16.970   2.017  1.00  0.00    -0.307 N 
HETATM   23  O   UNL     1      40.679 -18.139   0.746  1.00  0.00    -0.245 OA
HETATM   24  H   UNL     1      42.445 -16.012   2.252  1.00  0.00     0.170 HD
HETATM   25  H   UNL     1      40.139 -16.014  -0.193  1.00  0.00     0.192 HD
BRANCH  22  26
HETATM   26  C   UNL     1      42.940 -17.996   2.688  1.00  0.00     0.042 A 
HETATM   27  C   UNL     1      42.891 -18.051   4.098  1.00  0.00    -0.034 A 
HETATM   28  C   UNL     1      42.094 -17.068   4.914  1.00  0.00     0.050 C 
HETATM   29  C   UNL     1      43.600 -19.062   4.775  1.00  0.00     0.032 A 
HETATM   30  C   UNL     1      44.343 -20.004   4.067  1.00  0.00     0.034 A 
HETATM   31  C   UNL     1      44.394 -19.954   2.681  1.00  0.00     0.026 A 
HETATM   32 CL   UNL     1      45.201 -21.232   4.914  1.00  0.00    -0.084 Cl
HETATM   33  C   UNL     1      43.697 -18.954   1.998  1.00  0.00     0.032 A 
ENDBRANCH  22  26
ENDBRANCH   1  20
TORSDOF 6
ENDMDL
