MODEL 1
REMARK VINA RESULT:      -8.4      0.000      0.000
REMARK  5 active torsions:
REMARK  status: ('A' for Active; 'I' for Inactive)
REMARK    1  A    between atoms: C_4  and  N_5 
REMARK    2  A    between atoms: C_8  and  N_9 
REMARK    3  A    between atoms: C_14  and  N_15 
REMARK    4  A    between atoms: N_15  and  C_16 
REMARK    5  A    between atoms: C_19  and  C_20 
REMARK       I    between atoms: C_20  and  N_21 
ROOT
HETATM    1  C   UNL     1      39.678 -13.934   5.018  1.00  0.00     0.071 C 
HETATM    2  C   UNL     1      40.500 -14.552   3.927  1.00  0.00     0.053 A 
HETATM    3  N   UNL     1      40.075 -14.388   2.664  1.00  0.00    -0.066 NA
HETATM    4  C   UNL     1      40.807 -14.968   1.690  1.00  0.00     0.751 A 
HETATM    5  N   UNL     1      41.918 -15.705   1.907  1.00  0.00    -0.043 NA
HETATM    6  C   UNL     1      42.328 -15.844   3.178  1.00  0.00     0.149 A 
HETATM    7  C   UNL     1      41.639 -15.266   4.230  1.00  0.00     0.078 A 
ENDROOT
BRANCH   6   8
HETATM    8  N   UNL     1      43.484 -16.596   3.489  1.00  0.00    -0.340 N 
HETATM    9  H   UNL     1      44.319 -16.069   3.260  1.00  0.00     0.167 HD
BRANCH   8  10
HETATM   10  C   UNL     1      43.673 -17.991   3.420  1.00  0.00     0.033 A 
HETATM   11  C   UNL     1      43.355 -18.668   2.232  1.00  0.00     0.030 A 
HETATM   12  C   UNL     1      43.621 -20.035   2.081  1.00  0.00     0.019 A 
HETATM   13  C   UNL     1      44.229 -20.748   3.118  1.00  0.00     0.032 A 
HETATM   14  C   UNL     1      44.577 -20.079   4.295  1.00  0.00     0.019 A 
HETATM   15  C   UNL     1      44.302 -18.714   4.440  1.00  0.00     0.030 A 
BRANCH  13  16
HETATM   16  C   UNL     1      44.572 -22.190   2.997  1.00  0.00     0.249 C 
HETATM   17  N   UNL     1      44.755 -22.896   4.154  1.00  0.00    -0.366 N 
HETATM   18  H   UNL     1      44.897 -22.450   5.048  1.00  0.00     0.159 HD
HETATM   19  H   UNL     1      45.089 -23.845   4.044  1.00  0.00     0.159 HD
HETATM   20  O   UNL     1      44.713 -22.730   1.907  1.00  0.00    -0.268 OA
ENDBRANCH  13  16
ENDBRANCH   8  10
ENDBRANCH   6   8
BRANCH   4  21
HETATM   21  N   UNL     1      40.399 -14.775   0.325  1.00  0.00    -0.069 N 
HETATM   22  N   UNL     1      39.311 -14.022  -0.024  1.00  0.00    -0.163 NA
HETATM   23  C   UNL     1      39.285 -14.066  -1.358  1.00  0.00     0.177 A 
HETATM   24  C   UNL     1      40.332 -14.831  -1.888  1.00  0.00     0.140 A 
HETATM   25  C   UNL     1      41.033 -15.287  -0.794  1.00  0.00     0.175 A 
BRANCH  24  26
HETATM   26  N   UNL     1      40.620 -15.080  -3.265  1.00  0.00    -0.113 N 
HETATM   27  O   UNL     1      39.650 -15.224  -4.018  1.00  0.00    -0.532 OA
HETATM   28  O   UNL     1      41.812 -15.127  -3.593  1.00  0.00    -0.532 OA
ENDBRANCH  24  26
ENDBRANCH   4  21
TORSDOF 5
ENDMDL
MODEL 2
REMARK VINA RESULT:      -8.0      1.898      8.003
REMARK  5 active torsions:
REMARK  status: ('A' for Active; 'I' for Inactive)
REMARK    1  A    between atoms: C_4  and  N_5 
REMARK    2  A    between atoms: C_8  and  N_9 
REMARK    3  A    between atoms: C_14  and  N_15 
REMARK    4  A    between atoms: N_15  and  C_16 
REMARK    5  A    between atoms: C_19  and  C_20 
REMARK       I    between atoms: C_20  and  N_21 
ROOT
HETATM    1  C   UNL     1      40.586 -15.073   4.513  1.00  0.00     0.071 C 
HETATM    2  C   UNL     1      41.305 -15.723   3.369  1.00  0.00     0.053 A 
HETATM    3  N   UNL     1      41.984 -16.853   3.627  1.00  0.00    -0.066 NA
HETATM    4  C   UNL     1      42.648 -17.418   2.598  1.00  0.00     0.751 A 
HETATM    5  N   UNL     1      42.683 -16.915   1.345  1.00  0.00    -0.043 NA
HETATM    6  C   UNL     1      41.986 -15.792   1.110  1.00  0.00     0.149 A 
HETATM    7  C   UNL     1      41.267 -15.163   2.111  1.00  0.00     0.078 A 
ENDROOT
BRANCH   6   8
HETATM    8  N   UNL     1      41.967 -15.205  -0.175  1.00  0.00    -0.340 N 
HETATM    9  H   UNL     1      42.621 -14.432  -0.219  1.00  0.00     0.167 HD
BRANCH   8  10
HETATM   10  C   UNL     1      40.881 -15.063  -1.063  1.00  0.00     0.033 A 
HETATM   11  C   UNL     1      39.834 -14.189  -0.731  1.00  0.00     0.030 A 
HETATM   12  C   UNL     1      38.785 -13.937  -1.625  1.00  0.00     0.019 A 
HETATM   13  C   UNL     1      38.777 -14.547  -2.882  1.00  0.00     0.032 A 
HETATM   14  C   UNL     1      39.829 -15.397  -3.237  1.00  0.00     0.019 A 
HETATM   15  C   UNL     1      40.869 -15.648  -2.334  1.00  0.00     0.030 A 
BRANCH  13  16
HETATM   16  C   UNL     1      37.712 -14.285  -3.887  1.00  0.00     0.249 C 
HETATM   17  N   UNL     1      37.473 -12.983  -4.231  1.00  0.00    -0.366 N 
HETATM   18  H   UNL     1      37.808 -12.205  -3.684  1.00  0.00     0.159 HD
HETATM   19  H   UNL     1      36.676 -12.825  -4.835  1.00  0.00     0.159 HD
HETATM   20  O   UNL     1      37.049 -15.192  -4.374  1.00  0.00    -0.268 OA
ENDBRANCH  13  16
ENDBRANCH   8  10
ENDBRANCH   6   8
BRANCH   4  21
HETATM   21  N   UNL     1      43.351 -18.650   2.835  1.00  0.00    -0.069 N 
HETATM   22  N   UNL     1      44.189 -18.831   3.902  1.00  0.00    -0.163 NA
HETATM   23  C   UNL     1      44.616 -20.091   3.784  1.00  0.00     0.177 A 
HETATM   24  C   UNL     1      44.075 -20.735   2.664  1.00  0.00     0.140 A 
HETATM   25  C   UNL     1      43.272 -19.793   2.061  1.00  0.00     0.175 A 
BRANCH  24  26
HETATM   26  N   UNL     1      44.298 -22.081   2.241  1.00  0.00    -0.113 N 
HETATM   27  O   UNL     1      44.129 -22.322   1.040  1.00  0.00    -0.532 OA
HETATM   28  O   UNL     1      44.646 -22.895   3.106  1.00  0.00    -0.532 OA
ENDBRANCH  24  26
ENDBRANCH   4  21
TORSDOF 5
ENDMDL
MODEL 3
REMARK VINA RESULT:      -7.9      1.549      7.532
REMARK  5 active torsions:
REMARK  status: ('A' for Active; 'I' for Inactive)
REMARK    1  A    between atoms: C_4  and  N_5 
REMARK    2  A    between atoms: C_8  and  N_9 
REMARK    3  A    between atoms: C_14  and  N_15 
REMARK    4  A    between atoms: N_15  and  C_16 
REMARK    5  A    between atoms: C_19  and  C_20 
REMARK       I    between atoms: C_20  and  N_21 
ROOT
HETATM    1  C   UNL     1      43.486 -14.615   6.159  1.00  0.00     0.071 C 
HETATM    2  C   UNL     1      42.993 -15.580   5.122  1.00  0.00     0.053 A 
HETATM    3  N   UNL     1      43.636 -16.755   5.016  1.00  0.00    -0.066 NA
HETATM    4  C   UNL     1      43.203 -17.607   4.064  1.00  0.00     0.751 A 
HETATM    5  N   UNL     1      42.184 -17.348   3.215  1.00  0.00    -0.043 NA
HETATM    6  C   UNL     1      41.551 -16.173   3.351  1.00  0.00     0.149 A 
HETATM    7  C   UNL     1      41.927 -15.253   4.313  1.00  0.00     0.078 A 
ENDROOT
BRANCH   6   8
HETATM    8  N   UNL     1      40.472 -15.828   2.505  1.00  0.00    -0.340 N 
HETATM    9  H   UNL     1      39.636 -16.333   2.778  1.00  0.00     0.167 HD
BRANCH   8  10
HETATM   10  C   UNL     1      40.496 -15.497   1.135  1.00  0.00     0.033 A 
HETATM   11  C   UNL     1      39.823 -14.347   0.696  1.00  0.00     0.030 A 
HETATM   12  C   UNL     1      39.903 -13.921  -0.637  1.00  0.00     0.019 A 
HETATM   13  C   UNL     1      40.678 -14.637  -1.554  1.00  0.00     0.032 A 
HETATM   14  C   UNL     1      41.377 -15.768  -1.122  1.00  0.00     0.019 A 
HETATM   15  C   UNL     1      41.286 -16.189   0.210  1.00  0.00     0.030 A 
BRANCH  13  16
HETATM   16  C   UNL     1      40.832 -14.209  -2.970  1.00  0.00     0.249 C 
HETATM   17  N   UNL     1      42.100 -14.144  -3.477  1.00  0.00    -0.366 N 
HETATM   18  H   UNL     1      42.922 -14.143  -2.891  1.00  0.00     0.159 HD
HETATM   19  H   UNL     1      42.185 -13.751  -4.406  1.00  0.00     0.159 HD
HETATM   20  O   UNL     1      39.868 -13.899  -3.657  1.00  0.00    -0.268 OA
ENDBRANCH  13  16
ENDBRANCH   8  10
ENDBRANCH   6   8
BRANCH   4  21
HETATM   21  N   UNL     1      43.845 -18.889   3.953  1.00  0.00    -0.069 N 
HETATM   22  N   UNL     1      44.786 -19.325   4.846  1.00  0.00    -0.163 NA
HETATM   23  C   UNL     1      45.113 -20.547   4.419  1.00  0.00     0.177 A 
HETATM   24  C   UNL     1      44.406 -20.918   3.268  1.00  0.00     0.140 A 
HETATM   25  C   UNL     1      43.603 -19.838   2.977  1.00  0.00     0.175 A 
BRANCH  24  26
HETATM   26  N   UNL     1      44.490 -22.152   2.553  1.00  0.00    -0.113 N 
HETATM   27  O   UNL     1      44.255 -22.109   1.340  1.00  0.00    -0.532 OA
HETATM   28  O   UNL     1      44.794 -23.161   3.202  1.00  0.00    -0.532 OA
ENDBRANCH  24  26
ENDBRANCH   4  21
TORSDOF 5
ENDMDL
MODEL 4
REMARK VINA RESULT:      -7.7      2.973      4.113
REMARK  5 active torsions:
REMARK  status: ('A' for Active; 'I' for Inactive)
REMARK    1  A    between atoms: C_4  and  N_5 
REMARK    2  A    between atoms: C_8  and  N_9 
REMARK    3  A    between atoms: C_14  and  N_15 
REMARK    4  A    between atoms: N_15  and  C_16 
REMARK    5  A    between atoms: C_19  and  C_20 
REMARK       I    between atoms: C_20  and  N_21 
ROOT
HETATM    1  C   UNL     1      45.140 -13.243   7.728  1.00  0.00     0.071 C 
HETATM    2  C   UNL     1      44.308 -14.189   6.915  1.00  0.00     0.053 A 
HETATM    3  N   UNL     1      43.435 -13.654   6.045  1.00  0.00    -0.066 NA
HETATM    4  C   UNL     1      42.673 -14.511   5.336  1.00  0.00     0.751 A 
HETATM    5  N   UNL     1      42.724 -15.856   5.455  1.00  0.00    -0.043 NA
HETATM    6  C   UNL     1      43.614 -16.366   6.321  1.00  0.00     0.149 A 
HETATM    7  C   UNL     1      44.441 -15.551   7.074  1.00  0.00     0.078 A 
ENDROOT
BRANCH   6   8
HETATM    8  N   UNL     1      43.734 -17.762   6.502  1.00  0.00    -0.340 N 
HETATM    9  H   UNL     1      44.143 -17.967   7.406  1.00  0.00     0.167 HD
BRANCH   8  10
HETATM   10  C   UNL     1      43.998 -18.756   5.538  1.00  0.00     0.033 A 
HETATM   11  C   UNL     1      44.422 -20.026   5.960  1.00  0.00     0.030 A 
HETATM   12  C   UNL     1      44.599 -21.074   5.048  1.00  0.00     0.019 A 
HETATM   13  C   UNL     1      44.335 -20.872   3.691  1.00  0.00     0.032 A 
HETATM   14  C   UNL     1      43.884 -19.621   3.261  1.00  0.00     0.019 A 
HETATM   15  C   UNL     1      43.716 -18.577   4.178  1.00  0.00     0.030 A 
BRANCH  13  16
HETATM   16  C   UNL     1      44.466 -21.960   2.684  1.00  0.00     0.249 C 
HETATM   17  N   UNL     1      44.154 -21.662   1.387  1.00  0.00    -0.366 N 
HETATM   18  H   UNL     1      43.632 -20.838   1.127  1.00  0.00     0.159 HD
HETATM   19  H   UNL     1      44.150 -22.443   0.743  1.00  0.00     0.159 HD
HETATM   20  O   UNL     1      44.813 -23.091   3.000  1.00  0.00    -0.268 OA
ENDBRANCH  13  16
ENDBRANCH   8  10
ENDBRANCH   6   8
BRANCH   4  21
HETATM   21  N   UNL     1      41.757 -13.970   4.368  1.00  0.00    -0.069 N 
HETATM   22  N   UNL     1      41.869 -12.698   3.873  1.00  0.00    -0.163 NA
HETATM   23  C   UNL     1      40.867 -12.588   2.999  1.00  0.00     0.177 A 
HETATM   24  C   UNL     1      40.103 -13.759   2.911  1.00  0.00     0.140 A 
HETATM   25  C   UNL     1      40.683 -14.633   3.803  1.00  0.00     0.175 A 
BRANCH  24  26
HETATM   26  N   UNL     1      38.973 -14.002   2.072  1.00  0.00    -0.113 N 
HETATM   27  O   UNL     1      38.753 -15.179   1.763  1.00  0.00    -0.532 OA
HETATM   28  O   UNL     1      38.305 -13.020   1.726  1.00  0.00    -0.532 OA
ENDBRANCH  24  26
ENDBRANCH   4  21
TORSDOF 5
ENDMDL
MODEL 5
REMARK VINA RESULT:      -7.7      1.938      7.614
REMARK  5 active torsions:
REMARK  status: ('A' for Active; 'I' for Inactive)
REMARK    1  A    between atoms: C_4  and  N_5 
REMARK    2  A    between atoms: C_8  and  N_9 
REMARK    3  A    between atoms: C_14  and  N_15 
REMARK    4  A    between atoms: N_15  and  C_16 
REMARK    5  A    between atoms: C_19  and  C_20 
REMARK       I    between atoms: C_20  and  N_21 
ROOT
HETATM    1  C   UNL     1      44.159 -14.879   7.054  1.00  0.00     0.071 C 
HETATM    2  C   UNL     1      43.455 -15.735   6.044  1.00  0.00     0.053 A 
HETATM    3  N   UNL     1      44.030 -16.904   5.717  1.00  0.00    -0.066 NA
HETATM    4  C   UNL     1      43.403 -17.657   4.789  1.00  0.00     0.751 A 
HETATM    5  N   UNL     1      42.255 -17.305   4.170  1.00  0.00    -0.043 NA
HETATM    6  C   UNL     1      41.695 -16.138   4.524  1.00  0.00     0.149 A 
HETATM    7  C   UNL     1      42.270 -15.317   5.479  1.00  0.00     0.078 A 
ENDROOT
BRANCH   6   8
HETATM    8  N   UNL     1      40.492 -15.699   3.926  1.00  0.00    -0.340 N 
HETATM    9  H   UNL     1      39.712 -16.257   4.256  1.00  0.00     0.167 HD
BRANCH   8  10
HETATM   10  C   UNL     1      40.290 -15.173   2.634  1.00  0.00     0.033 A 
HETATM   11  C   UNL     1      41.329 -15.246   1.694  1.00  0.00     0.030 A 
HETATM   12  C   UNL     1      41.143 -14.829   0.370  1.00  0.00     0.019 A 
HETATM   13  C   UNL     1      39.898 -14.346  -0.042  1.00  0.00     0.032 A 
HETATM   14  C   UNL     1      38.846 -14.295   0.877  1.00  0.00     0.019 A 
HETATM   15  C   UNL     1      39.043 -14.707   2.200  1.00  0.00     0.030 A 
BRANCH  13  16
HETATM   16  C   UNL     1      39.631 -13.928  -1.445  1.00  0.00     0.249 C 
HETATM   17  N   UNL     1      38.782 -14.704  -2.185  1.00  0.00    -0.366 N 
HETATM   18  H   UNL     1      38.523 -15.641  -1.914  1.00  0.00     0.159 HD
HETATM   19  H   UNL     1      38.700 -14.459  -3.164  1.00  0.00     0.159 HD
HETATM   20  O   UNL     1      40.167 -12.943  -1.937  1.00  0.00    -0.268 OA
ENDBRANCH  13  16
ENDBRANCH   8  10
ENDBRANCH   6   8
BRANCH   4  21
HETATM   21  N   UNL     1      43.973 -18.932   4.447  1.00  0.00    -0.069 N 
HETATM   22  N   UNL     1      44.888 -19.571   5.240  1.00  0.00    -0.163 NA
HETATM   23  C   UNL     1      45.146 -20.714   4.602  1.00  0.00     0.177 A 
HETATM   24  C   UNL     1      44.419 -20.837   3.410  1.00  0.00     0.140 A 
HETATM   25  C   UNL     1      43.678 -19.680   3.322  1.00  0.00     0.175 A 
BRANCH  24  26
HETATM   26  N   UNL     1      44.434 -21.928   2.489  1.00  0.00    -0.113 N 
HETATM   27  O   UNL     1      44.782 -23.028   2.934  1.00  0.00    -0.532 OA
HETATM   28  O   UNL     1      44.095 -21.688   1.323  1.00  0.00    -0.532 OA
ENDBRANCH  24  26
ENDBRANCH   4  21
TORSDOF 5
ENDMDL
MODEL 6
REMARK VINA RESULT:      -7.4      3.376      8.067
REMARK  5 active torsions:
REMARK  status: ('A' for Active; 'I' for Inactive)
REMARK    1  A    between atoms: C_4  and  N_5 
REMARK    2  A    between atoms: C_8  and  N_9 
REMARK    3  A    between atoms: C_14  and  N_15 
REMARK    4  A    between atoms: N_15  and  C_16 
REMARK    5  A    between atoms: C_19  and  C_20 
REMARK       I    between atoms: C_20  and  N_21 
ROOT
HETATM    1  C   UNL     1      41.278 -15.629  -0.367  1.00  0.00     0.071 C 
HETATM    2  C   UNL     1      41.406 -16.112   1.046  1.00  0.00     0.053 A 
HETATM    3  N   UNL     1      42.159 -17.204   1.261  1.00  0.00    -0.066 NA
HETATM    4  C   UNL     1      42.249 -17.647   2.532  1.00  0.00     0.751 A 
HETATM    5  N   UNL     1      41.626 -17.073   3.585  1.00  0.00    -0.043 NA
HETATM    6  C   UNL     1      40.891 -15.976   3.346  1.00  0.00     0.149 A 
HETATM    7  C   UNL     1      40.763 -15.453   2.071  1.00  0.00     0.078 A 
ENDROOT
BRANCH   6   8
HETATM    8  N   UNL     1      40.211 -15.315   4.394  1.00  0.00    -0.340 N 
HETATM    9  H   UNL     1      39.212 -15.465   4.316  1.00  0.00     0.167 HD
BRANCH   8  10
HETATM   10  C   UNL     1      40.541 -14.101   5.030  1.00  0.00     0.033 A 
HETATM   11  C   UNL     1      39.524 -13.346   5.635  1.00  0.00     0.030 A 
HETATM   12  C   UNL     1      39.814 -12.186   6.366  1.00  0.00     0.019 A 
HETATM   13  C   UNL     1      41.140 -11.770   6.518  1.00  0.00     0.032 A 
HETATM   14  C   UNL     1      42.165 -12.529   5.944  1.00  0.00     0.019 A 
HETATM   15  C   UNL     1      41.864 -13.683   5.211  1.00  0.00     0.030 A 
BRANCH  13  16
HETATM   16  C   UNL     1      41.511 -10.571   7.316  1.00  0.00     0.249 C 
HETATM   17  N   UNL     1      40.681  -9.487   7.252  1.00  0.00    -0.366 N 
HETATM   18  H   UNL     1      39.982  -9.378   6.533  1.00  0.00     0.159 HD
HETATM   19  H   UNL     1      41.010  -8.651   7.719  1.00  0.00     0.159 HD
HETATM   20  O   UNL     1      42.535 -10.537   7.988  1.00  0.00    -0.268 OA
ENDBRANCH  13  16
ENDBRANCH   8  10
ENDBRANCH   6   8
BRANCH   4  21
HETATM   21  N   UNL     1      43.079 -18.790   2.799  1.00  0.00    -0.069 N 
HETATM   22  N   UNL     1      43.952 -18.841   3.852  1.00  0.00    -0.163 NA
HETATM   23  C   UNL     1      44.504 -20.054   3.772  1.00  0.00     0.177 A 
HETATM   24  C   UNL     1      44.010 -20.796   2.692  1.00  0.00     0.140 A 
HETATM   25  C   UNL     1      43.102 -19.966   2.072  1.00  0.00     0.175 A 
BRANCH  24  26
HETATM   26  N   UNL     1      44.361 -22.129   2.316  1.00  0.00    -0.113 N 
HETATM   27  O   UNL     1      44.735 -22.882   3.222  1.00  0.00    -0.532 OA
HETATM   28  O   UNL     1      44.258 -22.424   1.118  1.00  0.00    -0.532 OA
ENDBRANCH  24  26
ENDBRANCH   4  21
TORSDOF 5
ENDMDL
MODEL 7
REMARK VINA RESULT:      -7.4      4.329      8.137
REMARK  5 active torsions:
REMARK  status: ('A' for Active; 'I' for Inactive)
REMARK    1  A    between atoms: C_4  and  N_5 
REMARK    2  A    between atoms: C_8  and  N_9 
REMARK    3  A    between atoms: C_14  and  N_15 
REMARK    4  A    between atoms: N_15  and  C_16 
REMARK    5  A    between atoms: C_19  and  C_20 
REMARK       I    between atoms: C_20  and  N_21 
ROOT
HETATM    1  C   UNL     1      44.331 -19.547   5.151  1.00  0.00     0.071 C 
HETATM    2  C   UNL     1      43.559 -18.283   4.918  1.00  0.00     0.053 A 
HETATM    3  N   UNL     1      43.917 -17.199   5.626  1.00  0.00    -0.066 NA
HETATM    4  C   UNL     1      43.202 -16.073   5.429  1.00  0.00     0.751 A 
HETATM    5  N   UNL     1      42.153 -15.974   4.583  1.00  0.00    -0.043 NA
HETATM    6  C   UNL     1      41.823 -17.067   3.878  1.00  0.00     0.149 A 
HETATM    7  C   UNL     1      42.518 -18.256   4.014  1.00  0.00     0.078 A 
ENDROOT
BRANCH   6   8
HETATM    8  N   UNL     1      40.741 -17.045   2.969  1.00  0.00    -0.340 N 
HETATM    9  H   UNL     1      40.231 -17.921   3.007  1.00  0.00     0.167 HD
BRANCH   8  10
HETATM   10  C   UNL     1      40.657 -16.410   1.714  1.00  0.00     0.033 A 
HETATM   11  C   UNL     1      39.936 -15.211   1.599  1.00  0.00     0.030 A 
HETATM   12  C   UNL     1      39.909 -14.491   0.398  1.00  0.00     0.019 A 
HETATM   13  C   UNL     1      40.623 -14.954  -0.711  1.00  0.00     0.032 A 
HETATM   14  C   UNL     1      41.368 -16.131  -0.602  1.00  0.00     0.019 A 
HETATM   15  C   UNL     1      41.384 -16.848   0.601  1.00  0.00     0.030 A 
BRANCH  13  16
HETATM   16  C   UNL     1      40.663 -14.209  -1.999  1.00  0.00     0.249 C 
HETATM   17  N   UNL     1      41.873 -14.095  -2.625  1.00  0.00    -0.366 N 
HETATM   18  H   UNL     1      42.748 -14.278  -2.158  1.00  0.00     0.159 HD
HETATM   19  H   UNL     1      41.892 -13.496  -3.441  1.00  0.00     0.159 HD
HETATM   20  O   UNL     1      39.661 -13.692  -2.475  1.00  0.00    -0.268 OA
ENDBRANCH  13  16
ENDBRANCH   8  10
ENDBRANCH   6   8
BRANCH   4  21
HETATM   21  N   UNL     1      43.588 -14.886   6.143  1.00  0.00    -0.069 N 
HETATM   22  N   UNL     1      42.854 -13.731   6.110  1.00  0.00    -0.163 NA
HETATM   23  C   UNL     1      43.517 -12.889   6.907  1.00  0.00     0.177 A 
HETATM   24  C   UNL     1      44.666 -13.469   7.460  1.00  0.00     0.140 A 
HETATM   25  C   UNL     1      44.701 -14.749   6.952  1.00  0.00     0.175 A 
BRANCH  24  26
HETATM   26  N   UNL     1      45.597 -12.871   8.363  1.00  0.00    -0.113 N 
HETATM   27  O   UNL     1      45.283 -12.861   9.559  1.00  0.00    -0.532 OA
HETATM   28  O   UNL     1      46.640 -12.415   7.878  1.00  0.00    -0.532 OA
ENDBRANCH  24  26
ENDBRANCH   4  21
TORSDOF 5
ENDMDL
MODEL 8
REMARK VINA RESULT:      -7.3      6.391     10.030
REMARK  5 active torsions:
REMARK  status: ('A' for Active; 'I' for Inactive)
REMARK    1  A    between atoms: C_4  and  N_5 
REMARK    2  A    between atoms: C_8  and  N_9 
REMARK    3  A    between atoms: C_14  and  N_15 
REMARK    4  A    between atoms: N_15  and  C_16 
REMARK    5  A    between atoms: C_19  and  C_20 
REMARK       I    between atoms: C_20  and  N_21 
ROOT
HETATM    1  C   UNL     1      41.697 -13.570   4.627  1.00  0.00     0.071 C 
HETATM    2  C   UNL     1      42.705 -14.128   5.587  1.00  0.00     0.053 A 
HETATM    3  N   UNL     1      42.804 -15.465   5.672  1.00  0.00    -0.066 NA
HETATM    4  C   UNL     1      43.696 -15.959   6.556  1.00  0.00     0.751 A 
HETATM    5  N   UNL     1      44.475 -15.201   7.358  1.00  0.00    -0.043 NA
HETATM    6  C   UNL     1      44.366 -13.868   7.244  1.00  0.00     0.149 A 
HETATM    7  C   UNL     1      43.485 -13.286   6.350  1.00  0.00     0.078 A 
ENDROOT
BRANCH   6   8
HETATM    8  N   UNL     1      45.149 -13.005   8.044  1.00  0.00    -0.340 N 
HETATM    9  H   UNL     1      46.048 -13.429   8.244  1.00  0.00     0.167 HD
BRANCH   8  10
HETATM   10  C   UNL     1      44.728 -12.105   9.044  1.00  0.00     0.033 A 
HETATM   11  C   UNL     1      43.580 -11.327   8.826  1.00  0.00     0.030 A 
HETATM   12  C   UNL     1      43.065 -10.494   9.828  1.00  0.00     0.019 A 
HETATM   13  C   UNL     1      43.685 -10.440  11.079  1.00  0.00     0.032 A 
HETATM   14  C   UNL     1      44.812 -11.232  11.318  1.00  0.00     0.019 A 
HETATM   15  C   UNL     1      45.324 -12.056  10.309  1.00  0.00     0.030 A 
BRANCH  13  16
HETATM   16  C   UNL     1      43.159  -9.606  12.193  1.00  0.00     0.249 C 
HETATM   17  N   UNL     1      42.073  -8.816  11.933  1.00  0.00    -0.366 N 
HETATM   18  H   UNL     1      41.769  -8.599  10.996  1.00  0.00     0.159 HD
HETATM   19  H   UNL     1      41.801  -8.182  12.674  1.00  0.00     0.159 HD
HETATM   20  O   UNL     1      43.687  -9.600  13.298  1.00  0.00    -0.268 OA
ENDBRANCH  13  16
ENDBRANCH   8  10
ENDBRANCH   6   8
BRANCH   4  21
HETATM   21  N   UNL     1      43.852 -17.386   6.641  1.00  0.00    -0.069 N 
HETATM   22  N   UNL     1      43.535 -18.100   7.765  1.00  0.00    -0.163 NA
HETATM   23  C   UNL     1      43.791 -19.369   7.440  1.00  0.00     0.177 A 
HETATM   24  C   UNL     1      44.268 -19.500   6.129  1.00  0.00     0.140 A 
HETATM   25  C   UNL     1      44.310 -18.216   5.633  1.00  0.00     0.175 A 
BRANCH  24  26
HETATM   26  N   UNL     1      44.626 -20.703   5.448  1.00  0.00    -0.113 N 
HETATM   27  O   UNL     1      44.337 -21.767   6.009  1.00  0.00    -0.532 OA
HETATM   28  O   UNL     1      45.190 -20.585   4.353  1.00  0.00    -0.532 OA
ENDBRANCH  24  26
ENDBRANCH   4  21
TORSDOF 5
ENDMDL
MODEL 9
REMARK VINA RESULT:      -7.2      3.422      5.367
REMARK  5 active torsions:
REMARK  status: ('A' for Active; 'I' for Inactive)
REMARK    1  A    between atoms: C_4  and  N_5 
REMARK    2  A    between atoms: C_8  and  N_9 
REMARK    3  A    between atoms: C_14  and  N_15 
REMARK    4  A    between atoms: N_15  and  C_16 
REMARK    5  A    between atoms: C_19  and  C_20 
REMARK       I    between atoms: C_20  and  N_21 
ROOT
HETATM    1  C   UNL     1      43.550 -19.493   1.770  1.00  0.00     0.071 C 
HETATM    2  C   UNL     1      42.753 -18.251   2.038  1.00  0.00     0.053 A 
HETATM    3  N   UNL     1      42.291 -17.571   0.976  1.00  0.00    -0.066 NA
HETATM    4  C   UNL     1      41.596 -16.442   1.226  1.00  0.00     0.751 A 
HETATM    5  N   UNL     1      41.353 -15.954   2.462  1.00  0.00    -0.043 NA
HETATM    6  C   UNL     1      41.815 -16.659   3.506  1.00  0.00     0.149 A 
HETATM    7  C   UNL     1      42.523 -17.835   3.331  1.00  0.00     0.078 A 
ENDROOT
BRANCH   6   8
HETATM    8  N   UNL     1      41.598 -16.219   4.832  1.00  0.00    -0.340 N 
HETATM    9  H   UNL     1      40.611 -16.046   4.988  1.00  0.00     0.167 HD
BRANCH   8  10
HETATM   10  C   UNL     1      42.434 -15.429   5.646  1.00  0.00     0.033 A 
HETATM   11  C   UNL     1      43.424 -16.052   6.421  1.00  0.00     0.030 A 
HETATM   12  C   UNL     1      44.344 -15.303   7.167  1.00  0.00     0.019 A 
HETATM   13  C   UNL     1      44.297 -13.907   7.134  1.00  0.00     0.032 A 
HETATM   14  C   UNL     1      43.334 -13.273   6.344  1.00  0.00     0.019 A 
HETATM   15  C   UNL     1      42.415 -14.030   5.607  1.00  0.00     0.030 A 
BRANCH  13  16
HETATM   16  C   UNL     1      45.273 -13.061   7.873  1.00  0.00     0.249 C 
HETATM   17  N   UNL     1      44.828 -12.410   8.990  1.00  0.00    -0.366 N 
HETATM   18  H   UNL     1      43.847 -12.291   9.197  1.00  0.00     0.159 HD
HETATM   19  H   UNL     1      45.479 -11.761   9.412  1.00  0.00     0.159 HD
HETATM   20  O   UNL     1      46.427 -12.924   7.488  1.00  0.00    -0.268 OA
ENDBRANCH  13  16
ENDBRANCH   8  10
ENDBRANCH   6   8
BRANCH   4  21
HETATM   21  N   UNL     1      41.054 -15.714   0.110  1.00  0.00    -0.069 N 
HETATM   22  N   UNL     1      40.186 -14.667   0.261  1.00  0.00    -0.163 NA
HETATM   23  C   UNL     1      39.942 -14.250  -0.984  1.00  0.00     0.177 A 
HETATM   24  C   UNL     1      40.632 -15.002  -1.944  1.00  0.00     0.140 A 
HETATM   25  C   UNL     1      41.335 -15.944  -1.225  1.00  0.00     0.175 A 
BRANCH  24  26
HETATM   26  N   UNL     1      40.620 -14.828  -3.361  1.00  0.00    -0.113 N 
HETATM   27  O   UNL     1      39.825 -15.526  -4.001  1.00  0.00    -0.532 OA
HETATM   28  O   UNL     1      41.400 -13.991  -3.834  1.00  0.00    -0.532 OA
ENDBRANCH  24  26
ENDBRANCH   4  21
TORSDOF 5
ENDMDL
MODEL 10
REMARK VINA RESULT:      -7.2      1.952      2.710
REMARK  5 active torsions:
REMARK  status: ('A' for Active; 'I' for Inactive)
REMARK    1  A    between atoms: C_4  and  N_5 
REMARK    2  A    between atoms: C_8  and  N_9 
REMARK    3  A    between atoms: C_14  and  N_15 
REMARK    4  A    between atoms: N_15  and  C_16 
REMARK    5  A    between atoms: C_19  and  C_20 
REMARK       I    between atoms: C_20  and  N_21 
ROOT
HETATM    1  C   UNL     1      41.645 -10.558   0.997  1.00  0.00     0.071 C 
HETATM    2  C   UNL     1      41.651 -12.053   0.882  1.00  0.00     0.053 A 
HETATM    3  N   UNL     1      41.106 -12.592  -0.220  1.00  0.00    -0.066 NA
HETATM    4  C   UNL     1      41.093 -13.938  -0.304  1.00  0.00     0.751 A 
HETATM    5  N   UNL     1      41.577 -14.766   0.647  1.00  0.00    -0.043 NA
HETATM    6  C   UNL     1      42.129 -14.203   1.734  1.00  0.00     0.149 A 
HETATM    7  C   UNL     1      42.193 -12.829   1.885  1.00  0.00     0.078 A 
ENDROOT
BRANCH   6   8
HETATM    8  N   UNL     1      42.663 -14.999   2.772  1.00  0.00    -0.340 N 
HETATM    9  H   UNL     1      43.308 -14.456   3.336  1.00  0.00     0.167 HD
BRANCH   8  10
HETATM   10  C   UNL     1      42.961 -16.377   2.763  1.00  0.00     0.033 A 
HETATM   11  C   UNL     1      43.829 -16.884   1.783  1.00  0.00     0.030 A 
HETATM   12  C   UNL     1      44.234 -18.224   1.794  1.00  0.00     0.019 A 
HETATM   13  C   UNL     1      43.788 -19.082   2.804  1.00  0.00     0.032 A 
HETATM   14  C   UNL     1      42.946 -18.582   3.802  1.00  0.00     0.019 A 
HETATM   15  C   UNL     1      42.541 -17.242   3.779  1.00  0.00     0.030 A 
BRANCH  13  16
HETATM   16  C   UNL     1      44.218 -20.503   2.889  1.00  0.00     0.249 C 
HETATM   17  N   UNL     1      45.010 -20.862   3.944  1.00  0.00    -0.366 N 
HETATM   18  H   UNL     1      45.493 -20.188   4.517  1.00  0.00     0.159 HD
HETATM   19  H   UNL     1      45.374 -21.807   3.921  1.00  0.00     0.159 HD
HETATM   20  O   UNL     1      43.903 -21.323   2.036  1.00  0.00    -0.268 OA
ENDBRANCH  13  16
ENDBRANCH   8  10
ENDBRANCH   6   8
BRANCH   4  21
HETATM   21  N   UNL     1      40.551 -14.543  -1.491  1.00  0.00    -0.069 N 
HETATM   22  N   UNL     1      41.195 -15.538  -2.175  1.00  0.00    -0.163 NA
HETATM   23  C   UNL     1      40.371 -15.843  -3.180  1.00  0.00     0.177 A 
HETATM   24  C   UNL     1      39.203 -15.070  -3.167  1.00  0.00     0.140 A 
HETATM   25  C   UNL     1      39.339 -14.234  -2.081  1.00  0.00     0.175 A 
BRANCH  24  26
HETATM   26  N   UNL     1      38.103 -15.136  -4.075  1.00  0.00    -0.113 N 
HETATM   27  O   UNL     1      37.187 -14.324  -3.900  1.00  0.00    -0.532 OA
HETATM   28  O   UNL     1      38.156 -15.995  -4.965  1.00  0.00    -0.532 OA
ENDBRANCH  24  26
ENDBRANCH   4  21
TORSDOF 5
ENDMDL
