MODEL 1
REMARK VINA RESULT:      -8.7      0.000      0.000
REMARK  4 active torsions:
REMARK  status: ('A' for Active; 'I' for Inactive)
REMARK    1  A    between atoms: C_8  and  C_9 
REMARK    2  A    between atoms: C_9  and  C_10 
REMARK       I    between atoms: C_10  and  N_11 
REMARK    3  A    between atoms: N_11  and  C_12 
REMARK    4  A    between atoms: C_14  and  C_15 
ROOT
HETATM    1  C   UNL     1      42.371 -17.187   0.938  1.00  0.00     0.226 C 
HETATM    2  N   UNL     1      42.487 -16.078   0.113  1.00  0.00    -0.327 N 
HETATM    3  O   UNL     1      41.370 -17.528   1.564  1.00  0.00    -0.273 OA
HETATM    4  H   UNL     1      43.370 -15.971  -0.372  1.00  0.00     0.169 HD
ENDROOT
BRANCH   2   5
HETATM    5  C   UNL     1      41.505 -15.097  -0.153  1.00  0.00     0.035 A 
HETATM    6  C   UNL     1      40.673 -15.303  -1.267  1.00  0.00     0.042 A 
HETATM    7  C   UNL     1      39.683 -14.371  -1.624  1.00  0.00    -0.021 A 
HETATM    8  C   UNL     1      39.529 -13.226  -0.833  1.00  0.00     0.012 A 
HETATM    9  C   UNL     1      40.347 -13.015   0.277  1.00  0.00     0.003 A 
HETATM   10  C   UNL     1      41.332 -13.945   0.612  1.00  0.00     0.029 A 
BRANCH   7  11
HETATM   11  C   UNL     1      38.838 -14.564  -2.796  1.00  0.00     0.010 A 
HETATM   12  C   UNL     1      38.734 -15.660  -3.689  1.00  0.00     0.152 A 
HETATM   13  N   UNL     1      37.836 -15.463  -4.657  1.00  0.00    -0.187 NA
HETATM   14  N   UNL     1      37.358 -14.237  -4.394  1.00  0.00    -0.289 N 
HETATM   15  H   UNL     1      36.646 -13.858  -5.009  1.00  0.00     0.188 HD
HETATM   16  C   UNL     1      37.924 -13.658  -3.294  1.00  0.00     0.123 A 
ENDBRANCH   7  11
ENDBRANCH   2   5
BRANCH   1  17
HETATM   17  C   UNL     1      43.666 -17.978   1.051  1.00  0.00     0.144 C 
BRANCH  17  18
HETATM   18  C   UNL     1      43.900 -18.490   2.436  1.00  0.00    -0.021 A 
HETATM   19  C   UNL     1      44.143 -19.847   2.829  1.00  0.00    -0.001 A 
HETATM   20  C   UNL     1      44.231 -21.073   2.138  1.00  0.00     0.014 A 
HETATM   21  C   UNL     1      44.335 -19.851   4.212  1.00  0.00     0.042 A 
HETATM   22  C   UNL     1      44.504 -22.249   2.847  1.00  0.00     0.001 A 
HETATM   23  C   UNL     1      44.691 -22.218   4.227  1.00  0.00     0.002 A 
HETATM   24  C   UNL     1      44.609 -21.018   4.937  1.00  0.00     0.030 A 
HETATM   25  N   UNL     1      44.213 -18.553   4.645  1.00  0.00    -0.365 N 
HETATM   26  H   UNL     1      44.311 -18.255   5.605  1.00  0.00     0.165 HD
HETATM   27  C   UNL     1      43.957 -17.726   3.586  1.00  0.00     0.097 A 
ENDBRANCH  17  18
ENDBRANCH   1  17
TORSDOF 4
ENDMDL
MODEL 2
REMARK VINA RESULT:      -8.6      2.087      2.780
REMARK  4 active torsions:
REMARK  status: ('A' for Active; 'I' for Inactive)
REMARK    1  A    between atoms: C_8  and  C_9 
REMARK    2  A    between atoms: C_9  and  C_10 
REMARK       I    between atoms: C_10  and  N_11 
REMARK    3  A    between atoms: N_11  and  C_12 
REMARK    4  A    between atoms: C_14  and  C_15 
ROOT
HETATM    1  C   UNL     1      42.314 -17.122   4.155  1.00  0.00     0.226 C 
HETATM    2  N   UNL     1      42.473 -16.128   3.200  1.00  0.00    -0.327 N 
HETATM    3  O   UNL     1      41.275 -17.724   4.414  1.00  0.00    -0.273 OA
HETATM    4  H   UNL     1      43.413 -15.772   3.079  1.00  0.00     0.169 HD
ENDROOT
BRANCH   2   5
HETATM    5  C   UNL     1      41.482 -15.578   2.358  1.00  0.00     0.035 A 
HETATM    6  C   UNL     1      41.779 -15.486   0.987  1.00  0.00     0.042 A 
HETATM    7  C   UNL     1      40.865 -14.932   0.074  1.00  0.00    -0.021 A 
HETATM    8  C   UNL     1      39.631 -14.481   0.558  1.00  0.00     0.012 A 
HETATM    9  C   UNL     1      39.324 -14.574   1.916  1.00  0.00     0.003 A 
HETATM   10  C   UNL     1      40.247 -15.117   2.810  1.00  0.00     0.029 A 
BRANCH   7  11
HETATM   11  C   UNL     1      41.181 -14.804  -1.343  1.00  0.00     0.010 A 
HETATM   12  C   UNL     1      40.855 -15.640  -2.441  1.00  0.00     0.152 A 
HETATM   13  N   UNL     1      41.330 -15.185  -3.603  1.00  0.00    -0.187 NA
HETATM   14  N   UNL     1      41.966 -14.056  -3.259  1.00  0.00    -0.289 N 
HETATM   15  H   UNL     1      42.422 -13.520  -3.991  1.00  0.00     0.188 HD
HETATM   16  C   UNL     1      41.908 -13.784  -1.922  1.00  0.00     0.123 A 
ENDBRANCH   7  11
ENDBRANCH   2   5
BRANCH   1  17
HETATM   17  C   UNL     1      43.590 -17.401   4.937  1.00  0.00     0.144 C 
BRANCH  17  18
HETATM   18  C   UNL     1      43.947 -18.853   4.939  1.00  0.00    -0.021 A 
HETATM   19  C   UNL     1      44.014 -19.731   3.808  1.00  0.00    -0.001 A 
HETATM   20  C   UNL     1      43.781 -19.578   2.426  1.00  0.00     0.014 A 
HETATM   21  C   UNL     1      44.418 -20.983   4.277  1.00  0.00     0.042 A 
HETATM   22  C   UNL     1      43.957 -20.671   1.569  1.00  0.00     0.001 A 
HETATM   23  C   UNL     1      44.361 -21.907   2.069  1.00  0.00     0.002 A 
HETATM   24  C   UNL     1      44.598 -22.087   3.434  1.00  0.00     0.030 A 
HETATM   25  N   UNL     1      44.588 -20.874   5.636  1.00  0.00    -0.365 N 
HETATM   26  H   UNL     1      44.886 -21.627   6.240  1.00  0.00     0.165 HD
HETATM   27  C   UNL     1      44.315 -19.598   6.044  1.00  0.00     0.097 A 
ENDBRANCH  17  18
ENDBRANCH   1  17
TORSDOF 4
ENDMDL
MODEL 3
REMARK VINA RESULT:      -8.6      3.132      4.913
REMARK  4 active torsions:
REMARK  status: ('A' for Active; 'I' for Inactive)
REMARK    1  A    between atoms: C_8  and  C_9 
REMARK    2  A    between atoms: C_9  and  C_10 
REMARK       I    between atoms: C_10  and  N_11 
REMARK    3  A    between atoms: N_11  and  C_12 
REMARK    4  A    between atoms: C_14  and  C_15 
ROOT
HETATM    1  C   UNL     1      42.034 -17.113   1.185  1.00  0.00     0.226 C 
HETATM    2  N   UNL     1      42.164 -15.760   1.462  1.00  0.00    -0.327 N 
HETATM    3  O   UNL     1      40.981 -17.732   1.053  1.00  0.00    -0.273 OA
HETATM    4  H   UNL     1      43.110 -15.397   1.485  1.00  0.00     0.169 HD
ENDROOT
BRANCH   2   5
HETATM    5  C   UNL     1      41.130 -14.824   1.683  1.00  0.00     0.035 A 
HETATM    6  C   UNL     1      40.920 -14.396   3.005  1.00  0.00     0.042 A 
HETATM    7  C   UNL     1      39.899 -13.484   3.327  1.00  0.00    -0.021 A 
HETATM    8  C   UNL     1      39.094 -12.993   2.293  1.00  0.00     0.012 A 
HETATM    9  C   UNL     1      39.298 -13.408   0.977  1.00  0.00     0.003 A 
HETATM   10  C   UNL     1      40.309 -14.321   0.675  1.00  0.00     0.029 A 
BRANCH   7  11
HETATM   11  C   UNL     1      39.657 -13.061   4.701  1.00  0.00     0.010 A 
HETATM   12  C   UNL     1      39.184 -11.828   5.218  1.00  0.00     0.152 A 
HETATM   13  N   UNL     1      39.094 -11.820   6.550  1.00  0.00    -0.187 NA
HETATM   14  N   UNL     1      39.509 -13.047   6.898  1.00  0.00    -0.289 N 
HETATM   15  H   UNL     1      39.532 -13.285   7.884  1.00  0.00     0.188 HD
HETATM   16  C   UNL     1      39.857 -13.826   5.832  1.00  0.00     0.123 A 
ENDBRANCH   7  11
ENDBRANCH   2   5
BRANCH   1  17
HETATM   17  C   UNL     1      43.374 -17.829   1.090  1.00  0.00     0.144 C 
BRANCH  17  18
HETATM   18  C   UNL     1      43.770 -18.466   2.384  1.00  0.00    -0.021 A 
HETATM   19  C   UNL     1      44.032 -19.855   2.621  1.00  0.00    -0.001 A 
HETATM   20  C   UNL     1      44.006 -21.015   1.819  1.00  0.00     0.014 A 
HETATM   21  C   UNL     1      44.397 -19.986   3.962  1.00  0.00     0.042 A 
HETATM   22  C   UNL     1      44.342 -22.253   2.381  1.00  0.00     0.001 A 
HETATM   23  C   UNL     1      44.701 -22.349   3.722  1.00  0.00     0.002 A 
HETATM   24  C   UNL     1      44.735 -21.216   4.540  1.00  0.00     0.030 A 
HETATM   25  N   UNL     1      44.357 -18.731   4.520  1.00  0.00    -0.365 N 
HETATM   26  H   UNL     1      44.582 -18.523   5.483  1.00  0.00     0.165 HD
HETATM   27  C   UNL     1      43.988 -17.810   3.580  1.00  0.00     0.097 A 
ENDBRANCH  17  18
ENDBRANCH   1  17
TORSDOF 4
ENDMDL
MODEL 4
REMARK VINA RESULT:      -8.4      2.064      2.636
REMARK  4 active torsions:
REMARK  status: ('A' for Active; 'I' for Inactive)
REMARK    1  A    between atoms: C_8  and  C_9 
REMARK    2  A    between atoms: C_9  and  C_10 
REMARK       I    between atoms: C_10  and  N_11 
REMARK    3  A    between atoms: N_11  and  C_12 
REMARK    4  A    between atoms: C_14  and  C_15 
ROOT
HETATM    1  C   UNL     1      43.032 -16.241   3.334  1.00  0.00     0.226 C 
HETATM    2  N   UNL     1      41.696 -16.427   3.010  1.00  0.00    -0.327 N 
HETATM    3  O   UNL     1      43.748 -15.312   2.969  1.00  0.00    -0.273 OA
HETATM    4  H   UNL     1      41.237 -17.221   3.441  1.00  0.00     0.169 HD
ENDROOT
BRANCH   2   5
HETATM    5  C   UNL     1      40.893 -15.619   2.174  1.00  0.00     0.035 A 
HETATM    6  C   UNL     1      41.244 -15.551   0.814  1.00  0.00     0.042 A 
HETATM    7  C   UNL     1      40.518 -14.756  -0.090  1.00  0.00    -0.021 A 
HETATM    8  C   UNL     1      39.419 -14.035   0.390  1.00  0.00     0.012 A 
HETATM    9  C   UNL     1      39.060 -14.100   1.736  1.00  0.00     0.003 A 
HETATM   10  C   UNL     1      39.796 -14.886   2.623  1.00  0.00     0.029 A 
BRANCH   7  11
HETATM   11  C   UNL     1      40.896 -14.656  -1.495  1.00  0.00     0.010 A 
HETATM   12  C   UNL     1      40.773 -15.592  -2.553  1.00  0.00     0.152 A 
HETATM   13  N   UNL     1      41.240 -15.131  -3.715  1.00  0.00    -0.187 NA
HETATM   14  N   UNL     1      41.669 -13.896  -3.412  1.00  0.00    -0.289 N 
HETATM   15  H   UNL     1      42.078 -13.335  -4.151  1.00  0.00     0.188 HD
HETATM   16  C   UNL     1      41.487 -13.565  -2.099  1.00  0.00     0.123 A 
ENDBRANCH   7  11
ENDBRANCH   2   5
BRANCH   1  17
HETATM   17  C   UNL     1      43.593 -17.363   4.196  1.00  0.00     0.144 C 
BRANCH  17  18
HETATM   18  C   UNL     1      43.787 -18.629   3.425  1.00  0.00    -0.021 A 
HETATM   19  C   UNL     1      44.148 -19.915   3.946  1.00  0.00    -0.001 A 
HETATM   20  C   UNL     1      44.436 -20.411   5.234  1.00  0.00     0.014 A 
HETATM   21  C   UNL     1      44.184 -20.804   2.871  1.00  0.00     0.042 A 
HETATM   22  C   UNL     1      44.748 -21.766   5.400  1.00  0.00     0.001 A 
HETATM   23  C   UNL     1      44.775 -22.627   4.306  1.00  0.00     0.002 A 
HETATM   24  C   UNL     1      44.495 -22.162   3.018  1.00  0.00     0.030 A 
HETATM   25  N   UNL     1      43.861 -20.091   1.741  1.00  0.00    -0.365 N 
HETATM   26  H   UNL     1      43.803 -20.483   0.811  1.00  0.00     0.165 HD
HETATM   27  C   UNL     1      43.615 -18.786   2.063  1.00  0.00     0.097 A 
ENDBRANCH  17  18
ENDBRANCH   1  17
TORSDOF 4
ENDMDL
MODEL 5
REMARK VINA RESULT:      -8.3      2.824      8.891
REMARK  4 active torsions:
REMARK  status: ('A' for Active; 'I' for Inactive)
REMARK    1  A    between atoms: C_8  and  C_9 
REMARK    2  A    between atoms: C_9  and  C_10 
REMARK       I    between atoms: C_10  and  N_11 
REMARK    3  A    between atoms: N_11  and  C_12 
REMARK    4  A    between atoms: C_14  and  C_15 
ROOT
HETATM    1  C   UNL     1      42.877 -17.349   1.273  1.00  0.00     0.226 C 
HETATM    2  N   UNL     1      42.493 -18.375   2.124  1.00  0.00    -0.327 N 
HETATM    3  O   UNL     1      43.982 -16.813   1.230  1.00  0.00    -0.273 OA
HETATM    4  H   UNL     1      41.558 -18.740   1.991  1.00  0.00     0.169 HD
ENDROOT
BRANCH   2   5
HETATM    5  C   UNL     1      43.266 -18.991   3.134  1.00  0.00     0.035 A 
HETATM    6  C   UNL     1      43.153 -18.476   4.437  1.00  0.00     0.042 A 
HETATM    7  C   UNL     1      43.900 -19.008   5.502  1.00  0.00    -0.021 A 
HETATM    8  C   UNL     1      44.759 -20.081   5.243  1.00  0.00     0.012 A 
HETATM    9  C   UNL     1      44.876 -20.603   3.954  1.00  0.00     0.003 A 
HETATM   10  C   UNL     1      44.135 -20.057   2.905  1.00  0.00     0.029 A 
BRANCH   7  11
HETATM   11  C   UNL     1      43.810 -18.457   6.849  1.00  0.00     0.010 A 
HETATM   12  C   UNL     1      43.424 -17.168   7.296  1.00  0.00     0.152 A 
HETATM   13  N   UNL     1      43.470 -17.040   8.624  1.00  0.00    -0.187 NA
HETATM   14  N   UNL     1      43.888 -18.245   9.040  1.00  0.00    -0.289 N 
HETATM   15  H   UNL     1      44.005 -18.395  10.036  1.00  0.00     0.188 HD
HETATM   16  C   UNL     1      44.106 -19.127   8.019  1.00  0.00     0.123 A 
ENDBRANCH   7  11
ENDBRANCH   2   5
BRANCH   1  17
HETATM   17  C   UNL     1      41.749 -16.879   0.367  1.00  0.00     0.144 C 
BRANCH  17  18
HETATM   18  C   UNL     1      41.379 -15.452   0.615  1.00  0.00    -0.021 A 
HETATM   19  C   UNL     1      40.876 -14.886   1.833  1.00  0.00    -0.001 A 
HETATM   20  C   UNL     1      40.565 -15.406   3.106  1.00  0.00     0.014 A 
HETATM   21  C   UNL     1      40.701 -13.518   1.615  1.00  0.00     0.042 A 
HETATM   22  C   UNL     1      40.093 -14.547   4.107  1.00  0.00     0.001 A 
HETATM   23  C   UNL     1      39.929 -13.187   3.857  1.00  0.00     0.002 A 
HETATM   24  C   UNL     1      40.230 -12.646   2.604  1.00  0.00     0.030 A 
HETATM   25  N   UNL     1      41.079 -13.260   0.319  1.00  0.00    -0.365 N 
HETATM   26  H   UNL     1      41.062 -12.347  -0.113  1.00  0.00     0.165 HD
HETATM   27  C   UNL     1      41.493 -14.413  -0.289  1.00  0.00     0.097 A 
ENDBRANCH  17  18
ENDBRANCH   1  17
TORSDOF 4
ENDMDL
MODEL 6
REMARK VINA RESULT:      -8.2      2.734      3.789
REMARK  4 active torsions:
REMARK  status: ('A' for Active; 'I' for Inactive)
REMARK    1  A    between atoms: C_8  and  C_9 
REMARK    2  A    between atoms: C_9  and  C_10 
REMARK       I    between atoms: C_10  and  N_11 
REMARK    3  A    between atoms: N_11  and  C_12 
REMARK    4  A    between atoms: C_14  and  C_15 
ROOT
HETATM    1  C   UNL     1      41.702 -16.628   0.740  1.00  0.00     0.226 C 
HETATM    2  N   UNL     1      40.792 -15.944  -0.052  1.00  0.00    -0.327 N 
HETATM    3  O   UNL     1      42.927 -16.587   0.644  1.00  0.00    -0.273 OA
HETATM    4  H   UNL     1      39.815 -16.049   0.197  1.00  0.00     0.169 HD
ENDROOT
BRANCH   2   5
HETATM    5  C   UNL     1      41.070 -15.094  -1.145  1.00  0.00     0.035 A 
HETATM    6  C   UNL     1      41.670 -13.854  -0.862  1.00  0.00     0.042 A 
HETATM    7  C   UNL     1      41.964 -12.932  -1.882  1.00  0.00    -0.021 A 
HETATM    8  C   UNL     1      41.658 -13.280  -3.203  1.00  0.00     0.012 A 
HETATM    9  C   UNL     1      41.067 -14.510  -3.495  1.00  0.00     0.003 A 
HETATM   10  C   UNL     1      40.773 -15.410  -2.470  1.00  0.00     0.029 A 
BRANCH   7  11
HETATM   11  C   UNL     1      42.556 -11.633  -1.591  1.00  0.00     0.010 A 
HETATM   12  C   UNL     1      42.895 -11.029  -0.354  1.00  0.00     0.152 A 
HETATM   13  N   UNL     1      43.425  -9.811  -0.494  1.00  0.00    -0.187 NA
HETATM   14  N   UNL     1      43.428  -9.624  -1.822  1.00  0.00    -0.289 N 
HETATM   15  H   UNL     1      43.791  -8.747  -2.183  1.00  0.00     0.188 HD
HETATM   16  C   UNL     1      42.919 -10.681  -2.522  1.00  0.00     0.123 A 
ENDBRANCH   7  11
ENDBRANCH   2   5
BRANCH   1  17
HETATM   17  C   UNL     1      41.033 -17.520   1.775  1.00  0.00     0.144 C 
BRANCH  17  18
HETATM   18  C   UNL     1      41.939 -17.838   2.922  1.00  0.00    -0.021 A 
HETATM   19  C   UNL     1      42.919 -18.881   2.989  1.00  0.00    -0.001 A 
HETATM   20  C   UNL     1      43.342 -19.895   2.104  1.00  0.00     0.014 A 
HETATM   21  C   UNL     1      43.548 -18.783   4.231  1.00  0.00     0.042 A 
HETATM   22  C   UNL     1      44.368 -20.767   2.490  1.00  0.00     0.001 A 
HETATM   23  C   UNL     1      44.974 -20.641   3.737  1.00  0.00     0.002 A 
HETATM   24  C   UNL     1      44.575 -19.646   4.633  1.00  0.00     0.030 A 
HETATM   25  N   UNL     1      42.974 -17.725   4.895  1.00  0.00    -0.365 N 
HETATM   26  H   UNL     1      43.239 -17.416   5.820  1.00  0.00     0.165 HD
HETATM   27  C   UNL     1      42.012 -17.146   4.116  1.00  0.00     0.097 A 
ENDBRANCH  17  18
ENDBRANCH   1  17
TORSDOF 4
ENDMDL
MODEL 7
REMARK VINA RESULT:      -8.1      1.824      8.548
REMARK  4 active torsions:
REMARK  status: ('A' for Active; 'I' for Inactive)
REMARK    1  A    between atoms: C_8  and  C_9 
REMARK    2  A    between atoms: C_9  and  C_10 
REMARK       I    between atoms: C_10  and  N_11 
REMARK    3  A    between atoms: N_11  and  C_12 
REMARK    4  A    between atoms: C_14  and  C_15 
ROOT
HETATM    1  C   UNL     1      41.885 -15.879   0.604  1.00  0.00     0.226 C 
HETATM    2  N   UNL     1      42.841 -15.715   1.596  1.00  0.00    -0.327 N 
HETATM    3  O   UNL     1      41.113 -16.827   0.485  1.00  0.00    -0.273 OA
HETATM    4  H   UNL     1      43.360 -14.845   1.576  1.00  0.00     0.169 HD
ENDROOT
BRANCH   2   5
HETATM    5  C   UNL     1      43.151 -16.605   2.647  1.00  0.00     0.035 A 
HETATM    6  C   UNL     1      43.453 -17.933   2.299  1.00  0.00     0.042 A 
HETATM    7  C   UNL     1      43.752 -18.897   3.278  1.00  0.00    -0.021 A 
HETATM    8  C   UNL     1      43.757 -18.504   4.621  1.00  0.00     0.012 A 
HETATM    9  C   UNL     1      43.463 -17.187   4.976  1.00  0.00     0.003 A 
HETATM   10  C   UNL     1      43.159 -16.244   3.993  1.00  0.00     0.029 A 
BRANCH   7  11
HETATM   11  C   UNL     1      44.035 -20.283   2.925  1.00  0.00     0.010 A 
HETATM   12  C   UNL     1      43.750 -21.012   1.743  1.00  0.00     0.152 A 
HETATM   13  N   UNL     1      44.170 -22.278   1.795  1.00  0.00    -0.187 NA
HETATM   14  N   UNL     1      44.727 -22.372   3.012  1.00  0.00    -0.289 N 
HETATM   15  H   UNL     1      45.125 -23.263   3.290  1.00  0.00     0.188 HD
HETATM   16  C   UNL     1      44.672 -21.209   3.726  1.00  0.00     0.123 A 
ENDBRANCH   7  11
ENDBRANCH   2   5
BRANCH   1  17
HETATM   17  C   UNL     1      41.890 -14.748  -0.416  1.00  0.00     0.144 C 
BRANCH  17  18
HETATM   18  C   UNL     1      40.512 -14.388  -0.870  1.00  0.00    -0.021 A 
HETATM   19  C   UNL     1      39.841 -14.846  -2.052  1.00  0.00    -0.001 A 
HETATM   20  C   UNL     1      40.193 -15.701  -3.116  1.00  0.00     0.014 A 
HETATM   21  C   UNL     1      38.566 -14.278  -2.053  1.00  0.00     0.042 A 
HETATM   22  C   UNL     1      39.267 -15.954  -4.136  1.00  0.00     0.001 A 
HETATM   23  C   UNL     1      38.003 -15.371  -4.106  1.00  0.00     0.002 A 
HETATM   24  C   UNL     1      37.628 -14.520  -3.064  1.00  0.00     0.030 A 
HETATM   25  N   UNL     1      38.463 -13.505  -0.921  1.00  0.00    -0.365 N 
HETATM   26  H   UNL     1      37.642 -12.978  -0.658  1.00  0.00     0.165 HD
HETATM   27  C   UNL     1      39.623 -13.569  -0.200  1.00  0.00     0.097 A 
ENDBRANCH  17  18
ENDBRANCH   1  17
TORSDOF 4
ENDMDL
MODEL 8
REMARK VINA RESULT:      -8.1      3.194      8.995
REMARK  4 active torsions:
REMARK  status: ('A' for Active; 'I' for Inactive)
REMARK    1  A    between atoms: C_8  and  C_9 
REMARK    2  A    between atoms: C_9  and  C_10 
REMARK       I    between atoms: C_10  and  N_11 
REMARK    3  A    between atoms: N_11  and  C_12 
REMARK    4  A    between atoms: C_14  and  C_15 
ROOT
HETATM    1  C   UNL     1      41.837 -15.372   4.190  1.00  0.00     0.226 C 
HETATM    2  N   UNL     1      41.910 -16.524   4.959  1.00  0.00    -0.327 N 
HETATM    3  O   UNL     1      42.713 -14.933   3.449  1.00  0.00    -0.273 OA
HETATM    4  H   UNL     1      41.074 -16.771   5.475  1.00  0.00     0.169 HD
ENDROOT
BRANCH   2   5
HETATM    5  C   UNL     1      43.004 -17.408   5.082  1.00  0.00     0.035 A 
HETATM    6  C   UNL     1      43.074 -18.478   4.173  1.00  0.00     0.042 A 
HETATM    7  C   UNL     1      44.113 -19.423   4.232  1.00  0.00    -0.021 A 
HETATM    8  C   UNL     1      45.098 -19.270   5.214  1.00  0.00     0.012 A 
HETATM    9  C   UNL     1      45.041 -18.208   6.117  1.00  0.00     0.003 A 
HETATM   10  C   UNL     1      43.997 -17.284   6.053  1.00  0.00     0.029 A 
BRANCH   7  11
HETATM   11  C   UNL     1      44.173 -20.553   3.312  1.00  0.00     0.010 A 
HETATM   12  C   UNL     1      44.668 -21.868   3.496  1.00  0.00     0.152 A 
HETATM   13  N   UNL     1      44.550 -22.629   2.405  1.00  0.00    -0.187 NA
HETATM   14  N   UNL     1      43.979 -21.807   1.512  1.00  0.00    -0.289 N 
HETATM   15  H   UNL     1      43.786 -22.166   0.583  1.00  0.00     0.188 HD
HETATM   16  C   UNL     1      43.734 -20.556   2.004  1.00  0.00     0.123 A 
ENDBRANCH   7  11
ENDBRANCH   2   5
BRANCH   1  17
HETATM   17  C   UNL     1      40.525 -14.621   4.372  1.00  0.00     0.144 C 
BRANCH  17  18
HETATM   18  C   UNL     1      39.753 -14.509   3.097  1.00  0.00    -0.021 A 
HETATM   19  C   UNL     1      39.048 -13.361   2.608  1.00  0.00    -0.001 A 
HETATM   20  C   UNL     1      38.830 -12.056   3.096  1.00  0.00     0.014 A 
HETATM   21  C   UNL     1      38.503 -13.703   1.369  1.00  0.00     0.042 A 
HETATM   22  C   UNL     1      38.082 -11.149   2.336  1.00  0.00     0.001 A 
HETATM   23  C   UNL     1      37.553 -11.523   1.104  1.00  0.00     0.002 A 
HETATM   24  C   UNL     1      37.752 -12.809   0.596  1.00  0.00     0.030 A 
HETATM   25  N   UNL     1      38.859 -15.006   1.113  1.00  0.00    -0.365 N 
HETATM   26  H   UNL     1      38.608 -15.517   0.279  1.00  0.00     0.165 HD
HETATM   27  C   UNL     1      39.615 -15.498   2.141  1.00  0.00     0.097 A 
ENDBRANCH  17  18
ENDBRANCH   1  17
TORSDOF 4
ENDMDL
MODEL 9
REMARK VINA RESULT:      -8.1      1.928      9.053
REMARK  4 active torsions:
REMARK  status: ('A' for Active; 'I' for Inactive)
REMARK    1  A    between atoms: C_8  and  C_9 
REMARK    2  A    between atoms: C_9  and  C_10 
REMARK       I    between atoms: C_10  and  N_11 
REMARK    3  A    between atoms: N_11  and  C_12 
REMARK    4  A    between atoms: C_14  and  C_15 
ROOT
HETATM    1  C   UNL     1      41.884 -16.112   0.685  1.00  0.00     0.226 C 
HETATM    2  N   UNL     1      42.981 -16.209   1.528  1.00  0.00    -0.327 N 
HETATM    3  O   UNL     1      41.016 -16.964   0.517  1.00  0.00    -0.273 OA
HETATM    4  H   UNL     1      43.573 -15.389   1.588  1.00  0.00     0.169 HD
ENDROOT
BRANCH   2   5
HETATM    5  C   UNL     1      43.349 -17.306   2.337  1.00  0.00     0.035 A 
HETATM    6  C   UNL     1      43.271 -17.136   3.730  1.00  0.00     0.042 A 
HETATM    7  C   UNL     1      43.638 -18.164   4.616  1.00  0.00    -0.021 A 
HETATM    8  C   UNL     1      44.077 -19.380   4.080  1.00  0.00     0.012 A 
HETATM    9  C   UNL     1      44.154 -19.561   2.699  1.00  0.00     0.003 A 
HETATM   10  C   UNL     1      43.795 -18.527   1.833  1.00  0.00     0.029 A 
BRANCH   7  11
HETATM   11  C   UNL     1      43.589 -17.982   6.061  1.00  0.00     0.010 A 
HETATM   12  C   UNL     1      43.463 -16.804   6.840  1.00  0.00     0.152 A 
HETATM   13  N   UNL     1      43.457 -17.044   8.154  1.00  0.00    -0.187 NA
HETATM   14  N   UNL     1      43.581 -18.377   8.228  1.00  0.00    -0.289 N 
HETATM   15  H   UNL     1      43.603 -18.807   9.147  1.00  0.00     0.188 HD
HETATM   16  C   UNL     1      43.664 -18.984   7.007  1.00  0.00     0.123 A 
ENDBRANCH   7  11
ENDBRANCH   2   5
BRANCH   1  17
HETATM   17  C   UNL     1      41.853 -14.807  -0.098  1.00  0.00     0.144 C 
BRANCH  17  18
HETATM   18  C   UNL     1      40.487 -14.486  -0.614  1.00  0.00    -0.021 A 
HETATM   19  C   UNL     1      39.911 -14.901  -1.859  1.00  0.00    -0.001 A 
HETATM   20  C   UNL     1      40.369 -15.669  -2.950  1.00  0.00     0.014 A 
HETATM   21  C   UNL     1      38.610 -14.397  -1.904  1.00  0.00     0.042 A 
HETATM   22  C   UNL     1      39.517 -15.902  -4.037  1.00  0.00     0.001 A 
HETATM   23  C   UNL     1      38.225 -15.385  -4.050  1.00  0.00     0.002 A 
HETATM   24  C   UNL     1      37.746 -14.620  -2.984  1.00  0.00     0.030 A 
HETATM   25  N   UNL     1      38.401 -13.702  -0.737  1.00  0.00    -0.365 N 
HETATM   26  H   UNL     1      37.540 -13.233  -0.493  1.00  0.00     0.165 HD
HETATM   27  C   UNL     1      39.519 -13.755   0.048  1.00  0.00     0.097 A 
ENDBRANCH  17  18
ENDBRANCH   1  17
TORSDOF 4
ENDMDL
MODEL 10
REMARK VINA RESULT:      -8.0      3.482      4.876
REMARK  4 active torsions:
REMARK  status: ('A' for Active; 'I' for Inactive)
REMARK    1  A    between atoms: C_8  and  C_9 
REMARK    2  A    between atoms: C_9  and  C_10 
REMARK       I    between atoms: C_10  and  N_11 
REMARK    3  A    between atoms: N_11  and  C_12 
REMARK    4  A    between atoms: C_14  and  C_15 
ROOT
HETATM    1  C   UNL     1      40.925 -15.995   1.038  1.00  0.00     0.226 C 
HETATM    2  N   UNL     1      39.628 -15.700   1.433  1.00  0.00    -0.327 N 
HETATM    3  O   UNL     1      41.744 -15.205   0.574  1.00  0.00    -0.273 OA
HETATM    4  H   UNL     1      39.102 -16.461   1.845  1.00  0.00     0.169 HD
ENDROOT
BRANCH   2   5
HETATM    5  C   UNL     1      38.968 -14.453   1.355  1.00  0.00     0.035 A 
HETATM    6  C   UNL     1      39.132 -13.568   2.434  1.00  0.00     0.042 A 
HETATM    7  C   UNL     1      38.496 -12.314   2.457  1.00  0.00    -0.021 A 
HETATM    8  C   UNL     1      37.698 -11.953   1.366  1.00  0.00     0.012 A 
HETATM    9  C   UNL     1      37.532 -12.822   0.287  1.00  0.00     0.003 A 
HETATM   10  C   UNL     1      38.163 -14.067   0.284  1.00  0.00     0.029 A 
BRANCH   7  11
HETATM   11  C   UNL     1      38.638 -11.406   3.588  1.00  0.00     0.010 A 
HETATM   12  C   UNL     1      39.020 -11.654   4.930  1.00  0.00     0.152 A 
HETATM   13  N   UNL     1      39.032 -10.552   5.683  1.00  0.00    -0.187 NA
HETATM   14  N   UNL     1      38.656  -9.587   4.830  1.00  0.00    -0.289 N 
HETATM   15  H   UNL     1      38.587  -8.637   5.180  1.00  0.00     0.188 HD
HETATM   16  C   UNL     1      38.408 -10.045   3.567  1.00  0.00     0.123 A 
ENDBRANCH   7  11
ENDBRANCH   2   5
BRANCH   1  17
HETATM   17  C   UNL     1      41.269 -17.470   1.192  1.00  0.00     0.144 C 
BRANCH  17  18
HETATM   18  C   UNL     1      42.101 -17.735   2.406  1.00  0.00    -0.021 A 
HETATM   19  C   UNL     1      42.972 -18.851   2.633  1.00  0.00    -0.001 A 
HETATM   20  C   UNL     1      43.321 -19.996   1.888  1.00  0.00     0.014 A 
HETATM   21  C   UNL     1      43.566 -18.667   3.883  1.00  0.00     0.042 A 
HETATM   22  C   UNL     1      44.243 -20.909   2.415  1.00  0.00     0.001 A 
HETATM   23  C   UNL     1      44.818 -20.696   3.665  1.00  0.00     0.002 A 
HETATM   24  C   UNL     1      44.489 -19.570   4.425  1.00  0.00     0.030 A 
HETATM   25  N   UNL     1      43.077 -17.490   4.397  1.00  0.00    -0.365 N 
HETATM   26  H   UNL     1      43.340 -17.101   5.292  1.00  0.00     0.165 HD
HETATM   27  C   UNL     1      42.202 -16.919   3.516  1.00  0.00     0.097 A 
ENDBRANCH  17  18
ENDBRANCH   1  17
TORSDOF 4
ENDMDL
