MODEL 1
REMARK VINA RESULT:      -8.2      0.000      0.000
REMARK  5 active torsions:
REMARK  status: ('A' for Active; 'I' for Inactive)
REMARK    1  A    between atoms: C_2  and  O_3 
REMARK    2  A    between atoms: O_3  and  C_4 
REMARK    3  A    between atoms: C_5  and  C_6 
REMARK    4  A    between atoms: C_7  and  C_8 
REMARK       I    between atoms: C_8  and  N_9 
REMARK    5  A    between atoms: N_9  and  C_10 
ROOT
HETATM    1  C   UNL     1      42.056 -16.522   1.844  1.00  0.00     0.041 C 
HETATM    2  C   UNL     1      42.225 -15.185   1.773  1.00  0.00     0.099 C 
HETATM    3  C   UNL     1      43.046 -14.426   2.804  1.00  0.00     0.025 C 
HETATM    4  N   UNL     1      43.726 -13.797   3.659  1.00  0.00    -0.096 N 
ENDROOT
BRANCH   2   5
HETATM    5  C   UNL     1      41.615 -14.447   0.611  1.00  0.00     0.265 C 
HETATM    6  N   UNL     1      40.528 -15.070   0.021  1.00  0.00    -0.321 N 
HETATM    7  H   UNL     1      40.108 -15.835   0.531  1.00  0.00     0.169 HD
HETATM    8  O   UNL     1      42.042 -13.334   0.310  1.00  0.00    -0.267 OA
BRANCH   6   9
HETATM    9  C   UNL     1      39.710 -14.543  -1.017  1.00  0.00     0.047 A 
HETATM   10  C   UNL     1      39.987 -14.682  -2.396  1.00  0.00    -0.035 A 
HETATM   11  C   UNL     1      41.093 -15.523  -2.973  1.00  0.00     0.050 C 
HETATM   12  C   UNL     1      39.150 -14.041  -3.332  1.00  0.00     0.009 A 
HETATM   13  C   UNL     1      38.021 -13.338  -2.931  1.00  0.00     0.001 A 
HETATM   14  C   UNL     1      37.699 -13.270  -1.582  1.00  0.00     0.009 A 
HETATM   15  C   UNL     1      38.527 -13.868  -0.616  1.00  0.00    -0.035 A 
HETATM   16  C   UNL     1      38.125 -13.723   0.830  1.00  0.00     0.050 C 
ENDBRANCH   6   9
ENDBRANCH   2   5
BRANCH   1  17
HETATM   17  C   UNL     1      42.663 -17.492   2.791  1.00  0.00     0.002 A 
HETATM   18  C   UNL     1      42.090 -17.635   4.090  1.00  0.00     0.079 A 
HETATM   19  C   UNL     1      42.619 -18.546   5.017  1.00  0.00     0.047 A 
HETATM   20  C   UNL     1      43.669 -19.348   4.618  1.00  0.00    -0.020 A 
HETATM   21  C   UNL     1      44.228 -19.210   3.361  1.00  0.00     0.076 A 
HETATM   22  C   UNL     1      44.408 -20.390   5.368  1.00  0.00     0.073 C 
HETATM   23  C   UNL     1      43.780 -18.272   2.453  1.00  0.00     0.051 A 
HETATM   24  O   UNL     1      45.243 -20.102   3.113  1.00  0.00    -0.345 OA
HETATM   25  C   UNL     1      45.129 -21.068   4.192  1.00  0.00     0.129 C 
HETATM   26  C   UNL     1      44.384 -22.302   3.679  1.00  0.00     0.040 C 
BRANCH  18  27
HETATM   27  O   UNL     1      41.018 -16.822   4.375  1.00  0.00    -0.351 OA
BRANCH  27  28
HETATM   28  C   UNL     1      41.064 -16.100   5.605  1.00  0.00     0.171 C 
HETATM   29  C   UNL     1      40.322 -14.792   5.399  1.00  0.00     0.034 C 
ENDBRANCH  27  28
ENDBRANCH  18  27
ENDBRANCH   1  17
TORSDOF 5
ENDMDL
MODEL 2
REMARK VINA RESULT:      -8.1      0.301      1.666
REMARK  5 active torsions:
REMARK  status: ('A' for Active; 'I' for Inactive)
REMARK    1  A    between atoms: C_2  and  O_3 
REMARK    2  A    between atoms: O_3  and  C_4 
REMARK    3  A    between atoms: C_5  and  C_6 
REMARK    4  A    between atoms: C_7  and  C_8 
REMARK       I    between atoms: C_8  and  N_9 
REMARK    5  A    between atoms: N_9  and  C_10 
ROOT
HETATM    1  C   UNL     1      41.965 -16.433   1.685  1.00  0.00     0.041 C 
HETATM    2  C   UNL     1      42.126 -15.094   1.652  1.00  0.00     0.099 C 
HETATM    3  C   UNL     1      42.964 -14.362   2.688  1.00  0.00     0.025 C 
HETATM    4  N   UNL     1      43.659 -13.755   3.548  1.00  0.00    -0.096 N 
ENDROOT
BRANCH   2   5
HETATM    5  C   UNL     1      41.486 -14.324   0.527  1.00  0.00     0.265 C 
HETATM    6  N   UNL     1      40.438 -14.969  -0.109  1.00  0.00    -0.321 N 
HETATM    7  H   UNL     1      40.054 -15.781   0.353  1.00  0.00     0.169 HD
HETATM    8  O   UNL     1      41.857 -13.175   0.293  1.00  0.00    -0.267 OA
BRANCH   6   9
HETATM    9  C   UNL     1      39.601 -14.427  -1.125  1.00  0.00     0.047 A 
HETATM   10  C   UNL     1      38.508 -13.567  -0.878  1.00  0.00    -0.035 A 
HETATM   11  C   UNL     1      38.156 -12.981   0.463  1.00  0.00     0.050 C 
HETATM   12  C   UNL     1      37.696 -13.162  -1.957  1.00  0.00     0.009 A 
HETATM   13  C   UNL     1      37.992 -13.532  -3.263  1.00  0.00     0.001 A 
HETATM   14  C   UNL     1      39.114 -14.309  -3.519  1.00  0.00     0.009 A 
HETATM   15  C   UNL     1      39.929 -14.759  -2.466  1.00  0.00    -0.035 A 
HETATM   16  C   UNL     1      41.112 -15.624  -2.823  1.00  0.00     0.050 C 
ENDBRANCH   6   9
ENDBRANCH   2   5
BRANCH   1  17
HETATM   17  C   UNL     1      42.598 -17.428   2.588  1.00  0.00     0.002 A 
HETATM   18  C   UNL     1      42.064 -17.603   3.900  1.00  0.00     0.079 A 
HETATM   19  C   UNL     1      42.618 -18.538   4.787  1.00  0.00     0.047 A 
HETATM   20  C   UNL     1      43.653 -19.332   4.336  1.00  0.00    -0.020 A 
HETATM   21  C   UNL     1      44.175 -19.164   3.067  1.00  0.00     0.076 A 
HETATM   22  C   UNL     1      44.411 -20.395   5.037  1.00  0.00     0.073 C 
HETATM   23  C   UNL     1      43.702 -18.202   2.197  1.00  0.00     0.051 A 
HETATM   24  O   UNL     1      45.178 -20.051   2.766  1.00  0.00    -0.345 OA
HETATM   25  C   UNL     1      45.095 -21.044   3.823  1.00  0.00     0.129 C 
HETATM   26  C   UNL     1      44.331 -22.263   3.302  1.00  0.00     0.040 C 
BRANCH  18  27
HETATM   27  O   UNL     1      41.003 -16.795   4.237  1.00  0.00    -0.351 OA
BRANCH  27  28
HETATM   28  C   UNL     1      41.096 -16.091   5.475  1.00  0.00     0.171 C 
HETATM   29  C   UNL     1      40.309 -14.801   5.331  1.00  0.00     0.034 C 
ENDBRANCH  27  28
ENDBRANCH  18  27
ENDBRANCH   1  17
TORSDOF 5
ENDMDL
MODEL 3
REMARK VINA RESULT:      -7.8      2.032      8.147
REMARK  5 active torsions:
REMARK  status: ('A' for Active; 'I' for Inactive)
REMARK    1  A    between atoms: C_2  and  O_3 
REMARK    2  A    between atoms: O_3  and  C_4 
REMARK    3  A    between atoms: C_5  and  C_6 
REMARK    4  A    between atoms: C_7  and  C_8 
REMARK       I    between atoms: C_8  and  N_9 
REMARK    5  A    between atoms: N_9  and  C_10 
ROOT
HETATM    1  C   UNL     1      41.564 -17.034   1.208  1.00  0.00     0.041 C 
HETATM    2  C   UNL     1      42.415 -16.964   2.254  1.00  0.00     0.099 C 
HETATM    3  C   UNL     1      43.153 -15.680   2.601  1.00  0.00     0.025 C 
HETATM    4  N   UNL     1      43.765 -14.617   2.888  1.00  0.00    -0.096 N 
ENDROOT
BRANCH   2   5
HETATM    5  C   UNL     1      42.592 -18.186   3.115  1.00  0.00     0.265 C 
HETATM    6  N   UNL     1      43.700 -18.962   2.818  1.00  0.00    -0.321 N 
HETATM    7  H   UNL     1      44.398 -18.550   2.214  1.00  0.00     0.169 HD
HETATM    8  O   UNL     1      41.823 -18.381   4.054  1.00  0.00    -0.267 OA
BRANCH   6   9
HETATM    9  C   UNL     1      44.154 -20.102   3.539  1.00  0.00     0.047 A 
HETATM   10  C   UNL     1      44.668 -20.058   4.854  1.00  0.00    -0.035 A 
HETATM   11  C   UNL     1      44.676 -18.838   5.737  1.00  0.00     0.050 C 
HETATM   12  C   UNL     1      45.169 -21.240   5.435  1.00  0.00     0.009 A 
HETATM   13  C   UNL     1      45.101 -22.458   4.771  1.00  0.00     0.001 A 
HETATM   14  C   UNL     1      44.521 -22.520   3.512  1.00  0.00     0.009 A 
HETATM   15  C   UNL     1      44.040 -21.357   2.885  1.00  0.00    -0.035 A 
HETATM   16  C   UNL     1      43.451 -21.504   1.504  1.00  0.00     0.050 C 
ENDBRANCH   6   9
ENDBRANCH   2   5
BRANCH   1  17
HETATM   17  C   UNL     1      41.106 -15.950   0.302  1.00  0.00     0.002 A 
HETATM   18  C   UNL     1      40.197 -14.972   0.806  1.00  0.00     0.079 A 
HETATM   19  C   UNL     1      39.744 -13.920  -0.006  1.00  0.00     0.047 A 
HETATM   20  C   UNL     1      40.251 -13.818  -1.285  1.00  0.00    -0.020 A 
HETATM   21  C   UNL     1      41.130 -14.766  -1.777  1.00  0.00     0.076 A 
HETATM   22  C   UNL     1      39.967 -12.821  -2.343  1.00  0.00     0.073 C 
HETATM   23  C   UNL     1      41.536 -15.853  -1.030  1.00  0.00     0.051 A 
HETATM   24  O   UNL     1      41.559 -14.501  -3.054  1.00  0.00    -0.345 OA
HETATM   25  C   UNL     1      41.140 -13.130  -3.286  1.00  0.00     0.129 C 
HETATM   26  C   UNL     1      42.335 -12.200  -3.062  1.00  0.00     0.040 C 
BRANCH  18  27
HETATM   27  O   UNL     1      39.787 -15.136   2.108  1.00  0.00    -0.351 OA
BRANCH  27  28
HETATM   28  C   UNL     1      39.294 -13.979   2.781  1.00  0.00     0.171 C 
HETATM   29  C   UNL     1      40.416 -13.435   3.646  1.00  0.00     0.034 C 
ENDBRANCH  27  28
ENDBRANCH  18  27
ENDBRANCH   1  17
TORSDOF 5
ENDMDL
MODEL 4
REMARK VINA RESULT:      -7.6      2.752      8.750
REMARK  5 active torsions:
REMARK  status: ('A' for Active; 'I' for Inactive)
REMARK    1  A    between atoms: C_2  and  O_3 
REMARK    2  A    between atoms: O_3  and  C_4 
REMARK    3  A    between atoms: C_5  and  C_6 
REMARK    4  A    between atoms: C_7  and  C_8 
REMARK       I    between atoms: C_8  and  N_9 
REMARK    5  A    between atoms: N_9  and  C_10 
ROOT
HETATM    1  C   UNL     1      41.758 -14.489  -0.243  1.00  0.00     0.041 C 
HETATM    2  C   UNL     1      40.713 -14.699   0.584  1.00  0.00     0.099 C 
HETATM    3  C   UNL     1      39.448 -13.859   0.506  1.00  0.00     0.025 C 
HETATM    4  N   UNL     1      38.399 -13.162   0.442  1.00  0.00    -0.096 N 
ENDROOT
BRANCH   2   5
HETATM    5  C   UNL     1      40.802 -15.828   1.576  1.00  0.00     0.265 C 
HETATM    6  N   UNL     1      42.025 -15.961   2.212  1.00  0.00    -0.321 N 
HETATM    7  H   UNL     1      42.670 -15.187   2.127  1.00  0.00     0.169 HD
HETATM    8  O   UNL     1      39.800 -16.496   1.824  1.00  0.00    -0.267 OA
BRANCH   6   9
HETATM    9  C   UNL     1      42.341 -16.870   3.260  1.00  0.00     0.047 A 
HETATM   10  C   UNL     1      41.905 -16.726   4.596  1.00  0.00    -0.035 A 
HETATM   11  C   UNL     1      40.930 -15.685   5.078  1.00  0.00     0.050 C 
HETATM   12  C   UNL     1      42.354 -17.644   5.567  1.00  0.00     0.009 A 
HETATM   13  C   UNL     1      43.155 -18.726   5.225  1.00  0.00     0.001 A 
HETATM   14  C   UNL     1      43.518 -18.917   3.899  1.00  0.00     0.009 A 
HETATM   15  C   UNL     1      43.118 -18.005   2.907  1.00  0.00    -0.035 A 
HETATM   16  C   UNL     1      43.578 -18.267   1.494  1.00  0.00     0.050 C 
ENDBRANCH   6   9
ENDBRANCH   2   5
BRANCH   1  17
HETATM   17  C   UNL     1      41.867 -13.551  -1.390  1.00  0.00     0.002 A 
HETATM   18  C   UNL     1      41.218 -13.885  -2.616  1.00  0.00     0.079 A 
HETATM   19  C   UNL     1      41.280 -13.027  -3.725  1.00  0.00     0.047 A 
HETATM   20  C   UNL     1      41.931 -11.819  -3.579  1.00  0.00    -0.020 A 
HETATM   21  C   UNL     1      42.564 -11.493  -2.393  1.00  0.00     0.076 A 
HETATM   22  C   UNL     1      42.141 -10.728  -4.559  1.00  0.00     0.073 C 
HETATM   23  C   UNL     1      42.585 -12.347  -1.310  1.00  0.00     0.051 A 
HETATM   24  O   UNL     1      43.138 -10.245  -2.405  1.00  0.00    -0.345 OA
HETATM   25  C   UNL     1      42.584  -9.618  -3.593  1.00  0.00     0.129 C 
HETATM   26  C   UNL     1      41.429  -8.703  -3.180  1.00  0.00     0.040 C 
BRANCH  18  27
HETATM   27  O   UNL     1      40.557 -15.091  -2.645  1.00  0.00    -0.351 OA
BRANCH  27  28
HETATM   28  C   UNL     1      39.223 -15.084  -3.153  1.00  0.00     0.171 C 
HETATM   29  C   UNL     1      39.101 -16.229  -4.141  1.00  0.00     0.034 C 
ENDBRANCH  27  28
ENDBRANCH  18  27
ENDBRANCH   1  17
TORSDOF 5
ENDMDL
MODEL 5
REMARK VINA RESULT:      -7.4      3.517      8.208
REMARK  5 active torsions:
REMARK  status: ('A' for Active; 'I' for Inactive)
REMARK    1  A    between atoms: C_2  and  O_3 
REMARK    2  A    between atoms: O_3  and  C_4 
REMARK    3  A    between atoms: C_5  and  C_6 
REMARK    4  A    between atoms: C_7  and  C_8 
REMARK       I    between atoms: C_8  and  N_9 
REMARK    5  A    between atoms: N_9  and  C_10 
ROOT
HETATM    1  C   UNL     1      41.171 -14.024   5.087  1.00  0.00     0.041 C 
HETATM    2  C   UNL     1      41.675 -14.465   3.916  1.00  0.00     0.099 C 
HETATM    3  C   UNL     1      42.042 -13.511   2.790  1.00  0.00     0.025 C 
HETATM    4  N   UNL     1      42.345 -12.719   1.857  1.00  0.00    -0.096 N 
ENDROOT
BRANCH   2   5
HETATM    5  C   UNL     1      41.916 -15.943   3.752  1.00  0.00     0.265 C 
HETATM    6  N   UNL     1      43.246 -16.318   3.661  1.00  0.00    -0.321 N 
HETATM    7  H   UNL     1      43.934 -15.626   3.920  1.00  0.00     0.169 HD
HETATM    8  O   UNL     1      40.962 -16.719   3.790  1.00  0.00    -0.267 OA
BRANCH   6   9
HETATM    9  C   UNL     1      43.749 -17.649   3.608  1.00  0.00     0.047 A 
HETATM   10  C   UNL     1      43.878 -18.403   2.421  1.00  0.00    -0.035 A 
HETATM   11  C   UNL     1      43.647 -17.872   1.032  1.00  0.00     0.050 C 
HETATM   12  C   UNL     1      44.307 -19.743   2.502  1.00  0.00     0.009 A 
HETATM   13  C   UNL     1      44.673 -20.313   3.715  1.00  0.00     0.001 A 
HETATM   14  C   UNL     1      44.627 -19.549   4.873  1.00  0.00     0.009 A 
HETATM   15  C   UNL     1      44.173 -18.219   4.837  1.00  0.00    -0.035 A 
HETATM   16  C   UNL     1      44.123 -17.465   6.143  1.00  0.00     0.050 C 
ENDBRANCH   6   9
ENDBRANCH   2   5
BRANCH   1  17
HETATM   17  C   UNL     1      40.977 -12.626   5.552  1.00  0.00     0.002 A 
HETATM   18  C   UNL     1      39.854 -11.890   5.068  1.00  0.00     0.079 A 
HETATM   19  C   UNL     1      39.619 -10.572   5.487  1.00  0.00     0.047 A 
HETATM   20  C   UNL     1      40.467 -10.026   6.430  1.00  0.00    -0.020 A 
HETATM   21  C   UNL     1      41.557 -10.735   6.899  1.00  0.00     0.076 A 
HETATM   22  C   UNL     1      40.454  -8.683   7.055  1.00  0.00     0.073 C 
HETATM   23  C   UNL     1      41.858 -12.005   6.451  1.00  0.00     0.051 A 
HETATM   24  O   UNL     1      42.280 -10.060   7.852  1.00  0.00    -0.345 OA
HETATM   25  C   UNL     1      41.418  -8.950   8.221  1.00  0.00     0.129 C 
HETATM   26  C   UNL     1      40.686  -9.299   9.520  1.00  0.00     0.040 C 
BRANCH  18  27
HETATM   27  O   UNL     1      39.044 -12.540   4.167  1.00  0.00    -0.351 OA
BRANCH  27  28
HETATM   28  C   UNL     1      38.690 -11.824   2.985  1.00  0.00     0.171 C 
HETATM   29  C   UNL     1      38.558 -12.832   1.858  1.00  0.00     0.034 C 
ENDBRANCH  27  28
ENDBRANCH  18  27
ENDBRANCH   1  17
TORSDOF 5
ENDMDL
MODEL 6
REMARK VINA RESULT:      -7.4      3.002      8.556
REMARK  5 active torsions:
REMARK  status: ('A' for Active; 'I' for Inactive)
REMARK    1  A    between atoms: C_2  and  O_3 
REMARK    2  A    between atoms: O_3  and  C_4 
REMARK    3  A    between atoms: C_5  and  C_6 
REMARK    4  A    between atoms: C_7  and  C_8 
REMARK       I    between atoms: C_8  and  N_9 
REMARK    5  A    between atoms: N_9  and  C_10 
ROOT
HETATM    1  C   UNL     1      41.241 -14.557   3.587  1.00  0.00     0.041 C 
HETATM    2  C   UNL     1      42.166 -15.188   4.341  1.00  0.00     0.099 C 
HETATM    3  C   UNL     1      43.076 -14.429   5.294  1.00  0.00     0.025 C 
HETATM    4  N   UNL     1      43.832 -13.800   6.083  1.00  0.00    -0.096 N 
ENDROOT
BRANCH   2   5
HETATM    5  C   UNL     1      42.256 -16.689   4.255  1.00  0.00     0.265 C 
HETATM    6  N   UNL     1      43.531 -17.194   4.062  1.00  0.00    -0.321 N 
HETATM    7  H   UNL     1      44.302 -16.557   4.206  1.00  0.00     0.169 HD
HETATM    8  O   UNL     1      41.246 -17.366   4.438  1.00  0.00    -0.267 OA
BRANCH   6   9
HETATM    9  C   UNL     1      43.905 -18.567   4.051  1.00  0.00     0.047 A 
HETATM   10  C   UNL     1      44.221 -19.314   5.207  1.00  0.00    -0.035 A 
HETATM   11  C   UNL     1      44.068 -18.821   6.621  1.00  0.00     0.050 C 
HETATM   12  C   UNL     1      44.663 -20.645   5.066  1.00  0.00     0.009 A 
HETATM   13  C   UNL     1      44.726 -21.258   3.820  1.00  0.00     0.001 A 
HETATM   14  C   UNL     1      44.337 -20.553   2.689  1.00  0.00     0.009 A 
HETATM   15  C   UNL     1      43.921 -19.214   2.787  1.00  0.00    -0.035 A 
HETATM   16  C   UNL     1      43.544 -18.508   1.508  1.00  0.00     0.050 C 
ENDBRANCH   6   9
ENDBRANCH   2   5
BRANCH   1  17
HETATM   17  C   UNL     1      40.854 -13.123   3.591  1.00  0.00     0.002 A 
HETATM   18  C   UNL     1      41.435 -12.252   2.621  1.00  0.00     0.079 A 
HETATM   19  C   UNL     1      41.092 -10.892   2.575  1.00  0.00     0.047 A 
HETATM   20  C   UNL     1      40.129 -10.431   3.450  1.00  0.00    -0.020 A 
HETATM   21  C   UNL     1      39.567 -11.272   4.392  1.00  0.00     0.076 A 
HETATM   22  C   UNL     1      39.570  -9.069   3.616  1.00  0.00     0.073 C 
HETATM   23  C   UNL     1      39.937 -12.596   4.513  1.00  0.00     0.051 A 
HETATM   24  O   UNL     1      38.607 -10.664   5.164  1.00  0.00    -0.345 OA
HETATM   25  C   UNL     1      38.340  -9.416   4.469  1.00  0.00     0.129 C 
HETATM   26  C   UNL     1      37.070  -9.577   3.629  1.00  0.00     0.040 C 
BRANCH  18  27
HETATM   27  O   UNL     1      42.349 -12.818   1.765  1.00  0.00    -0.351 OA
BRANCH  27  28
HETATM   28  C   UNL     1      42.055 -12.751   0.370  1.00  0.00     0.171 C 
HETATM   29  C   UNL     1      41.624 -14.136  -0.077  1.00  0.00     0.034 C 
ENDBRANCH  27  28
ENDBRANCH  18  27
ENDBRANCH   1  17
TORSDOF 5
ENDMDL
MODEL 7
REMARK VINA RESULT:      -7.4      2.924      8.406
REMARK  5 active torsions:
REMARK  status: ('A' for Active; 'I' for Inactive)
REMARK    1  A    between atoms: C_2  and  O_3 
REMARK    2  A    between atoms: O_3  and  C_4 
REMARK    3  A    between atoms: C_5  and  C_6 
REMARK    4  A    between atoms: C_7  and  C_8 
REMARK       I    between atoms: C_8  and  N_9 
REMARK    5  A    between atoms: N_9  and  C_10 
ROOT
HETATM    1  C   UNL     1      40.845 -15.037   4.968  1.00  0.00     0.041 C 
HETATM    2  C   UNL     1      41.978 -15.547   4.441  1.00  0.00     0.099 C 
HETATM    3  C   UNL     1      43.099 -14.652   3.936  1.00  0.00     0.025 C 
HETATM    4  N   UNL     1      44.029 -13.910   3.517  1.00  0.00    -0.096 N 
ENDROOT
BRANCH   2   5
HETATM    5  C   UNL     1      42.137 -17.043   4.398  1.00  0.00     0.265 C 
HETATM    6  N   UNL     1      43.419 -17.494   4.129  1.00  0.00    -0.321 N 
HETATM    7  H   UNL     1      44.165 -16.815   4.196  1.00  0.00     0.169 HD
HETATM    8  O   UNL     1      41.179 -17.762   4.675  1.00  0.00    -0.267 OA
BRANCH   6   9
HETATM    9  C   UNL     1      43.861 -18.846   4.136  1.00  0.00     0.047 A 
HETATM   10  C   UNL     1      44.169 -19.576   5.306  1.00  0.00    -0.035 A 
HETATM   11  C   UNL     1      43.938 -19.090   6.712  1.00  0.00     0.050 C 
HETATM   12  C   UNL     1      44.682 -20.883   5.185  1.00  0.00     0.009 A 
HETATM   13  C   UNL     1      44.822 -21.493   3.945  1.00  0.00     0.001 A 
HETATM   14  C   UNL     1      44.442 -20.810   2.798  1.00  0.00     0.009 A 
HETATM   15  C   UNL     1      43.957 -19.492   2.875  1.00  0.00    -0.035 A 
HETATM   16  C   UNL     1      43.594 -18.807   1.582  1.00  0.00     0.050 C 
ENDBRANCH   6   9
ENDBRANCH   2   5
BRANCH   1  17
HETATM   17  C   UNL     1      40.504 -13.621   5.256  1.00  0.00     0.002 A 
HETATM   18  C   UNL     1      39.639 -12.926   4.358  1.00  0.00     0.079 A 
HETATM   19  C   UNL     1      39.276 -11.590   4.592  1.00  0.00     0.047 A 
HETATM   20  C   UNL     1      39.725 -10.985   5.749  1.00  0.00    -0.020 A 
HETATM   21  C   UNL     1      40.565 -11.655   6.620  1.00  0.00     0.076 A 
HETATM   22  C   UNL     1      39.494  -9.612   6.254  1.00  0.00     0.073 C 
HETATM   23  C   UNL     1      41.000 -12.942   6.380  1.00  0.00     0.051 A 
HETATM   24  O   UNL     1      40.894 -10.922   7.733  1.00  0.00    -0.345 OA
HETATM   25  C   UNL     1      39.965  -9.806   7.704  1.00  0.00     0.129 C 
HETATM   26  C   UNL     1      38.808 -10.098   8.663  1.00  0.00     0.040 C 
BRANCH  18  27
HETATM   27  O   UNL     1      39.209 -13.632   3.259  1.00  0.00    -0.351 OA
BRANCH  27  28
HETATM   28  C   UNL     1      39.597 -13.133   1.980  1.00  0.00     0.171 C 
HETATM   29  C   UNL     1      40.409 -14.214   1.291  1.00  0.00     0.034 C 
ENDBRANCH  27  28
ENDBRANCH  18  27
ENDBRANCH   1  17
TORSDOF 5
ENDMDL
MODEL 8
REMARK VINA RESULT:      -7.4      2.360      8.070
REMARK  5 active torsions:
REMARK  status: ('A' for Active; 'I' for Inactive)
REMARK    1  A    between atoms: C_2  and  O_3 
REMARK    2  A    between atoms: O_3  and  C_4 
REMARK    3  A    between atoms: C_5  and  C_6 
REMARK    4  A    between atoms: C_7  and  C_8 
REMARK       I    between atoms: C_8  and  N_9 
REMARK    5  A    between atoms: N_9  and  C_10 
ROOT
HETATM    1  C   UNL     1      41.244 -15.279   2.513  1.00  0.00     0.041 C 
HETATM    2  C   UNL     1      41.898 -16.034   1.605  1.00  0.00     0.099 C 
HETATM    3  C   UNL     1      41.567 -15.969   0.122  1.00  0.00     0.025 C 
HETATM    4  N   UNL     1      41.292 -15.917  -1.107  1.00  0.00    -0.096 N 
ENDROOT
BRANCH   2   5
HETATM    5  C   UNL     1      43.012 -16.926   2.085  1.00  0.00     0.265 C 
HETATM    6  N   UNL     1      42.664 -17.818   3.086  1.00  0.00    -0.321 N 
HETATM    7  H   UNL     1      41.677 -17.949   3.258  1.00  0.00     0.169 HD
HETATM    8  O   UNL     1      44.108 -16.877   1.530  1.00  0.00    -0.267 OA
BRANCH   6   9
HETATM    9  C   UNL     1      43.492 -18.835   3.639  1.00  0.00     0.047 A 
HETATM   10  C   UNL     1      43.813 -20.044   2.982  1.00  0.00    -0.035 A 
HETATM   11  C   UNL     1      43.456 -20.372   1.557  1.00  0.00     0.050 C 
HETATM   12  C   UNL     1      44.571 -21.016   3.665  1.00  0.00     0.009 A 
HETATM   13  C   UNL     1      45.069 -20.780   4.941  1.00  0.00     0.001 A 
HETATM   14  C   UNL     1      44.826 -19.561   5.557  1.00  0.00     0.009 A 
HETATM   15  C   UNL     1      44.046 -18.579   4.921  1.00  0.00    -0.035 A 
HETATM   16  C   UNL     1      43.802 -17.292   5.669  1.00  0.00     0.050 C 
ENDBRANCH   6   9
ENDBRANCH   2   5
BRANCH   1  17
HETATM   17  C   UNL     1      40.221 -14.226   2.288  1.00  0.00     0.002 A 
HETATM   18  C   UNL     1      40.491 -12.899   2.738  1.00  0.00     0.079 A 
HETATM   19  C   UNL     1      39.562 -11.865   2.539  1.00  0.00     0.047 A 
HETATM   20  C   UNL     1      38.407 -12.151   1.838  1.00  0.00    -0.020 A 
HETATM   21  C   UNL     1      38.142 -13.437   1.404  1.00  0.00     0.076 A 
HETATM   22  C   UNL     1      37.274 -11.270   1.474  1.00  0.00     0.073 C 
HETATM   23  C   UNL     1      39.000 -14.490   1.650  1.00  0.00     0.051 A 
HETATM   24  O   UNL     1      36.968 -13.544   0.700  1.00  0.00    -0.345 OA
HETATM   25  C   UNL     1      36.600 -12.166   0.424  1.00  0.00     0.129 C 
HETATM   26  C   UNL     1      37.022 -11.816  -1.005  1.00  0.00     0.040 C 
BRANCH  18  27
HETATM   27  O   UNL     1      41.689 -12.708   3.384  1.00  0.00    -0.351 OA
BRANCH  27  28
HETATM   28  C   UNL     1      41.634 -12.473   4.791  1.00  0.00     0.171 C 
HETATM   29  C   UNL     1      42.629 -13.407   5.453  1.00  0.00     0.034 C 
ENDBRANCH  27  28
ENDBRANCH  18  27
ENDBRANCH   1  17
TORSDOF 5
ENDMDL
MODEL 9
REMARK VINA RESULT:      -7.3      2.070      8.722
REMARK  5 active torsions:
REMARK  status: ('A' for Active; 'I' for Inactive)
REMARK    1  A    between atoms: C_2  and  O_3 
REMARK    2  A    between atoms: O_3  and  C_4 
REMARK    3  A    between atoms: C_5  and  C_6 
REMARK    4  A    between atoms: C_7  and  C_8 
REMARK       I    between atoms: C_8  and  N_9 
REMARK    5  A    between atoms: N_9  and  C_10 
ROOT
HETATM    1  C   UNL     1      40.149 -15.341   1.777  1.00  0.00     0.041 C 
HETATM    2  C   UNL     1      41.291 -15.372   2.497  1.00  0.00     0.099 C 
HETATM    3  C   UNL     1      42.163 -14.138   2.669  1.00  0.00     0.025 C 
HETATM    4  N   UNL     1      42.886 -13.116   2.812  1.00  0.00    -0.096 N 
ENDROOT
BRANCH   2   5
HETATM    5  C   UNL     1      41.672 -16.660   3.177  1.00  0.00     0.265 C 
HETATM    6  N   UNL     1      43.026 -16.955   3.166  1.00  0.00    -0.321 N 
HETATM    7  H   UNL     1      43.654 -16.207   2.906  1.00  0.00     0.169 HD
HETATM    8  O   UNL     1      40.809 -17.317   3.757  1.00  0.00    -0.267 OA
BRANCH   6   9
HETATM    9  C   UNL     1      43.660 -18.047   3.823  1.00  0.00     0.047 A 
HETATM   10  C   UNL     1      44.074 -18.030   5.174  1.00  0.00    -0.035 A 
HETATM   11  C   UNL     1      43.778 -16.926   6.153  1.00  0.00     0.050 C 
HETATM   12  C   UNL     1      44.771 -19.140   5.692  1.00  0.00     0.009 A 
HETATM   13  C   UNL     1      44.995 -20.276   4.924  1.00  0.00     0.001 A 
HETATM   14  C   UNL     1      44.517 -20.329   3.622  1.00  0.00     0.009 A 
HETATM   15  C   UNL     1      43.846 -19.229   3.060  1.00  0.00    -0.035 A 
HETATM   16  C   UNL     1      43.384 -19.354   1.629  1.00  0.00     0.050 C 
ENDBRANCH   6   9
ENDBRANCH   2   5
BRANCH   1  17
HETATM   17  C   UNL     1      39.481 -14.179   1.137  1.00  0.00     0.002 A 
HETATM   18  C   UNL     1      39.570 -14.030  -0.280  1.00  0.00     0.079 A 
HETATM   19  C   UNL     1      38.945 -12.957  -0.934  1.00  0.00     0.047 A 
HETATM   20  C   UNL     1      38.187 -12.084  -0.180  1.00  0.00    -0.020 A 
HETATM   21  C   UNL     1      38.101 -12.225   1.193  1.00  0.00     0.076 A 
HETATM   22  C   UNL     1      37.419 -10.889  -0.597  1.00  0.00     0.073 C 
HETATM   23  C   UNL     1      38.765 -13.224   1.875  1.00  0.00     0.051 A 
HETATM   24  O   UNL     1      37.286 -11.293   1.787  1.00  0.00    -0.345 OA
HETATM   25  C   UNL     1      36.576 -10.689   0.673  1.00  0.00     0.129 C 
HETATM   26  C   UNL     1      35.188 -11.326   0.564  1.00  0.00     0.040 C 
BRANCH  18  27
HETATM   27  O   UNL     1      40.310 -14.978  -0.945  1.00  0.00    -0.351 OA
BRANCH  27  28
HETATM   28  C   UNL     1      41.329 -14.502  -1.824  1.00  0.00     0.171 C 
HETATM   29  C   UNL     1      41.140 -15.189  -3.164  1.00  0.00     0.034 C 
ENDBRANCH  27  28
ENDBRANCH  18  27
ENDBRANCH   1  17
TORSDOF 5
ENDMDL
MODEL 10
REMARK VINA RESULT:      -7.3      2.823      4.382
REMARK  5 active torsions:
REMARK  status: ('A' for Active; 'I' for Inactive)
REMARK    1  A    between atoms: C_2  and  O_3 
REMARK    2  A    between atoms: O_3  and  C_4 
REMARK    3  A    between atoms: C_5  and  C_6 
REMARK    4  A    between atoms: C_7  and  C_8 
REMARK       I    between atoms: C_8  and  N_9 
REMARK    5  A    between atoms: N_9  and  C_10 
ROOT
HETATM    1  C   UNL     1      42.889 -15.425   3.551  1.00  0.00     0.041 C 
HETATM    2  C   UNL     1      41.696 -15.003   3.082  1.00  0.00     0.099 C 
HETATM    3  C   UNL     1      40.687 -15.967   2.477  1.00  0.00     0.025 C 
HETATM    4  N   UNL     1      39.851 -16.765   1.975  1.00  0.00    -0.096 N 
ENDROOT
BRANCH   2   5
HETATM    5  C   UNL     1      41.354 -13.542   3.209  1.00  0.00     0.265 C 
HETATM    6  N   UNL     1      40.120 -13.272   3.777  1.00  0.00    -0.321 N 
HETATM    7  H   UNL     1      39.655 -14.038   4.244  1.00  0.00     0.169 HD
HETATM    8  O   UNL     1      42.188 -12.696   2.892  1.00  0.00    -0.267 OA
BRANCH   6   9
HETATM    9  C   UNL     1      39.601 -11.988   4.105  1.00  0.00     0.047 A 
HETATM   10  C   UNL     1      39.981 -11.245   5.245  1.00  0.00    -0.035 A 
HETATM   11  C   UNL     1      41.086 -11.626   6.194  1.00  0.00     0.050 C 
HETATM   12  C   UNL     1      39.335 -10.022   5.514  1.00  0.00     0.009 A 
HETATM   13  C   UNL     1      38.386  -9.498   4.644  1.00  0.00     0.001 A 
HETATM   14  C   UNL     1      38.071 -10.185   3.480  1.00  0.00     0.009 A 
HETATM   15  C   UNL     1      38.670 -11.424   3.194  1.00  0.00    -0.035 A 
HETATM   16  C   UNL     1      38.251 -12.122   1.924  1.00  0.00     0.050 C 
ENDBRANCH   6   9
ENDBRANCH   2   5
BRANCH   1  17
HETATM   17  C   UNL     1      43.405 -16.812   3.678  1.00  0.00     0.002 A 
HETATM   18  C   UNL     1      43.445 -17.416   4.970  1.00  0.00     0.079 A 
HETATM   19  C   UNL     1      43.912 -18.728   5.141  1.00  0.00     0.047 A 
HETATM   20  C   UNL     1      44.271 -19.445   4.017  1.00  0.00    -0.020 A 
HETATM   21  C   UNL     1      44.237 -18.862   2.764  1.00  0.00     0.076 A 
HETATM   22  C   UNL     1      44.779 -20.831   3.897  1.00  0.00     0.073 C 
HETATM   23  C   UNL     1      43.855 -17.550   2.571  1.00  0.00     0.051 A 
HETATM   24  O   UNL     1      44.598 -19.719   1.753  1.00  0.00    -0.345 OA
HETATM   25  C   UNL     1      44.588 -21.027   2.385  1.00  0.00     0.129 C 
HETATM   26  C   UNL     1      43.273 -21.733   2.046  1.00  0.00     0.040 C 
BRANCH  18  27
HETATM   27  O   UNL     1      43.022 -16.634   6.019  1.00  0.00    -0.351 OA
BRANCH  27  28
HETATM   28  C   UNL     1      41.990 -17.169   6.847  1.00  0.00     0.171 C 
HETATM   29  C   UNL     1      40.659 -16.705   6.283  1.00  0.00     0.034 C 
ENDBRANCH  27  28
ENDBRANCH  18  27
ENDBRANCH   1  17
TORSDOF 5
ENDMDL
