MODEL 1
REMARK VINA RESULT:      -8.9      0.000      0.000
REMARK  2 active torsions:
REMARK  status: ('A' for Active; 'I' for Inactive)
REMARK    1  A    between atoms: C_6  and  N_7 
REMARK    2  A    between atoms: N_7  and  C_8 
ROOT
HETATM    1  C   UNL     1      43.786 -16.353   7.361  1.00  0.00     0.093 C 
HETATM    2  C   UNL     1      43.833 -17.282   6.187  1.00  0.00     0.125 A 
HETATM    3  N   UNL     1      44.190 -18.548   6.420  1.00  0.00    -0.226 NA
HETATM    4  C   UNL     1      44.208 -19.298   5.308  1.00  0.00     0.114 A 
HETATM    5  C   UNL     1      43.903 -18.874   4.014  1.00  0.00     0.053 A 
HETATM    6  C   UNL     1      43.544 -17.517   3.872  1.00  0.00     0.143 A 
HETATM    7  N   UNL     1      43.516 -16.753   4.991  1.00  0.00    -0.215 NA
HETATM    8  S   UNL     1      44.646 -20.961   5.396  1.00  0.00    -0.073 SA
HETATM    9  C   UNL     1      44.425 -21.124   3.749  1.00  0.00    -0.008 A 
HETATM   10  C   UNL     1      44.032 -19.976   3.118  1.00  0.00    -0.028 A 
HETATM   11  C   UNL     1      43.847 -20.216   1.664  1.00  0.00     0.041 C 
HETATM   12  C   UNL     1      43.854 -21.774   1.575  1.00  0.00     0.010 C 
HETATM   13  C   UNL     1      44.573 -22.295   2.855  1.00  0.00     0.047 C 
ENDROOT
BRANCH   6  14
HETATM   14  N   UNL     1      43.267 -16.962   2.613  1.00  0.00    -0.340 N 
HETATM   15  H   UNL     1      44.055 -16.977   1.982  1.00  0.00     0.167 HD
BRANCH  14  16
HETATM   16  C   UNL     1      42.117 -16.343   2.093  1.00  0.00     0.036 A 
HETATM   17  C   UNL     1      42.188 -15.751   0.821  1.00  0.00     0.069 A 
HETATM   18  C   UNL     1      41.087 -15.093   0.270  1.00  0.00     0.104 A 
HETATM   19  C   UNL     1      39.898 -14.991   0.995  1.00  0.00     0.102 A 
HETATM   20  O   UNL     1      41.251 -14.559  -0.983  1.00  0.00    -0.346 OA
HETATM   21  O   UNL     1      38.789 -14.330   0.535  1.00  0.00    -0.346 OA
HETATM   22  C   UNL     1      39.803 -15.581   2.249  1.00  0.00     0.042 A 
HETATM   23  C   UNL     1      39.118 -13.470  -0.562  1.00  0.00     0.202 C 
HETATM   24  C   UNL     1      39.994 -14.199  -1.568  1.00  0.00     0.202 C 
HETATM   25  C   UNL     1      40.909 -16.244   2.795  1.00  0.00     0.032 A 
ENDBRANCH  14  16
ENDBRANCH   6  14
TORSDOF 2
ENDMDL
MODEL 2
REMARK VINA RESULT:      -8.6      1.136      3.510
REMARK  2 active torsions:
REMARK  status: ('A' for Active; 'I' for Inactive)
REMARK    1  A    between atoms: C_6  and  N_7 
REMARK    2  A    between atoms: N_7  and  C_8 
ROOT
HETATM    1  C   UNL     1      44.351 -21.633   1.772  1.00  0.00     0.093 C 
HETATM    2  C   UNL     1      44.165 -20.438   2.655  1.00  0.00     0.125 A 
HETATM    3  N   UNL     1      44.253 -20.630   3.974  1.00  0.00    -0.226 NA
HETATM    4  C   UNL     1      44.066 -19.504   4.679  1.00  0.00     0.114 A 
HETATM    5  C   UNL     1      43.802 -18.234   4.164  1.00  0.00     0.053 A 
HETATM    6  C   UNL     1      43.723 -18.137   2.758  1.00  0.00     0.143 A 
HETATM    7  N   UNL     1      43.917 -19.268   2.037  1.00  0.00    -0.215 NA
HETATM    8  S   UNL     1      44.136 -19.540   6.399  1.00  0.00    -0.073 SA
HETATM    9  C   UNL     1      43.835 -17.899   6.464  1.00  0.00    -0.008 A 
HETATM   10  C   UNL     1      43.679 -17.308   5.240  1.00  0.00    -0.028 A 
HETATM   11  C   UNL     1      43.429 -15.852   5.392  1.00  0.00     0.041 C 
HETATM   12  C   UNL     1      43.804 -15.598   6.886  1.00  0.00     0.010 C 
HETATM   13  C   UNL     1      43.714 -16.973   7.613  1.00  0.00     0.047 C 
ENDROOT
BRANCH   6  14
HETATM   14  N   UNL     1      43.410 -16.924   2.125  1.00  0.00    -0.340 N 
HETATM   15  H   UNL     1      44.219 -16.364   1.902  1.00  0.00     0.167 HD
BRANCH  14  16
HETATM   16  C   UNL     1      42.180 -16.327   1.798  1.00  0.00     0.036 A 
HETATM   17  C   UNL     1      42.060 -15.664   0.565  1.00  0.00     0.069 A 
HETATM   18  C   UNL     1      40.873 -15.025   0.203  1.00  0.00     0.104 A 
HETATM   19  C   UNL     1      39.789 -15.013   1.082  1.00  0.00     0.102 A 
HETATM   20  O   UNL     1      40.851 -14.417  -1.026  1.00  0.00    -0.346 OA
HETATM   21  O   UNL     1      38.605 -14.376   0.811  1.00  0.00    -0.346 OA
HETATM   22  C   UNL     1      39.882 -15.674   2.300  1.00  0.00     0.042 A 
HETATM   23  C   UNL     1      38.756 -13.445  -0.266  1.00  0.00     0.202 C 
HETATM   24  C   UNL     1      39.516 -14.080  -1.420  1.00  0.00     0.202 C 
HETATM   25  C   UNL     1      41.073 -16.318   2.656  1.00  0.00     0.032 A 
ENDBRANCH  14  16
ENDBRANCH   6  14
TORSDOF 2
ENDMDL
MODEL 3
REMARK VINA RESULT:      -8.5      1.429      1.618
REMARK  2 active torsions:
REMARK  status: ('A' for Active; 'I' for Inactive)
REMARK    1  A    between atoms: C_6  and  N_7 
REMARK    2  A    between atoms: N_7  and  C_8 
ROOT
HETATM    1  C   UNL     1      43.620 -15.536   6.880  1.00  0.00     0.093 C 
HETATM    2  C   UNL     1      43.545 -16.584   5.812  1.00  0.00     0.125 A 
HETATM    3  N   UNL     1      44.355 -17.639   5.930  1.00  0.00    -0.226 NA
HETATM    4  C   UNL     1      44.219 -18.516   4.924  1.00  0.00     0.114 A 
HETATM    5  C   UNL     1      43.351 -18.407   3.837  1.00  0.00     0.053 A 
HETATM    6  C   UNL     1      42.541 -17.252   3.801  1.00  0.00     0.143 A 
HETATM    7  N   UNL     1      42.666 -16.363   4.816  1.00  0.00    -0.215 NA
HETATM    8  S   UNL     1      45.179 -19.945   4.889  1.00  0.00    -0.073 SA
HETATM    9  C   UNL     1      44.450 -20.421   3.465  1.00  0.00    -0.008 A 
HETATM   10  C   UNL     1      43.504 -19.549   2.999  1.00  0.00    -0.028 A 
HETATM   11  C   UNL     1      42.900 -20.057   1.740  1.00  0.00     0.041 C 
HETATM   12  C   UNL     1      43.386 -21.541   1.707  1.00  0.00     0.010 C 
HETATM   13  C   UNL     1      44.643 -21.624   2.622  1.00  0.00     0.047 C 
ENDROOT
BRANCH   6  14
HETATM   14  N   UNL     1      41.666 -17.005   2.731  1.00  0.00    -0.340 N 
HETATM   15  H   UNL     1      40.961 -17.717   2.613  1.00  0.00     0.167 HD
BRANCH  14  16
HETATM   16  C   UNL     1      41.630 -15.982   1.768  1.00  0.00     0.036 A 
HETATM   17  C   UNL     1      41.373 -16.326   0.430  1.00  0.00     0.069 A 
HETATM   18  C   UNL     1      41.359 -15.357  -0.574  1.00  0.00     0.104 A 
HETATM   19  C   UNL     1      41.630 -14.023  -0.262  1.00  0.00     0.102 A 
HETATM   20  O   UNL     1      41.086 -15.791  -1.846  1.00  0.00    -0.346 OA
HETATM   21  O   UNL     1      41.669 -13.023  -1.199  1.00  0.00    -0.346 OA
HETATM   22  C   UNL     1      41.873 -13.659   1.057  1.00  0.00     0.042 A 
HETATM   23  C   UNL     1      41.776 -13.559  -2.522  1.00  0.00     0.202 C 
HETATM   24  C   UNL     1      40.786 -14.696  -2.720  1.00  0.00     0.202 C 
HETATM   25  C   UNL     1      41.880 -14.636   2.060  1.00  0.00     0.032 A 
ENDBRANCH  14  16
ENDBRANCH   6  14
TORSDOF 2
ENDMDL
MODEL 4
REMARK VINA RESULT:      -8.3      3.746      7.484
REMARK  2 active torsions:
REMARK  status: ('A' for Active; 'I' for Inactive)
REMARK    1  A    between atoms: C_6  and  N_7 
REMARK    2  A    between atoms: N_7  and  C_8 
ROOT
HETATM    1  C   UNL     1      41.065 -15.551  -1.938  1.00  0.00     0.093 C 
HETATM    2  C   UNL     1      41.139 -15.487  -0.443  1.00  0.00     0.125 A 
HETATM    3  N   UNL     1      40.191 -14.789   0.189  1.00  0.00    -0.226 NA
HETATM    4  C   UNL     1      40.347 -14.786   1.521  1.00  0.00     0.114 A 
HETATM    5  C   UNL     1      41.363 -15.416   2.242  1.00  0.00     0.053 A 
HETATM    6  C   UNL     1      42.319 -16.122   1.481  1.00  0.00     0.143 A 
HETATM    7  N   UNL     1      42.166 -16.137   0.135  1.00  0.00    -0.215 NA
HETATM    8  S   UNL     1      39.229 -13.938   2.519  1.00  0.00    -0.073 SA
HETATM    9  C   UNL     1      40.066 -14.406   3.886  1.00  0.00    -0.008 A 
HETATM   10  C   UNL     1      41.165 -15.180   3.633  1.00  0.00    -0.028 A 
HETATM   11  C   UNL     1      41.839 -15.560   4.902  1.00  0.00     0.041 C 
HETATM   12  C   UNL     1      40.773 -15.180   5.978  1.00  0.00     0.010 C 
HETATM   13  C   UNL     1      39.823 -14.135   5.321  1.00  0.00     0.047 C 
ENDROOT
BRANCH   6  14
HETATM   14  N   UNL     1      43.417 -16.752   2.089  1.00  0.00    -0.340 N 
HETATM   15  H   UNL     1      44.203 -16.138   2.239  1.00  0.00     0.167 HD
BRANCH  14  16
HETATM   16  C   UNL     1      43.637 -18.086   2.474  1.00  0.00     0.036 A 
HETATM   17  C   UNL     1      43.941 -18.357   3.818  1.00  0.00     0.069 A 
HETATM   18  C   UNL     1      44.203 -19.658   4.250  1.00  0.00     0.104 A 
HETATM   19  C   UNL     1      44.194 -20.713   3.336  1.00  0.00     0.102 A 
HETATM   20  O   UNL     1      44.476 -19.822   5.584  1.00  0.00    -0.346 OA
HETATM   21  O   UNL     1      44.476 -22.010   3.679  1.00  0.00    -0.346 OA
HETATM   22  C   UNL     1      43.883 -20.469   2.004  1.00  0.00     0.042 A 
HETATM   23  C   UNL     1      45.129 -22.077   4.951  1.00  0.00     0.202 C 
HETATM   24  C   UNL     1      44.413 -21.201   5.966  1.00  0.00     0.202 C 
HETATM   25  C   UNL     1      43.615 -19.162   1.578  1.00  0.00     0.032 A 
ENDBRANCH  14  16
ENDBRANCH   6  14
TORSDOF 2
ENDMDL
MODEL 5
REMARK VINA RESULT:      -8.1      2.238      3.335
REMARK  2 active torsions:
REMARK  status: ('A' for Active; 'I' for Inactive)
REMARK    1  A    between atoms: C_6  and  N_7 
REMARK    2  A    between atoms: N_7  and  C_8 
ROOT
HETATM    1  C   UNL     1      39.973 -14.218   5.347  1.00  0.00     0.093 C 
HETATM    2  C   UNL     1      40.689 -15.303   4.603  1.00  0.00     0.125 A 
HETATM    3  N   UNL     1      41.525 -16.077   5.300  1.00  0.00    -0.226 NA
HETATM    4  C   UNL     1      42.121 -17.012   4.545  1.00  0.00     0.114 A 
HETATM    5  C   UNL     1      41.942 -17.215   3.176  1.00  0.00     0.053 A 
HETATM    6  C   UNL     1      41.042 -16.341   2.530  1.00  0.00     0.143 A 
HETATM    7  N   UNL     1      40.430 -15.397   3.285  1.00  0.00    -0.215 NA
HETATM    8  S   UNL     1      43.240 -18.110   5.257  1.00  0.00    -0.073 SA
HETATM    9  C   UNL     1      43.476 -18.854   3.781  1.00  0.00    -0.008 A 
HETATM   10  C   UNL     1      42.748 -18.314   2.757  1.00  0.00    -0.028 A 
HETATM   11  C   UNL     1      43.008 -19.042   1.489  1.00  0.00     0.041 C 
HETATM   12  C   UNL     1      43.745 -20.327   1.983  1.00  0.00     0.010 C 
HETATM   13  C   UNL     1      44.330 -19.999   3.389  1.00  0.00     0.047 C 
ENDROOT
BRANCH   6  14
HETATM   14  N   UNL     1      40.820 -16.413   1.146  1.00  0.00    -0.340 N 
HETATM   15  H   UNL     1      40.381 -17.272   0.851  1.00  0.00     0.167 HD
BRANCH  14  16
HETATM   16  C   UNL     1      41.146 -15.535   0.098  1.00  0.00     0.036 A 
HETATM   17  C   UNL     1      41.659 -14.267   0.417  1.00  0.00     0.069 A 
HETATM   18  C   UNL     1      41.968 -13.341  -0.582  1.00  0.00     0.104 A 
HETATM   19  C   UNL     1      41.742 -13.658  -1.922  1.00  0.00     0.102 A 
HETATM   20  O   UNL     1      42.475 -12.136  -0.169  1.00  0.00    -0.346 OA
HETATM   21  O   UNL     1      41.986 -12.789  -2.954  1.00  0.00    -0.346 OA
HETATM   22  C   UNL     1      41.247 -14.912  -2.260  1.00  0.00     0.042 A 
HETATM   23  C   UNL     1      42.127 -11.447  -2.475  1.00  0.00     0.202 C 
HETATM   24  C   UNL     1      43.044 -11.405  -1.263  1.00  0.00     0.202 C 
HETATM   25  C   UNL     1      40.945 -15.837  -1.255  1.00  0.00     0.032 A 
ENDBRANCH  14  16
ENDBRANCH   6  14
TORSDOF 2
ENDMDL
MODEL 6
REMARK VINA RESULT:      -7.9      2.626      5.310
REMARK  2 active torsions:
REMARK  status: ('A' for Active; 'I' for Inactive)
REMARK    1  A    between atoms: C_6  and  N_7 
REMARK    2  A    between atoms: N_7  and  C_8 
ROOT
HETATM    1  C   UNL     1      43.590 -19.663   2.116  1.00  0.00     0.093 C 
HETATM    2  C   UNL     1      42.748 -18.458   2.400  1.00  0.00     0.125 A 
HETATM    3  N   UNL     1      42.647 -18.065   3.673  1.00  0.00    -0.226 NA
HETATM    4  C   UNL     1      41.868 -16.984   3.825  1.00  0.00     0.114 A 
HETATM    5  C   UNL     1      41.199 -16.291   2.815  1.00  0.00     0.053 A 
HETATM    6  C   UNL     1      41.364 -16.789   1.505  1.00  0.00     0.143 A 
HETATM    7  N   UNL     1      42.155 -17.877   1.340  1.00  0.00    -0.215 NA
HETATM    8  S   UNL     1      41.608 -16.322   5.393  1.00  0.00    -0.073 SA
HETATM    9  C   UNL     1      40.636 -15.128   4.747  1.00  0.00    -0.008 A 
HETATM   10  C   UNL     1      40.488 -15.197   3.389  1.00  0.00    -0.028 A 
HETATM   11  C   UNL     1      39.622 -14.094   2.900  1.00  0.00     0.041 C 
HETATM   12  C   UNL     1      39.553 -13.145   4.138  1.00  0.00     0.010 C 
HETATM   13  C   UNL     1      39.912 -14.005   5.386  1.00  0.00     0.047 C 
ENDROOT
BRANCH   6  14
HETATM   14  N   UNL     1      40.699 -16.209   0.413  1.00  0.00    -0.340 N 
HETATM   15  H   UNL     1      39.758 -16.550   0.286  1.00  0.00     0.167 HD
BRANCH  14  16
HETATM   16  C   UNL     1      41.123 -15.288  -0.561  1.00  0.00     0.036 A 
HETATM   17  C   UNL     1      41.672 -14.066  -0.137  1.00  0.00     0.069 A 
HETATM   18  C   UNL     1      42.078 -13.100  -1.060  1.00  0.00     0.104 A 
HETATM   19  C   UNL     1      41.915 -13.327  -2.427  1.00  0.00     0.102 A 
HETATM   20  O   UNL     1      42.613 -11.946  -0.548  1.00  0.00    -0.346 OA
HETATM   21  O   UNL     1      42.256 -12.412  -3.389  1.00  0.00    -0.346 OA
HETATM   22  C   UNL     1      41.387 -14.535  -2.867  1.00  0.00     0.042 A 
HETATM   23  C   UNL     1      42.429 -11.109  -2.823  1.00  0.00     0.202 C 
HETATM   24  C   UNL     1      43.275 -11.181  -1.562  1.00  0.00     0.202 C 
HETATM   25  C   UNL     1      40.987 -15.502  -1.938  1.00  0.00     0.032 A 
ENDBRANCH  14  16
ENDBRANCH   6  14
TORSDOF 2
ENDMDL
MODEL 7
REMARK VINA RESULT:      -7.9      3.577      6.645
REMARK  2 active torsions:
REMARK  status: ('A' for Active; 'I' for Inactive)
REMARK    1  A    between atoms: C_6  and  N_7 
REMARK    2  A    between atoms: N_7  and  C_8 
ROOT
HETATM    1  C   UNL     1      45.469 -13.481   7.363  1.00  0.00     0.093 C 
HETATM    2  C   UNL     1      44.477 -14.148   6.461  1.00  0.00     0.125 A 
HETATM    3  N   UNL     1      43.979 -13.425   5.454  1.00  0.00    -0.226 NA
HETATM    4  C   UNL     1      43.095 -14.106   4.709  1.00  0.00     0.114 A 
HETATM    5  C   UNL     1      42.687 -15.427   4.903  1.00  0.00     0.053 A 
HETATM    6  C   UNL     1      43.267 -16.103   5.997  1.00  0.00     0.143 A 
HETATM    7  N   UNL     1      44.165 -15.425   6.752  1.00  0.00    -0.215 NA
HETATM    8  S   UNL     1      42.336 -13.349   3.362  1.00  0.00    -0.073 SA
HETATM    9  C   UNL     1      41.489 -14.748   3.029  1.00  0.00    -0.008 A 
HETATM   10  C   UNL     1      41.747 -15.779   3.892  1.00  0.00    -0.028 A 
HETATM   11  C   UNL     1      40.963 -16.984   3.514  1.00  0.00     0.041 C 
HETATM   12  C   UNL     1      40.456 -16.622   2.083  1.00  0.00     0.010 C 
HETATM   13  C   UNL     1      40.515 -15.071   1.962  1.00  0.00     0.047 C 
ENDROOT
BRANCH   6  14
HETATM   14  N   UNL     1      42.896 -17.417   6.325  1.00  0.00    -0.340 N 
HETATM   15  H   UNL     1      42.140 -17.469   6.990  1.00  0.00     0.167 HD
BRANCH  14  16
HETATM   16  C   UNL     1      43.421 -18.663   5.939  1.00  0.00     0.036 A 
HETATM   17  C   UNL     1      43.624 -18.912   4.571  1.00  0.00     0.069 A 
HETATM   18  C   UNL     1      44.110 -20.144   4.128  1.00  0.00     0.104 A 
HETATM   19  C   UNL     1      44.377 -21.161   5.045  1.00  0.00     0.102 A 
HETATM   20  O   UNL     1      44.287 -20.286   2.775  1.00  0.00    -0.346 OA
HETATM   21  O   UNL     1      44.822 -22.406   4.682  1.00  0.00    -0.346 OA
HETATM   22  C   UNL     1      44.196 -20.930   6.403  1.00  0.00     0.042 A 
HETATM   23  C   UNL     1      44.615 -22.640   3.284  1.00  0.00     0.202 C 
HETATM   24  C   UNL     1      45.073 -21.443   2.468  1.00  0.00     0.202 C 
HETATM   25  C   UNL     1      43.713 -19.692   6.842  1.00  0.00     0.032 A 
ENDBRANCH  14  16
ENDBRANCH   6  14
TORSDOF 2
ENDMDL
MODEL 8
REMARK VINA RESULT:      -7.8      3.795      5.666
REMARK  2 active torsions:
REMARK  status: ('A' for Active; 'I' for Inactive)
REMARK    1  A    between atoms: C_6  and  N_7 
REMARK    2  A    between atoms: N_7  and  C_8 
ROOT
HETATM    1  C   UNL     1      41.283 -15.894  -0.738  1.00  0.00     0.093 C 
HETATM    2  C   UNL     1      41.628 -16.406   0.627  1.00  0.00     0.125 A 
HETATM    3  N   UNL     1      42.503 -17.412   0.702  1.00  0.00    -0.226 NA
HETATM    4  C   UNL     1      42.741 -17.803   1.963  1.00  0.00     0.114 A 
HETATM    5  C   UNL     1      42.174 -17.269   3.121  1.00  0.00     0.053 A 
HETATM    6  C   UNL     1      41.256 -16.213   2.934  1.00  0.00     0.143 A 
HETATM    7  N   UNL     1      41.014 -15.807   1.664  1.00  0.00    -0.215 NA
HETATM    8  S   UNL     1      43.840 -19.092   2.274  1.00  0.00    -0.073 SA
HETATM    9  C   UNL     1      43.581 -18.940   3.916  1.00  0.00    -0.008 A 
HETATM   10  C   UNL     1      42.695 -17.955   4.256  1.00  0.00    -0.028 A 
HETATM   11  C   UNL     1      42.536 -17.882   5.731  1.00  0.00     0.041 C 
HETATM   12  C   UNL     1      43.730 -18.748   6.243  1.00  0.00     0.010 C 
HETATM   13  C   UNL     1      44.147 -19.680   5.067  1.00  0.00     0.047 C 
ENDROOT
BRANCH   6  14
HETATM   14  N   UNL     1      40.581 -15.632   4.018  1.00  0.00    -0.340 N 
HETATM   15  H   UNL     1      39.699 -16.073   4.229  1.00  0.00     0.167 HD
BRANCH  14  16
HETATM   16  C   UNL     1      40.883 -14.519   4.822  1.00  0.00     0.036 A 
HETATM   17  C   UNL     1      39.837 -13.884   5.513  1.00  0.00     0.069 A 
HETATM   18  C   UNL     1      40.073 -12.755   6.299  1.00  0.00     0.104 A 
HETATM   19  C   UNL     1      41.360 -12.221   6.387  1.00  0.00     0.102 A 
HETATM   20  O   UNL     1      38.990 -12.215   6.944  1.00  0.00    -0.346 OA
HETATM   21  O   UNL     1      41.661 -11.095   7.109  1.00  0.00    -0.346 OA
HETATM   22  C   UNL     1      42.411 -12.841   5.722  1.00  0.00     0.042 A 
HETATM   23  C   UNL     1      40.478 -10.354   7.427  1.00  0.00     0.202 C 
HETATM   24  C   UNL     1      39.392 -11.280   7.952  1.00  0.00     0.202 C 
HETATM   25  C   UNL     1      42.169 -13.977   4.940  1.00  0.00     0.032 A 
ENDBRANCH  14  16
ENDBRANCH   6  14
TORSDOF 2
ENDMDL
MODEL 9
REMARK VINA RESULT:      -7.8      3.741      7.027
REMARK  2 active torsions:
REMARK  status: ('A' for Active; 'I' for Inactive)
REMARK    1  A    between atoms: C_6  and  N_7 
REMARK    2  A    between atoms: N_7  and  C_8 
ROOT
HETATM    1  C   UNL     1      44.502 -14.126   7.059  1.00  0.00     0.093 C 
HETATM    2  C   UNL     1      43.589 -14.299   5.884  1.00  0.00     0.125 A 
HETATM    3  N   UNL     1      42.509 -13.516   5.826  1.00  0.00    -0.226 NA
HETATM    4  C   UNL     1      41.752 -13.752   4.744  1.00  0.00     0.114 A 
HETATM    5  C   UNL     1      41.998 -14.695   3.745  1.00  0.00     0.053 A 
HETATM    6  C   UNL     1      43.163 -15.477   3.902  1.00  0.00     0.143 A 
HETATM    7  N   UNL     1      43.937 -15.243   4.989  1.00  0.00    -0.215 NA
HETATM    8  S   UNL     1      40.310 -12.847   4.485  1.00  0.00    -0.073 SA
HETATM    9  C   UNL     1      40.020 -13.679   3.068  1.00  0.00    -0.008 A 
HETATM   10  C   UNL     1      40.964 -14.623   2.767  1.00  0.00    -0.028 A 
HETATM   11  C   UNL     1      40.635 -15.303   1.488  1.00  0.00     0.041 C 
HETATM   12  C   UNL     1      39.527 -14.379   0.890  1.00  0.00     0.010 C 
HETATM   13  C   UNL     1      38.925 -13.571   2.077  1.00  0.00     0.047 C 
ENDROOT
BRANCH   6  14
HETATM   14  N   UNL     1      43.488 -16.495   2.991  1.00  0.00    -0.340 N 
HETATM   15  H   UNL     1      43.497 -16.189   2.030  1.00  0.00     0.167 HD
BRANCH  14  16
HETATM   16  C   UNL     1      43.747 -17.865   3.170  1.00  0.00     0.036 A 
HETATM   17  C   UNL     1      43.863 -18.362   4.479  1.00  0.00     0.069 A 
HETATM   18  C   UNL     1      44.154 -19.707   4.715  1.00  0.00     0.104 A 
HETATM   19  C   UNL     1      44.362 -20.577   3.643  1.00  0.00     0.102 A 
HETATM   20  O   UNL     1      44.233 -20.099   6.027  1.00  0.00    -0.346 OA
HETATM   21  O   UNL     1      44.686 -21.900   3.798  1.00  0.00    -0.346 OA
HETATM   22  C   UNL     1      44.239 -20.108   2.341  1.00  0.00     0.042 A 
HETATM   23  C   UNL     1      45.142 -22.167   5.128  1.00  0.00     0.202 C 
HETATM   24  C   UNL     1      44.217 -21.526   6.150  1.00  0.00     0.202 C 
HETATM   25  C   UNL     1      43.942 -18.759   2.110  1.00  0.00     0.032 A 
ENDBRANCH  14  16
ENDBRANCH   6  14
TORSDOF 2
ENDMDL
MODEL 10
REMARK VINA RESULT:      -7.7      3.164      4.040
REMARK  2 active torsions:
REMARK  status: ('A' for Active; 'I' for Inactive)
REMARK    1  A    between atoms: C_6  and  N_7 
REMARK    2  A    between atoms: N_7  and  C_8 
ROOT
HETATM    1  C   UNL     1      44.309 -18.844   8.798  1.00  0.00     0.093 C 
HETATM    2  C   UNL     1      44.121 -18.358   7.393  1.00  0.00     0.125 A 
HETATM    3  N   UNL     1      44.241 -19.256   6.412  1.00  0.00    -0.226 NA
HETATM    4  C   UNL     1      44.063 -18.724   5.193  1.00  0.00     0.114 A 
HETATM    5  C   UNL     1      43.783 -17.388   4.902  1.00  0.00     0.053 A 
HETATM    6  C   UNL     1      43.682 -16.518   6.008  1.00  0.00     0.143 A 
HETATM    7  N   UNL     1      43.854 -17.047   7.243  1.00  0.00    -0.215 NA
HETATM    8  S   UNL     1      44.179 -19.718   3.792  1.00  0.00    -0.073 SA
HETATM    9  C   UNL     1      43.852 -18.406   2.813  1.00  0.00    -0.008 A 
HETATM   10  C   UNL     1      43.656 -17.234   3.490  1.00  0.00    -0.028 A 
HETATM   11  C   UNL     1      43.359 -16.127   2.545  1.00  0.00     0.041 C 
HETATM   12  C   UNL     1      43.065 -16.889   1.215  1.00  0.00     0.010 C 
HETATM   13  C   UNL     1      43.731 -18.291   1.341  1.00  0.00     0.047 C 
ENDROOT
BRANCH   6  14
HETATM   14  N   UNL     1      43.457 -15.143   5.838  1.00  0.00    -0.340 N 
HETATM   15  H   UNL     1      44.277 -14.576   5.992  1.00  0.00     0.167 HD
BRANCH  14  16
HETATM   16  C   UNL     1      42.291 -14.413   5.548  1.00  0.00     0.036 A 
HETATM   17  C   UNL     1      42.409 -13.043   5.260  1.00  0.00     0.069 A 
HETATM   18  C   UNL     1      41.282 -12.261   4.999  1.00  0.00     0.104 A 
HETATM   19  C   UNL     1      40.009 -12.832   5.047  1.00  0.00     0.102 A 
HETATM   20  O   UNL     1      41.502 -10.937   4.716  1.00  0.00    -0.346 OA
HETATM   21  O   UNL     1      38.856 -12.121   4.837  1.00  0.00    -0.346 OA
HETATM   22  C   UNL     1      39.871 -14.188   5.316  1.00  0.00     0.042 A 
HETATM   23  C   UNL     1      39.092 -10.713   4.942  1.00  0.00     0.202 C 
HETATM   24  C   UNL     1      40.335 -10.319   4.161  1.00  0.00     0.202 C 
HETATM   25  C   UNL     1      41.005 -14.968   5.573  1.00  0.00     0.032 A 
ENDBRANCH  14  16
ENDBRANCH   6  14
TORSDOF 2
ENDMDL
