MODEL 1
REMARK VINA RESULT:      -9.1      0.000      0.000
REMARK  4 active torsions:
REMARK  status: ('A' for Active; 'I' for Inactive)
REMARK    1  A    between atoms: C_2  and  C_3 
REMARK    2  A    between atoms: C_8  and  N_9 
REMARK       I    between atoms: N_9  and  C_10 
REMARK       I    between atoms: C_10  and  N_11 
REMARK    3  A    between atoms: N_11  and  C_12 
REMARK    4  A    between atoms: C_12  and  C_13 
ROOT
HETATM    1  N   UNL     1      44.289 -13.628   8.284  1.00  0.00    -0.305 N 
HETATM    2  C   UNL     1      44.152 -14.060   6.987  1.00  0.00     0.321 C 
HETATM    3  N   UNL     1      43.378 -15.197   6.927  1.00  0.00    -0.339 N 
HETATM    4  O   UNL     1      44.665 -13.555   5.999  1.00  0.00    -0.247 OA
HETATM    5  H   UNL     1      44.141 -14.326   8.997  1.00  0.00     0.171 HD
HETATM    6  H   UNL     1      42.709 -15.334   7.669  1.00  0.00     0.164 HD
ENDROOT
BRANCH   3   7
HETATM    7  C   UNL     1      43.082 -15.850   5.668  1.00  0.00     0.163 C 
BRANCH   7   8
HETATM    8  C   UNL     1      43.469 -17.312   5.710  1.00  0.00    -0.029 A 
HETATM    9  C   UNL     1      43.726 -18.072   4.533  1.00  0.00    -0.018 A 
HETATM   10  C   UNL     1      44.076 -19.441   4.671  1.00  0.00    -0.025 A 
HETATM   11  C   UNL     1      43.658 -17.548   3.221  1.00  0.00     0.013 A 
HETATM   12  C   UNL     1      44.350 -20.217   3.532  1.00  0.00     0.012 A 
HETATM   13  C   UNL     1      44.149 -20.022   5.945  1.00  0.00     0.012 A 
HETATM   14  C   UNL     1      44.279 -19.667   2.254  1.00  0.00     0.001 A 
HETATM   15  C   UNL     1      43.931 -18.333   2.098  1.00  0.00     0.001 A 
HETATM   16  C   UNL     1      43.881 -19.275   7.088  1.00  0.00     0.002 A 
HETATM   17  C   UNL     1      43.541 -17.933   6.972  1.00  0.00     0.010 A 
ENDBRANCH   7   8
ENDBRANCH   3   7
BRANCH   1  18
HETATM   18  C   UNL     1      44.885 -12.441   8.688  1.00  0.00     0.095 A 
HETATM   19  C   UNL     1      44.233 -11.489   9.445  1.00  0.00     0.107 A 
HETATM   20  O   UNL     1      45.063 -10.438   9.665  1.00  0.00    -0.215 OA
HETATM   21  N   UNL     1      46.273 -10.668   9.051  1.00  0.00    -0.131 NA
HETATM   22  C   UNL     1      46.168 -11.866   8.458  1.00  0.00     0.087 A 
HETATM   23  C   UNL     1      47.318 -12.356   7.661  1.00  0.00     0.075 C 
BRANCH  19  24
HETATM   24  C   UNL     1      42.890 -11.382  10.063  1.00  0.00     0.065 C 
HETATM   25  C   UNL     1      42.966 -10.858  11.486  1.00  0.00     0.012 C 
ENDBRANCH  19  24
ENDBRANCH   1  18
TORSDOF 4
ENDMDL
MODEL 2
REMARK VINA RESULT:      -8.7      5.994      8.018
REMARK  4 active torsions:
REMARK  status: ('A' for Active; 'I' for Inactive)
REMARK    1  A    between atoms: C_2  and  C_3 
REMARK    2  A    between atoms: C_8  and  N_9 
REMARK       I    between atoms: N_9  and  C_10 
REMARK       I    between atoms: C_10  and  N_11 
REMARK    3  A    between atoms: N_11  and  C_12 
REMARK    4  A    between atoms: C_12  and  C_13 
ROOT
HETATM    1  N   UNL     1      41.918 -15.527   0.349  1.00  0.00    -0.305 N 
HETATM    2  C   UNL     1      42.041 -16.870   0.614  1.00  0.00     0.321 C 
HETATM    3  N   UNL     1      43.346 -17.196   0.909  1.00  0.00    -0.339 N 
HETATM    4  O   UNL     1      41.146 -17.700   0.567  1.00  0.00    -0.247 OA
HETATM    5  H   UNL     1      42.764 -15.058   0.060  1.00  0.00     0.171 HD
HETATM    6  H   UNL     1      43.925 -16.463   1.289  1.00  0.00     0.164 HD
ENDROOT
BRANCH   3   7
HETATM    7  C   UNL     1      43.737 -18.554   1.229  1.00  0.00     0.163 C 
BRANCH   7   8
HETATM    8  C   UNL     1      43.930 -18.726   2.720  1.00  0.00    -0.029 A 
HETATM    9  C   UNL     1      44.205 -19.989   3.318  1.00  0.00    -0.018 A 
HETATM   10  C   UNL     1      44.364 -20.055   4.726  1.00  0.00    -0.025 A 
HETATM   11  C   UNL     1      44.334 -21.197   2.592  1.00  0.00     0.013 A 
HETATM   12  C   UNL     1      44.649 -21.283   5.348  1.00  0.00     0.012 A 
HETATM   13  C   UNL     1      44.237 -18.894   5.502  1.00  0.00     0.012 A 
HETATM   14  C   UNL     1      44.775 -22.453   4.603  1.00  0.00     0.001 A 
HETATM   15  C   UNL     1      44.616 -22.410   3.225  1.00  0.00     0.001 A 
HETATM   16  C   UNL     1      43.953 -17.666   4.911  1.00  0.00     0.002 A 
HETATM   17  C   UNL     1      43.799 -17.583   3.532  1.00  0.00     0.010 A 
ENDBRANCH   7   8
ENDBRANCH   3   7
BRANCH   1  18
HETATM   18  C   UNL     1      40.729 -14.841   0.154  1.00  0.00     0.095 A 
HETATM   19  C   UNL     1      40.319 -14.374  -1.079  1.00  0.00     0.107 A 
HETATM   20  O   UNL     1      39.131 -13.731  -0.949  1.00  0.00    -0.215 OA
HETATM   21  N   UNL     1      38.736 -13.750   0.369  1.00  0.00    -0.131 NA
HETATM   22  C   UNL     1      39.695 -14.410   1.035  1.00  0.00     0.087 A 
HETATM   23  C   UNL     1      39.564 -14.538   2.506  1.00  0.00     0.075 C 
BRANCH  19  24
HETATM   24  C   UNL     1      40.863 -14.440  -2.457  1.00  0.00     0.065 C 
HETATM   25  C   UNL     1      40.596 -15.789  -3.101  1.00  0.00     0.012 C 
ENDBRANCH  19  24
ENDBRANCH   1  18
TORSDOF 4
ENDMDL
MODEL 3
REMARK VINA RESULT:      -8.5      5.659      8.931
REMARK  4 active torsions:
REMARK  status: ('A' for Active; 'I' for Inactive)
REMARK    1  A    between atoms: C_2  and  C_3 
REMARK    2  A    between atoms: C_8  and  N_9 
REMARK       I    between atoms: N_9  and  C_10 
REMARK       I    between atoms: C_10  and  N_11 
REMARK    3  A    between atoms: N_11  and  C_12 
REMARK    4  A    between atoms: C_12  and  C_13 
ROOT
HETATM    1  N   UNL     1      41.678 -15.619  -1.116  1.00  0.00    -0.305 N 
HETATM    2  C   UNL     1      41.284 -15.750   0.194  1.00  0.00     0.321 C 
HETATM    3  N   UNL     1      41.998 -16.743   0.825  1.00  0.00    -0.339 N 
HETATM    4  O   UNL     1      40.397 -15.118   0.748  1.00  0.00    -0.247 OA
HETATM    5  H   UNL     1      42.125 -16.427  -1.523  1.00  0.00     0.171 HD
HETATM    6  H   UNL     1      42.916 -16.947   0.461  1.00  0.00     0.164 HD
ENDROOT
BRANCH   3   7
HETATM    7  C   UNL     1      41.771 -17.076   2.217  1.00  0.00     0.163 C 
BRANCH   7   8
HETATM    8  C   UNL     1      42.719 -18.163   2.677  1.00  0.00    -0.029 A 
HETATM    9  C   UNL     1      43.421 -18.096   3.914  1.00  0.00    -0.018 A 
HETATM   10  C   UNL     1      44.295 -19.160   4.259  1.00  0.00    -0.025 A 
HETATM   11  C   UNL     1      43.303 -17.029   4.835  1.00  0.00     0.013 A 
HETATM   12  C   UNL     1      44.993 -19.133   5.478  1.00  0.00     0.012 A 
HETATM   13  C   UNL     1      44.463 -20.242   3.382  1.00  0.00     0.012 A 
HETATM   14  C   UNL     1      44.849 -18.069   6.365  1.00  0.00     0.001 A 
HETATM   15  C   UNL     1      44.006 -17.016   6.042  1.00  0.00     0.001 A 
HETATM   16  C   UNL     1      43.784 -20.291   2.168  1.00  0.00     0.002 A 
HETATM   17  C   UNL     1      42.921 -19.260   1.817  1.00  0.00     0.010 A 
ENDBRANCH   7   8
ENDBRANCH   3   7
BRANCH   1  18
HETATM   18  C   UNL     1      41.266 -14.627  -1.995  1.00  0.00     0.095 A 
HETATM   19  C   UNL     1      40.436 -14.869  -3.071  1.00  0.00     0.107 A 
HETATM   20  O   UNL     1      40.227 -13.714  -3.752  1.00  0.00    -0.215 OA
HETATM   21  N   UNL     1      40.921 -12.690  -3.149  1.00  0.00    -0.131 NA
HETATM   22  C   UNL     1      41.551 -13.235  -2.097  1.00  0.00     0.087 A 
HETATM   23  C   UNL     1      42.433 -12.366  -1.282  1.00  0.00     0.075 C 
BRANCH  19  24
HETATM   24  C   UNL     1      39.736 -16.061  -3.607  1.00  0.00     0.065 C 
HETATM   25  C   UNL     1      38.349 -15.716  -4.119  1.00  0.00     0.012 C 
ENDBRANCH  19  24
ENDBRANCH   1  18
TORSDOF 4
ENDMDL
MODEL 4
REMARK VINA RESULT:      -8.5      4.698      6.128
REMARK  4 active torsions:
REMARK  status: ('A' for Active; 'I' for Inactive)
REMARK    1  A    between atoms: C_2  and  C_3 
REMARK    2  A    between atoms: C_8  and  N_9 
REMARK       I    between atoms: N_9  and  C_10 
REMARK       I    between atoms: C_10  and  N_11 
REMARK    3  A    between atoms: N_11  and  C_12 
REMARK    4  A    between atoms: C_12  and  C_13 
ROOT
HETATM    1  N   UNL     1      40.133 -15.219   3.253  1.00  0.00    -0.305 N 
HETATM    2  C   UNL     1      41.377 -15.551   2.774  1.00  0.00     0.321 C 
HETATM    3  N   UNL     1      41.474 -16.907   2.554  1.00  0.00    -0.339 N 
HETATM    4  O   UNL     1      42.310 -14.783   2.592  1.00  0.00    -0.247 OA
HETATM    5  H   UNL     1      39.620 -15.966   3.697  1.00  0.00     0.171 HD
HETATM    6  H   UNL     1      40.616 -17.401   2.362  1.00  0.00     0.164 HD
ENDROOT
BRANCH   3   7
HETATM    7  C   UNL     1      42.689 -17.510   2.046  1.00  0.00     0.163 C 
BRANCH   7   8
HETATM    8  C   UNL     1      43.416 -18.268   3.135  1.00  0.00    -0.029 A 
HETATM    9  C   UNL     1      43.773 -19.641   3.009  1.00  0.00    -0.018 A 
HETATM   10  C   UNL     1      44.448 -20.270   4.087  1.00  0.00    -0.025 A 
HETATM   11  C   UNL     1      43.499 -20.428   1.866  1.00  0.00     0.013 A 
HETATM   12  C   UNL     1      44.828 -21.619   3.991  1.00  0.00     0.012 A 
HETATM   13  C   UNL     1      44.739 -19.545   5.252  1.00  0.00     0.012 A 
HETATM   14  C   UNL     1      44.547 -22.365   2.848  1.00  0.00     0.001 A 
HETATM   15  C   UNL     1      43.881 -21.770   1.787  1.00  0.00     0.001 A 
HETATM   16  C   UNL     1      44.373 -18.208   5.373  1.00  0.00     0.002 A 
HETATM   17  C   UNL     1      43.715 -17.575   4.325  1.00  0.00     0.010 A 
ENDBRANCH   7   8
ENDBRANCH   3   7
BRANCH   1  18
HETATM   18  C   UNL     1      39.652 -13.932   3.447  1.00  0.00     0.095 A 
HETATM   19  C   UNL     1      39.105 -13.169   2.436  1.00  0.00     0.107 A 
HETATM   20  O   UNL     1      38.744 -11.956   2.926  1.00  0.00    -0.215 OA
HETATM   21  N   UNL     1      39.055 -11.887   4.265  1.00  0.00    -0.131 NA
HETATM   22  C   UNL     1      39.606 -13.069   4.580  1.00  0.00     0.087 A 
HETATM   23  C   UNL     1      40.097 -13.265   5.965  1.00  0.00     0.075 C 
BRANCH  19  24
HETATM   24  C   UNL     1      38.816 -13.388   0.998  1.00  0.00     0.065 C 
HETATM   25  C   UNL     1      37.521 -14.154   0.795  1.00  0.00     0.012 C 
ENDBRANCH  19  24
ENDBRANCH   1  18
TORSDOF 4
ENDMDL
MODEL 5
REMARK VINA RESULT:      -8.4      5.565      8.177
REMARK  4 active torsions:
REMARK  status: ('A' for Active; 'I' for Inactive)
REMARK    1  A    between atoms: C_2  and  C_3 
REMARK    2  A    between atoms: C_8  and  N_9 
REMARK       I    between atoms: N_9  and  C_10 
REMARK       I    between atoms: C_10  and  N_11 
REMARK    3  A    between atoms: N_11  and  C_12 
REMARK    4  A    between atoms: C_12  and  C_13 
ROOT
HETATM    1  N   UNL     1      42.010 -15.160  -0.189  1.00  0.00    -0.305 N 
HETATM    2  C   UNL     1      41.290 -15.650   0.874  1.00  0.00     0.321 C 
HETATM    3  N   UNL     1      42.076 -16.451   1.673  1.00  0.00    -0.339 N 
HETATM    4  O   UNL     1      40.103 -15.457   1.093  1.00  0.00    -0.247 OA
HETATM    5  H   UNL     1      42.832 -15.687  -0.442  1.00  0.00     0.171 HD
HETATM    6  H   UNL     1      43.068 -16.271   1.664  1.00  0.00     0.164 HD
ENDROOT
BRANCH   3   7
HETATM    7  C   UNL     1      41.549 -17.087   2.863  1.00  0.00     0.163 C 
BRANCH   7   8
HETATM    8  C   UNL     1      42.658 -17.717   3.677  1.00  0.00    -0.029 A 
HETATM    9  C   UNL     1      43.292 -18.935   3.299  1.00  0.00    -0.018 A 
HETATM   10  C   UNL     1      44.318 -19.455   4.130  1.00  0.00    -0.025 A 
HETATM   11  C   UNL     1      42.964 -19.670   2.135  1.00  0.00     0.013 A 
HETATM   12  C   UNL     1      44.974 -20.647   3.779  1.00  0.00     0.012 A 
HETATM   13  C   UNL     1      44.681 -18.779   5.303  1.00  0.00     0.012 A 
HETATM   14  C   UNL     1      44.630 -21.343   2.623  1.00  0.00     0.001 A 
HETATM   15  C   UNL     1      43.624 -20.855   1.801  1.00  0.00     0.001 A 
HETATM   16  C   UNL     1      44.046 -17.597   5.674  1.00  0.00     0.002 A 
HETATM   17  C   UNL     1      43.042 -17.072   4.869  1.00  0.00     0.010 A 
ENDBRANCH   7   8
ENDBRANCH   3   7
BRANCH   1  18
HETATM   18  C   UNL     1      41.569 -14.216  -1.106  1.00  0.00     0.095 A 
HETATM   19  C   UNL     1      40.981 -14.550  -2.309  1.00  0.00     0.107 A 
HETATM   20  O   UNL     1      40.675 -13.419  -2.993  1.00  0.00    -0.215 OA
HETATM   21  N   UNL     1      41.062 -12.318  -2.265  1.00  0.00    -0.131 NA
HETATM   22  C   UNL     1      41.605 -12.792  -1.134  1.00  0.00     0.087 A 
HETATM   23  C   UNL     1      42.170 -11.820  -0.167  1.00  0.00     0.075 C 
BRANCH  19  24
HETATM   24  C   UNL     1      40.607 -15.820  -2.975  1.00  0.00     0.065 C 
HETATM   25  C   UNL     1      39.389 -15.650  -3.866  1.00  0.00     0.012 C 
ENDBRANCH  19  24
ENDBRANCH   1  18
TORSDOF 4
ENDMDL
MODEL 6
REMARK VINA RESULT:      -8.4      4.993      6.177
REMARK  4 active torsions:
REMARK  status: ('A' for Active; 'I' for Inactive)
REMARK    1  A    between atoms: C_2  and  C_3 
REMARK    2  A    between atoms: C_8  and  N_9 
REMARK       I    between atoms: N_9  and  C_10 
REMARK       I    between atoms: C_10  and  N_11 
REMARK    3  A    between atoms: N_11  and  C_12 
REMARK    4  A    between atoms: C_12  and  C_13 
ROOT
HETATM    1  N   UNL     1      39.951 -15.225   2.837  1.00  0.00    -0.305 N 
HETATM    2  C   UNL     1      41.131 -15.624   2.256  1.00  0.00     0.321 C 
HETATM    3  N   UNL     1      41.354 -16.966   2.467  1.00  0.00    -0.339 N 
HETATM    4  O   UNL     1      41.920 -14.906   1.659  1.00  0.00    -0.247 OA
HETATM    5  H   UNL     1      39.613 -15.808   3.588  1.00  0.00     0.171 HD
HETATM    6  H   UNL     1      40.543 -17.546   2.614  1.00  0.00     0.164 HD
ENDROOT
BRANCH   3   7
HETATM    7  C   UNL     1      42.534 -17.630   1.950  1.00  0.00     0.163 C 
BRANCH   7   8
HETATM    8  C   UNL     1      43.302 -18.313   3.060  1.00  0.00    -0.029 A 
HETATM    9  C   UNL     1      43.717 -19.673   2.983  1.00  0.00    -0.018 A 
HETATM   10  C   UNL     1      44.428 -20.231   4.077  1.00  0.00    -0.025 A 
HETATM   11  C   UNL     1      43.468 -20.515   1.874  1.00  0.00     0.013 A 
HETATM   12  C   UNL     1      44.864 -21.566   4.029  1.00  0.00     0.012 A 
HETATM   13  C   UNL     1      44.697 -19.450   5.211  1.00  0.00     0.012 A 
HETATM   14  C   UNL     1      44.606 -22.366   2.919  1.00  0.00     0.001 A 
HETATM   15  C   UNL     1      43.906 -21.842   1.842  1.00  0.00     0.001 A 
HETATM   16  C   UNL     1      44.274 -18.126   5.284  1.00  0.00     0.002 A 
HETATM   17  C   UNL     1      43.581 -17.563   4.219  1.00  0.00     0.010 A 
ENDBRANCH   7   8
ENDBRANCH   3   7
BRANCH   1  18
HETATM   18  C   UNL     1      39.356 -13.980   2.700  1.00  0.00     0.095 A 
HETATM   19  C   UNL     1      39.511 -12.963   3.620  1.00  0.00     0.107 A 
HETATM   20  O   UNL     1      38.798 -11.879   3.224  1.00  0.00    -0.215 OA
HETATM   21  N   UNL     1      38.148 -12.158   2.044  1.00  0.00    -0.131 NA
HETATM   22  C   UNL     1      38.475 -13.421   1.729  1.00  0.00     0.087 A 
HETATM   23  C   UNL     1      37.867 -14.020   0.517  1.00  0.00     0.075 C 
BRANCH  19  24
HETATM   24  C   UNL     1      40.276 -12.799   4.880  1.00  0.00     0.065 C 
HETATM   25  C   UNL     1      39.372 -12.865   6.098  1.00  0.00     0.012 C 
ENDBRANCH  19  24
ENDBRANCH   1  18
TORSDOF 4
ENDMDL
MODEL 7
REMARK VINA RESULT:      -8.3      5.849      7.290
REMARK  4 active torsions:
REMARK  status: ('A' for Active; 'I' for Inactive)
REMARK    1  A    between atoms: C_2  and  C_3 
REMARK    2  A    between atoms: C_8  and  N_9 
REMARK       I    between atoms: N_9  and  C_10 
REMARK       I    between atoms: C_10  and  N_11 
REMARK    3  A    between atoms: N_11  and  C_12 
REMARK    4  A    between atoms: C_12  and  C_13 
ROOT
HETATM    1  N   UNL     1      41.977 -14.264   0.776  1.00  0.00    -0.305 N 
HETATM    2  C   UNL     1      41.893 -15.617   0.546  1.00  0.00     0.321 C 
HETATM    3  N   UNL     1      42.703 -16.315   1.413  1.00  0.00    -0.339 N 
HETATM    4  O   UNL     1      41.231 -16.161  -0.326  1.00  0.00    -0.247 OA
HETATM    5  H   UNL     1      42.813 -13.951   1.245  1.00  0.00     0.171 HD
HETATM    6  H   UNL     1      42.907 -15.878   2.299  1.00  0.00     0.164 HD
ENDROOT
BRANCH   3   7
HETATM    7  C   UNL     1      42.790 -17.760   1.376  1.00  0.00     0.163 C 
BRANCH   7   8
HETATM    8  C   UNL     1      43.410 -18.300   2.646  1.00  0.00    -0.029 A 
HETATM    9  C   UNL     1      43.791 -19.664   2.795  1.00  0.00    -0.018 A 
HETATM   10  C   UNL     1      44.359 -20.081   4.026  1.00  0.00    -0.025 A 
HETATM   11  C   UNL     1      43.643 -20.643   1.784  1.00  0.00     0.013 A 
HETATM   12  C   UNL     1      44.760 -21.417   4.203  1.00  0.00     0.012 A 
HETATM   13  C   UNL     1      44.523 -19.161   5.071  1.00  0.00     0.012 A 
HETATM   14  C   UNL     1      44.604 -22.354   3.184  1.00  0.00     0.001 A 
HETATM   15  C   UNL     1      44.044 -21.967   1.975  1.00  0.00     0.001 A 
HETATM   16  C   UNL     1      44.133 -17.833   4.923  1.00  0.00     0.002 A 
HETATM   17  C   UNL     1      43.579 -17.407   3.722  1.00  0.00     0.010 A 
ENDBRANCH   7   8
ENDBRANCH   3   7
BRANCH   1  18
HETATM   18  C   UNL     1      41.193 -13.287   0.181  1.00  0.00     0.095 A 
HETATM   19  C   UNL     1      39.864 -13.088   0.496  1.00  0.00     0.107 A 
HETATM   20  O   UNL     1      39.363 -12.079  -0.261  1.00  0.00    -0.215 OA
HETATM   21  N   UNL     1      40.344 -11.598  -1.097  1.00  0.00    -0.131 NA
HETATM   22  C   UNL     1      41.442 -12.324  -0.840  1.00  0.00     0.087 A 
HETATM   23  C   UNL     1      42.660 -12.062  -1.645  1.00  0.00     0.075 C 
BRANCH  19  24
HETATM   24  C   UNL     1      38.914 -13.697   1.458  1.00  0.00     0.065 C 
HETATM   25  C   UNL     1      37.591 -14.043   0.797  1.00  0.00     0.012 C 
ENDBRANCH  19  24
ENDBRANCH   1  18
TORSDOF 4
ENDMDL
MODEL 8
REMARK VINA RESULT:      -8.2      5.534      8.508
REMARK  4 active torsions:
REMARK  status: ('A' for Active; 'I' for Inactive)
REMARK    1  A    between atoms: C_2  and  C_3 
REMARK    2  A    between atoms: C_8  and  N_9 
REMARK       I    between atoms: N_9  and  C_10 
REMARK       I    between atoms: C_10  and  N_11 
REMARK    3  A    between atoms: N_11  and  C_12 
REMARK    4  A    between atoms: C_12  and  C_13 
ROOT
HETATM    1  N   UNL     1      41.477 -15.757  -1.027  1.00  0.00    -0.305 N 
HETATM    2  C   UNL     1      41.136 -15.907   0.296  1.00  0.00     0.321 C 
HETATM    3  N   UNL     1      41.896 -16.889   0.891  1.00  0.00    -0.339 N 
HETATM    4  O   UNL     1      40.258 -15.298   0.890  1.00  0.00    -0.247 OA
HETATM    5  H   UNL     1      41.925 -16.552  -1.457  1.00  0.00     0.171 HD
HETATM    6  H   UNL     1      42.803 -17.070   0.491  1.00  0.00     0.164 HD
ENDROOT
BRANCH   3   7
HETATM    7  C   UNL     1      41.730 -17.237   2.288  1.00  0.00     0.163 C 
BRANCH   7   8
HETATM    8  C   UNL     1      42.724 -18.298   2.705  1.00  0.00    -0.029 A 
HETATM    9  C   UNL     1      43.438 -18.241   3.936  1.00  0.00    -0.018 A 
HETATM   10  C   UNL     1      44.356 -19.280   4.239  1.00  0.00    -0.025 A 
HETATM   11  C   UNL     1      43.289 -17.207   4.890  1.00  0.00     0.013 A 
HETATM   12  C   UNL     1      45.067 -19.262   5.451  1.00  0.00     0.012 A 
HETATM   13  C   UNL     1      44.556 -20.327   3.328  1.00  0.00     0.012 A 
HETATM   14  C   UNL     1      44.892 -18.232   6.371  1.00  0.00     0.001 A 
HETATM   15  C   UNL     1      44.005 -17.203   6.090  1.00  0.00     0.001 A 
HETATM   16  C   UNL     1      43.866 -20.368   2.120  1.00  0.00     0.002 A 
HETATM   17  C   UNL     1      42.960 -19.361   1.810  1.00  0.00     0.010 A 
ENDBRANCH   7   8
ENDBRANCH   3   7
BRANCH   1  18
HETATM   18  C   UNL     1      41.010 -14.768  -1.881  1.00  0.00     0.095 A 
HETATM   19  C   UNL     1      41.294 -13.428  -1.711  1.00  0.00     0.107 A 
HETATM   20  O   UNL     1      40.686 -12.708  -2.687  1.00  0.00    -0.215 OA
HETATM   21  N   UNL     1      39.982 -13.552  -3.514  1.00  0.00    -0.131 NA
HETATM   22  C   UNL     1      40.168 -14.789  -3.030  1.00  0.00     0.087 A 
HETATM   23  C   UNL     1      39.470 -15.914  -3.697  1.00  0.00     0.075 C 
BRANCH  19  24
HETATM   24  C   UNL     1      42.103 -12.643  -0.748  1.00  0.00     0.065 C 
HETATM   25  C   UNL     1      41.248 -11.665   0.038  1.00  0.00     0.012 C 
ENDBRANCH  19  24
ENDBRANCH   1  18
TORSDOF 4
ENDMDL
MODEL 9
REMARK VINA RESULT:      -8.1      4.139      5.903
REMARK  4 active torsions:
REMARK  status: ('A' for Active; 'I' for Inactive)
REMARK    1  A    between atoms: C_2  and  C_3 
REMARK    2  A    between atoms: C_8  and  N_9 
REMARK       I    between atoms: N_9  and  C_10 
REMARK       I    between atoms: C_10  and  N_11 
REMARK    3  A    between atoms: N_11  and  C_12 
REMARK    4  A    between atoms: C_12  and  C_13 
ROOT
HETATM    1  N   UNL     1      40.711 -15.389   5.013  1.00  0.00    -0.305 N 
HETATM    2  C   UNL     1      42.038 -15.686   4.814  1.00  0.00     0.321 C 
HETATM    3  N   UNL     1      42.329 -16.957   5.258  1.00  0.00    -0.339 N 
HETATM    4  O   UNL     1      42.884 -14.938   4.347  1.00  0.00    -0.247 OA
HETATM    5  H   UNL     1      40.243 -15.929   5.725  1.00  0.00     0.171 HD
HETATM    6  H   UNL     1      41.571 -17.621   5.271  1.00  0.00     0.164 HD
ENDROOT
BRANCH   3   7
HETATM    7  C   UNL     1      43.665 -17.510   5.157  1.00  0.00     0.163 C 
BRANCH   7   8
HETATM    8  C   UNL     1      43.767 -18.474   3.995  1.00  0.00    -0.029 A 
HETATM    9  C   UNL     1      44.110 -19.846   4.164  1.00  0.00    -0.018 A 
HETATM   10  C   UNL     1      44.189 -20.674   3.015  1.00  0.00    -0.025 A 
HETATM   11  C   UNL     1      44.379 -20.447   5.417  1.00  0.00     0.013 A 
HETATM   12  C   UNL     1      44.512 -22.036   3.146  1.00  0.00     0.012 A 
HETATM   13  C   UNL     1      43.944 -20.135   1.743  1.00  0.00     0.012 A 
HETATM   14  C   UNL     1      44.765 -22.596   4.396  1.00  0.00     0.001 A 
HETATM   15  C   UNL     1      44.701 -21.801   5.531  1.00  0.00     0.001 A 
HETATM   16  C   UNL     1      43.624 -18.790   1.586  1.00  0.00     0.002 A 
HETATM   17  C   UNL     1      43.538 -17.966   2.702  1.00  0.00     0.010 A 
ENDBRANCH   7   8
ENDBRANCH   3   7
BRANCH   1  18
HETATM   18  C   UNL     1      40.054 -14.255   4.558  1.00  0.00     0.095 A 
HETATM   19  C   UNL     1      39.647 -14.091   3.250  1.00  0.00     0.107 A 
HETATM   20  O   UNL     1      39.052 -12.880   3.107  1.00  0.00    -0.215 OA
HETATM   21  N   UNL     1      39.063 -12.215   4.311  1.00  0.00    -0.131 NA
HETATM   22  C   UNL     1      39.669 -13.034   5.184  1.00  0.00     0.087 A 
HETATM   23  C   UNL     1      39.876 -12.551   6.570  1.00  0.00     0.075 C 
BRANCH  19  24
HETATM   24  C   UNL     1      39.697 -14.927   2.026  1.00  0.00     0.065 C 
HETATM   25  C   UNL     1      38.816 -14.363   0.925  1.00  0.00     0.012 C 
ENDBRANCH  19  24
ENDBRANCH   1  18
TORSDOF 4
ENDMDL
MODEL 10
REMARK VINA RESULT:      -8.1      3.442      4.914
REMARK  4 active torsions:
REMARK  status: ('A' for Active; 'I' for Inactive)
REMARK    1  A    between atoms: C_2  and  C_3 
REMARK    2  A    between atoms: C_8  and  N_9 
REMARK       I    between atoms: N_9  and  C_10 
REMARK       I    between atoms: C_10  and  N_11 
REMARK    3  A    between atoms: N_11  and  C_12 
REMARK    4  A    between atoms: C_12  and  C_13 
ROOT
HETATM    1  N   UNL     1      40.752 -14.636   6.104  1.00  0.00    -0.305 N 
HETATM    2  C   UNL     1      42.103 -14.792   5.901  1.00  0.00     0.321 C 
HETATM    3  N   UNL     1      42.524 -16.033   6.324  1.00  0.00    -0.339 N 
HETATM    4  O   UNL     1      42.867 -13.953   5.447  1.00  0.00    -0.247 OA
HETATM    5  H   UNL     1      40.343 -15.233   6.806  1.00  0.00     0.171 HD
HETATM    6  H   UNL     1      41.838 -16.772   6.325  1.00  0.00     0.164 HD
ENDROOT
BRANCH   3   7
HETATM    7  C   UNL     1      43.909 -16.444   6.215  1.00  0.00     0.163 C 
BRANCH   7   8
HETATM    8  C   UNL     1      44.037 -17.711   5.398  1.00  0.00    -0.029 A 
HETATM    9  C   UNL     1      43.865 -17.733   3.984  1.00  0.00    -0.018 A 
HETATM   10  C   UNL     1      43.997 -18.971   3.302  1.00  0.00    -0.025 A 
HETATM   11  C   UNL     1      43.571 -16.591   3.204  1.00  0.00     0.013 A 
HETATM   12  C   UNL     1      43.847 -19.027   1.906  1.00  0.00     0.012 A 
HETATM   13  C   UNL     1      44.277 -20.142   4.022  1.00  0.00     0.012 A 
HETATM   14  C   UNL     1      43.563 -17.882   1.167  1.00  0.00     0.001 A 
HETATM   15  C   UNL     1      43.423 -16.663   1.817  1.00  0.00     0.001 A 
HETATM   16  C   UNL     1      44.428 -20.113   5.405  1.00  0.00     0.002 A 
HETATM   17  C   UNL     1      44.307 -18.909   6.087  1.00  0.00     0.010 A 
ENDBRANCH   7   8
ENDBRANCH   3   7
BRANCH   1  18
HETATM   18  C   UNL     1      39.981 -13.568   5.667  1.00  0.00     0.095 A 
HETATM   19  C   UNL     1      39.639 -13.375   4.344  1.00  0.00     0.107 A 
HETATM   20  O   UNL     1      38.900 -12.242   4.227  1.00  0.00    -0.215 OA
HETATM   21  N   UNL     1      38.749 -11.659   5.464  1.00  0.00    -0.131 NA
HETATM   22  C   UNL     1      39.402 -12.448   6.331  1.00  0.00     0.087 A 
HETATM   23  C   UNL     1      39.457 -12.032   7.752  1.00  0.00     0.075 C 
BRANCH  19  24
HETATM   24  C   UNL     1      39.874 -14.117   3.083  1.00  0.00     0.065 C 
HETATM   25  C   UNL     1      41.154 -13.672   2.398  1.00  0.00     0.012 C 
ENDBRANCH  19  24
ENDBRANCH   1  18
TORSDOF 4
ENDMDL
