MODEL 1
REMARK VINA RESULT:      -9.9      0.000      0.000
REMARK  4 active torsions:
REMARK  status: ('A' for Active; 'I' for Inactive)
REMARK    1  A    between atoms: C_4  and  C_5 
REMARK    2  A    between atoms: C_6  and  N_7 
REMARK    3  A    between atoms: C_9  and  C_10 
REMARK       I    between atoms: C_10  and  N_11 
REMARK    4  A    between atoms: N_11  and  C_12 
ROOT
HETATM    1  C   UNL     1      43.120 -18.035   4.550  1.00  0.00     0.019 A 
HETATM    2  C   UNL     1      42.881 -17.256   5.639  1.00  0.00     0.111 A 
HETATM    3  C   UNL     1      43.205 -17.806   7.025  1.00  0.00     0.273 A 
HETATM    4  O   UNL     1      43.018 -17.158   8.055  1.00  0.00    -0.266 OA
HETATM    5  N   UNL     1      43.715 -19.068   7.109  1.00  0.00    -0.321 N 
HETATM    6  C   UNL     1      43.963 -19.880   6.007  1.00  0.00     0.046 A 
HETATM    7  C   UNL     1      43.691 -19.398   4.723  1.00  0.00     0.006 A 
HETATM    8  C   UNL     1      44.481 -21.160   6.213  1.00  0.00     0.032 A 
HETATM    9  C   UNL     1      44.740 -21.984   5.118  1.00  0.00     0.026 A 
HETATM   10  C   UNL     1      44.482 -21.518   3.832  1.00  0.00     0.035 A 
HETATM   11 CL   UNL     1      44.804 -22.532   2.480  1.00  0.00    -0.084 Cl
HETATM   12  C   UNL     1      43.966 -20.236   3.630  1.00  0.00     0.038 A 
HETATM   13  H   UNL     1      43.904 -19.395   8.046  1.00  0.00     0.169 HD
ENDROOT
BRANCH   2  14
HETATM   14  N   UNL     1      42.294 -15.964   5.574  1.00  0.00    -0.375 N 
HETATM   15  C   UNL     1      43.091 -14.798   6.001  1.00  0.00     0.137 C 
HETATM   16  C   UNL     1      42.527 -13.487   5.440  1.00  0.00     0.096 C 
HETATM   17  C   UNL     1      41.049 -13.354   5.849  1.00  0.00     0.017 C 
HETATM   18  C   UNL     1      40.245 -14.596   5.461  1.00  0.00     0.021 C 
HETATM   19  C   UNL     1      40.885 -15.866   6.011  1.00  0.00     0.123 C 
BRANCH  16  20
HETATM   20  C   UNL     1      42.715 -13.281   3.925  1.00  0.00     0.229 C 
HETATM   21  N   UNL     1      41.549 -12.951   3.256  1.00  0.00    -0.311 N 
HETATM   22  H   UNL     1      40.722 -12.757   3.794  1.00  0.00     0.170 HD
HETATM   23  O   UNL     1      43.798 -13.515   3.393  1.00  0.00    -0.273 OA
BRANCH  21  24
HETATM   24  C   UNL     1      41.423 -12.810   1.865  1.00  0.00     0.129 A 
HETATM   25  N   UNL     1      42.355 -12.165   1.145  1.00  0.00    -0.243 NA
HETATM   26  C   UNL     1      42.182 -12.070  -0.190  1.00  0.00     0.119 A 
HETATM   27  C   UNL     1      41.093 -12.594  -0.860  1.00  0.00     0.019 A 
HETATM   28  C   UNL     1      40.131 -13.259  -0.112  1.00  0.00     0.005 A 
HETATM   29  C   UNL     1      40.299 -13.374   1.267  1.00  0.00     0.050 A 
ENDBRANCH  21  24
ENDBRANCH  16  20
ENDBRANCH   2  14
BRANCH   1  30
HETATM   30  C   UNL     1      42.788 -17.467   3.218  1.00  0.00    -0.023 A 
HETATM   31  C   UNL     1      43.775 -16.834   2.452  1.00  0.00     0.012 A 
HETATM   32  C   UNL     1      43.460 -16.300   1.203  1.00  0.00     0.001 A 
HETATM   33  C   UNL     1      42.163 -16.408   0.704  1.00  0.00     0.000 A 
HETATM   34  C   UNL     1      41.177 -17.049   1.453  1.00  0.00     0.001 A 
HETATM   35  C   UNL     1      41.488 -17.577   2.707  1.00  0.00     0.012 A 
ENDBRANCH   1  30
TORSDOF 4
ENDMDL
MODEL 2
REMARK VINA RESULT:      -9.5      2.431      7.149
REMARK  4 active torsions:
REMARK  status: ('A' for Active; 'I' for Inactive)
REMARK    1  A    between atoms: C_4  and  C_5 
REMARK    2  A    between atoms: C_6  and  N_7 
REMARK    3  A    between atoms: C_9  and  C_10 
REMARK       I    between atoms: C_10  and  N_11 
REMARK    4  A    between atoms: N_11  and  C_12 
ROOT
HETATM    1  C   UNL     1      41.295 -15.129   1.664  1.00  0.00     0.019 A 
HETATM    2  C   UNL     1      41.153 -14.485   2.853  1.00  0.00     0.111 A 
HETATM    3  C   UNL     1      40.308 -13.215   2.908  1.00  0.00     0.273 A 
HETATM    4  O   UNL     1      40.132 -12.581   3.948  1.00  0.00    -0.266 OA
HETATM    5  N   UNL     1      39.736 -12.777   1.750  1.00  0.00    -0.321 N 
HETATM    6  C   UNL     1      39.873 -13.421   0.525  1.00  0.00     0.046 A 
HETATM    7  C   UNL     1      40.628 -14.595   0.445  1.00  0.00     0.006 A 
HETATM    8  C   UNL     1      39.247 -12.877  -0.599  1.00  0.00     0.032 A 
HETATM    9  C   UNL     1      39.371 -13.513  -1.833  1.00  0.00     0.026 A 
HETATM   10  C   UNL     1      40.114 -14.687  -1.929  1.00  0.00     0.035 A 
HETATM   11 CL   UNL     1      40.264 -15.475  -3.452  1.00  0.00    -0.084 Cl
HETATM   12  C   UNL     1      40.736 -15.229  -0.803  1.00  0.00     0.038 A 
HETATM   13  H   UNL     1      39.194 -11.928   1.831  1.00  0.00     0.169 HD
ENDROOT
BRANCH   2  14
HETATM   14  N   UNL     1      41.790 -14.892   4.055  1.00  0.00    -0.375 N 
HETATM   15  C   UNL     1      40.955 -15.242   5.220  1.00  0.00     0.137 C 
HETATM   16  C   UNL     1      41.726 -16.093   6.237  1.00  0.00     0.096 C 
HETATM   17  C   UNL     1      43.009 -15.349   6.652  1.00  0.00     0.017 C 
HETATM   18  C   UNL     1      43.834 -14.932   5.434  1.00  0.00     0.021 C 
HETATM   19  C   UNL     1      42.998 -14.132   4.444  1.00  0.00     0.123 C 
BRANCH  16  20
HETATM   20  C   UNL     1      42.027 -17.538   5.798  1.00  0.00     0.229 C 
HETATM   21  N   UNL     1      43.225 -18.032   6.283  1.00  0.00    -0.311 N 
HETATM   22  H   UNL     1      43.736 -17.487   6.956  1.00  0.00     0.170 HD
HETATM   23  O   UNL     1      41.294 -18.112   4.996  1.00  0.00    -0.273 OA
BRANCH  21  24
HETATM   24  C   UNL     1      43.784 -19.277   5.952  1.00  0.00     0.129 A 
HETATM   25  N   UNL     1      43.554 -20.365   6.707  1.00  0.00    -0.243 NA
HETATM   26  C   UNL     1      44.112 -21.534   6.332  1.00  0.00     0.119 A 
HETATM   27  C   UNL     1      44.915 -21.678   5.217  1.00  0.00     0.019 A 
HETATM   28  C   UNL     1      45.151 -20.551   4.440  1.00  0.00     0.005 A 
HETATM   29  C   UNL     1      44.575 -19.336   4.808  1.00  0.00     0.050 A 
ENDBRANCH  21  24
ENDBRANCH  16  20
ENDBRANCH   2  14
BRANCH   1  30
HETATM   30  C   UNL     1      42.130 -16.358   1.648  1.00  0.00    -0.023 A 
HETATM   31  C   UNL     1      41.532 -17.620   1.757  1.00  0.00     0.012 A 
HETATM   32  C   UNL     1      42.317 -18.772   1.744  1.00  0.00     0.001 A 
HETATM   33  C   UNL     1      43.701 -18.673   1.608  1.00  0.00     0.000 A 
HETATM   34  C   UNL     1      44.303 -17.422   1.485  1.00  0.00     0.001 A 
HETATM   35  C   UNL     1      43.520 -16.266   1.506  1.00  0.00     0.012 A 
ENDBRANCH   1  30
TORSDOF 4
ENDMDL
MODEL 3
REMARK VINA RESULT:      -9.0      2.310      3.836
REMARK  4 active torsions:
REMARK  status: ('A' for Active; 'I' for Inactive)
REMARK    1  A    between atoms: C_4  and  C_5 
REMARK    2  A    between atoms: C_6  and  N_7 
REMARK    3  A    between atoms: C_9  and  C_10 
REMARK       I    between atoms: C_10  and  N_11 
REMARK    4  A    between atoms: N_11  and  C_12 
ROOT
HETATM    1  C   UNL     1      43.034 -17.997   3.857  1.00  0.00     0.019 A 
HETATM    2  C   UNL     1      42.386 -17.225   2.945  1.00  0.00     0.111 A 
HETATM    3  C   UNL     1      42.169 -17.772   1.537  1.00  0.00     0.273 A 
HETATM    4  O   UNL     1      41.589 -17.132   0.659  1.00  0.00    -0.266 OA
HETATM    5  N   UNL     1      42.648 -19.016   1.253  1.00  0.00    -0.321 N 
HETATM    6  C   UNL     1      43.317 -19.819   2.172  1.00  0.00     0.046 A 
HETATM    7  C   UNL     1      43.517 -19.352   3.475  1.00  0.00     0.006 A 
HETATM    8  C   UNL     1      43.771 -21.076   1.769  1.00  0.00     0.032 A 
HETATM    9  C   UNL     1      44.438 -21.894   2.680  1.00  0.00     0.026 A 
HETATM   10  C   UNL     1      44.640 -21.448   3.983  1.00  0.00     0.035 A 
HETATM   11 CL   UNL     1      45.460 -22.457   5.110  1.00  0.00    -0.084 Cl
HETATM   12  C   UNL     1      44.182 -20.191   4.384  1.00  0.00     0.038 A 
HETATM   13  H   UNL     1      42.493 -19.334   0.306  1.00  0.00     0.169 HD
ENDROOT
BRANCH   2  14
HETATM   14  N   UNL     1      41.934 -15.904   3.204  1.00  0.00    -0.375 N 
HETATM   15  C   UNL     1      42.883 -14.785   3.055  1.00  0.00     0.137 C 
HETATM   16  C   UNL     1      42.159 -13.442   2.898  1.00  0.00     0.096 C 
HETATM   17  C   UNL     1      41.210 -13.235   4.092  1.00  0.00     0.017 C 
HETATM   18  C   UNL     1      40.274 -14.429   4.279  1.00  0.00     0.021 C 
HETATM   19  C   UNL     1      41.054 -15.735   4.381  1.00  0.00     0.123 C 
BRANCH  16  20
HETATM   20  C   UNL     1      41.433 -13.234   1.556  1.00  0.00     0.229 C 
HETATM   21  N   UNL     1      41.995 -13.935   0.502  1.00  0.00    -0.311 N 
HETATM   22  H   UNL     1      42.728 -14.595   0.697  1.00  0.00     0.170 HD
HETATM   23  O   UNL     1      40.517 -12.421   1.461  1.00  0.00    -0.273 OA
BRANCH  21  24
HETATM   24  C   UNL     1      41.593 -13.842  -0.840  1.00  0.00     0.129 A 
HETATM   25  N   UNL     1      40.569 -14.573  -1.310  1.00  0.00    -0.243 NA
HETATM   26  C   UNL     1      40.224 -14.434  -2.608  1.00  0.00     0.119 A 
HETATM   27  C   UNL     1      40.871 -13.585  -3.485  1.00  0.00     0.019 A 
HETATM   28  C   UNL     1      41.930 -12.832  -2.996  1.00  0.00     0.005 A 
HETATM   29  C   UNL     1      42.294 -12.957  -1.655  1.00  0.00     0.050 A 
ENDBRANCH  21  24
ENDBRANCH  16  20
ENDBRANCH   2  14
BRANCH   1  30
HETATM   30  C   UNL     1      43.231 -17.429   5.216  1.00  0.00    -0.023 A 
HETATM   31  C   UNL     1      42.341 -17.745   6.250  1.00  0.00     0.012 A 
HETATM   32  C   UNL     1      42.525 -17.209   7.524  1.00  0.00     0.001 A 
HETATM   33  C   UNL     1      43.607 -16.367   7.777  1.00  0.00     0.000 A 
HETATM   34  C   UNL     1      44.506 -16.059   6.758  1.00  0.00     0.001 A 
HETATM   35  C   UNL     1      44.319 -16.587   5.480  1.00  0.00     0.012 A 
ENDBRANCH   1  30
TORSDOF 4
ENDMDL
MODEL 4
REMARK VINA RESULT:      -8.5      2.685      5.334
REMARK  4 active torsions:
REMARK  status: ('A' for Active; 'I' for Inactive)
REMARK    1  A    between atoms: C_4  and  C_5 
REMARK    2  A    between atoms: C_6  and  N_7 
REMARK    3  A    between atoms: C_9  and  C_10 
REMARK       I    between atoms: C_10  and  N_11 
REMARK    4  A    between atoms: N_11  and  C_12 
ROOT
HETATM    1  C   UNL     1      42.679 -16.613   3.669  1.00  0.00     0.019 A 
HETATM    2  C   UNL     1      41.787 -15.972   2.868  1.00  0.00     0.111 A 
HETATM    3  C   UNL     1      41.277 -16.679   1.616  1.00  0.00     0.273 A 
HETATM    4  O   UNL     1      40.468 -16.163   0.846  1.00  0.00    -0.266 OA
HETATM    5  N   UNL     1      41.750 -17.931   1.352  1.00  0.00    -0.321 N 
HETATM    6  C   UNL     1      42.664 -18.601   2.157  1.00  0.00     0.046 A 
HETATM    7  C   UNL     1      43.138 -17.985   3.320  1.00  0.00     0.006 A 
HETATM    8  C   UNL     1      43.086 -19.880   1.785  1.00  0.00     0.032 A 
HETATM    9  C   UNL     1      43.998 -20.566   2.584  1.00  0.00     0.026 A 
HETATM   10  C   UNL     1      44.474 -19.970   3.749  1.00  0.00     0.035 A 
HETATM   11 CL   UNL     1      45.598 -20.818   4.739  1.00  0.00    -0.084 Cl
HETATM   12  C   UNL     1      44.050 -18.693   4.121  1.00  0.00     0.038 A 
HETATM   13  H   UNL     1      41.395 -18.357   0.507  1.00  0.00     0.169 HD
ENDROOT
BRANCH   2  14
HETATM   14  N   UNL     1      41.330 -14.647   3.096  1.00  0.00    -0.375 N 
HETATM   15  C   UNL     1      39.894 -14.422   3.347  1.00  0.00     0.137 C 
HETATM   16  C   UNL     1      39.640 -13.071   4.028  1.00  0.00     0.096 C 
HETATM   17  C   UNL     1      40.256 -11.948   3.175  1.00  0.00     0.017 C 
HETATM   18  C   UNL     1      41.727 -12.223   2.863  1.00  0.00     0.021 C 
HETATM   19  C   UNL     1      41.914 -13.598   2.232  1.00  0.00     0.123 C 
BRANCH  16  20
HETATM   20  C   UNL     1      40.091 -12.977   5.498  1.00  0.00     0.229 C 
HETATM   21  N   UNL     1      40.079 -11.689   6.005  1.00  0.00    -0.311 N 
HETATM   22  H   UNL     1      39.680 -10.953   5.447  1.00  0.00     0.170 HD
HETATM   23  O   UNL     1      40.522 -13.967   6.084  1.00  0.00    -0.273 OA
BRANCH  21  24
HETATM   24  C   UNL     1      40.539 -11.313   7.277  1.00  0.00     0.129 A 
HETATM   25  N   UNL     1      39.701 -11.235   8.324  1.00  0.00    -0.243 NA
HETATM   26  C   UNL     1      40.205 -10.876   9.523  1.00  0.00     0.119 A 
HETATM   27  C   UNL     1      41.536 -10.576   9.736  1.00  0.00     0.019 A 
HETATM   28  C   UNL     1      42.400 -10.657   8.651  1.00  0.00     0.005 A 
HETATM   29  C   UNL     1      41.897 -11.035   7.407  1.00  0.00     0.050 A 
ENDBRANCH  21  24
ENDBRANCH  16  20
ENDBRANCH   2  14
BRANCH   1  30
HETATM   30  C   UNL     1      43.156 -15.891   4.877  1.00  0.00    -0.023 A 
HETATM   31  C   UNL     1      42.987 -16.450   6.149  1.00  0.00     0.012 A 
HETATM   32  C   UNL     1      43.434 -15.769   7.281  1.00  0.00     0.001 A 
HETATM   33  C   UNL     1      44.065 -14.533   7.149  1.00  0.00     0.000 A 
HETATM   34  C   UNL     1      44.250 -13.975   5.885  1.00  0.00     0.001 A 
HETATM   35  C   UNL     1      43.796 -14.651   4.751  1.00  0.00     0.012 A 
ENDBRANCH   1  30
TORSDOF 4
ENDMDL
MODEL 5
REMARK VINA RESULT:      -8.5      2.090      3.162
REMARK  4 active torsions:
REMARK  status: ('A' for Active; 'I' for Inactive)
REMARK    1  A    between atoms: C_4  and  C_5 
REMARK    2  A    between atoms: C_6  and  N_7 
REMARK    3  A    between atoms: C_9  and  C_10 
REMARK       I    between atoms: C_10  and  N_11 
REMARK    4  A    between atoms: N_11  and  C_12 
ROOT
HETATM    1  C   UNL     1      42.579 -15.713   4.176  1.00  0.00     0.019 A 
HETATM    2  C   UNL     1      42.243 -14.466   4.598  1.00  0.00     0.111 A 
HETATM    3  C   UNL     1      42.750 -13.984   5.955  1.00  0.00     0.273 A 
HETATM    4  O   UNL     1      42.489 -12.867   6.401  1.00  0.00    -0.266 OA
HETATM    5  N   UNL     1      43.516 -14.839   6.691  1.00  0.00    -0.321 N 
HETATM    6  C   UNL     1      43.867 -16.119   6.277  1.00  0.00     0.046 A 
HETATM    7  C   UNL     1      43.431 -16.583   5.032  1.00  0.00     0.006 A 
HETATM    8  C   UNL     1      44.651 -16.912   7.118  1.00  0.00     0.032 A 
HETATM    9  C   UNL     1      45.015 -18.195   6.715  1.00  0.00     0.026 A 
HETATM   10  C   UNL     1      44.596 -18.670   5.475  1.00  0.00     0.035 A 
HETATM   11 CL   UNL     1      45.048 -20.254   4.975  1.00  0.00    -0.084 Cl
HETATM   12  C   UNL     1      43.813 -17.875   4.636  1.00  0.00     0.038 A 
HETATM   13  H   UNL     1      43.820 -14.483   7.587  1.00  0.00     0.169 HD
ENDROOT
BRANCH   2  14
HETATM   14  N   UNL     1      41.397 -13.586   3.872  1.00  0.00    -0.375 N 
HETATM   15  C   UNL     1      41.855 -12.206   3.618  1.00  0.00     0.137 C 
HETATM   16  C   UNL     1      41.089 -11.557   2.459  1.00  0.00     0.096 C 
HETATM   17  C   UNL     1      39.579 -11.617   2.751  1.00  0.00     0.017 C 
HETATM   18  C   UNL     1      39.127 -13.040   3.078  1.00  0.00     0.021 C 
HETATM   19  C   UNL     1      39.957 -13.642   4.205  1.00  0.00     0.123 C 
BRANCH  16  20
HETATM   20  C   UNL     1      41.416 -12.109   1.059  1.00  0.00     0.229 C 
HETATM   21  N   UNL     1      40.325 -12.164   0.209  1.00  0.00    -0.311 N 
HETATM   22  H   UNL     1      39.460 -11.746   0.507  1.00  0.00     0.170 HD
HETATM   23  O   UNL     1      42.534 -12.555   0.809  1.00  0.00    -0.273 OA
BRANCH  21  24
HETATM   24  C   UNL     1      40.327 -12.718  -1.080  1.00  0.00     0.129 A 
HETATM   25  N   UNL     1      40.807 -12.033  -2.131  1.00  0.00    -0.243 NA
HETATM   26  C   UNL     1      40.789 -12.623  -3.344  1.00  0.00     0.119 A 
HETATM   27  C   UNL     1      40.296 -13.894  -3.570  1.00  0.00     0.019 A 
HETATM   28  C   UNL     1      39.799 -14.599  -2.483  1.00  0.00     0.005 A 
HETATM   29  C   UNL     1      39.818 -14.008  -1.220  1.00  0.00     0.050 A 
ENDBRANCH  21  24
ENDBRANCH  16  20
ENDBRANCH   2  14
BRANCH   1  30
HETATM   30  C   UNL     1      42.063 -16.149   2.852  1.00  0.00    -0.023 A 
HETATM   31  C   UNL     1      42.777 -15.856   1.683  1.00  0.00     0.012 A 
HETATM   32  C   UNL     1      42.290 -16.263   0.442  1.00  0.00     0.001 A 
HETATM   33  C   UNL     1      41.096 -16.978   0.361  1.00  0.00     0.000 A 
HETATM   34  C   UNL     1      40.386 -17.287   1.520  1.00  0.00     0.001 A 
HETATM   35  C   UNL     1      40.867 -16.873   2.763  1.00  0.00     0.012 A 
ENDBRANCH   1  30
TORSDOF 4
ENDMDL
MODEL 6
REMARK VINA RESULT:      -8.3      1.736      2.309
REMARK  4 active torsions:
REMARK  status: ('A' for Active; 'I' for Inactive)
REMARK    1  A    between atoms: C_4  and  C_5 
REMARK    2  A    between atoms: C_6  and  N_7 
REMARK    3  A    between atoms: C_9  and  C_10 
REMARK       I    between atoms: C_10  and  N_11 
REMARK    4  A    between atoms: N_11  and  C_12 
ROOT
HETATM    1  C   UNL     1      42.513 -16.359   3.791  1.00  0.00     0.019 A 
HETATM    2  C   UNL     1      42.605 -15.489   4.831  1.00  0.00     0.111 A 
HETATM    3  C   UNL     1      43.453 -15.871   6.041  1.00  0.00     0.273 A 
HETATM    4  O   UNL     1      43.585 -15.134   7.018  1.00  0.00    -0.266 OA
HETATM    5  N   UNL     1      44.078 -17.083   6.026  1.00  0.00    -0.321 N 
HETATM    6  C   UNL     1      43.993 -17.987   4.973  1.00  0.00     0.046 A 
HETATM    7  C   UNL     1      43.236 -17.659   3.844  1.00  0.00     0.006 A 
HETATM    8  C   UNL     1      44.671 -19.205   5.069  1.00  0.00     0.032 A 
HETATM    9  C   UNL     1      44.600 -20.119   4.020  1.00  0.00     0.026 A 
HETATM   10  C   UNL     1      43.857 -19.805   2.885  1.00  0.00     0.035 A 
HETATM   11 CL   UNL     1      43.770 -20.932   1.587  1.00  0.00    -0.084 Cl
HETATM   12  C   UNL     1      43.182 -18.587   2.791  1.00  0.00     0.038 A 
HETATM   13  H   UNL     1      44.619 -17.300   6.852  1.00  0.00     0.169 HD
ENDROOT
BRANCH   2  14
HETATM   14  N   UNL     1      41.913 -14.250   4.890  1.00  0.00    -0.375 N 
HETATM   15  C   UNL     1      42.667 -13.002   4.664  1.00  0.00     0.137 C 
HETATM   16  C   UNL     1      41.741 -11.838   4.290  1.00  0.00     0.096 C 
HETATM   17  C   UNL     1      40.668 -11.672   5.381  1.00  0.00     0.017 C 
HETATM   18  C   UNL     1      39.937 -12.987   5.655  1.00  0.00     0.021 C 
HETATM   19  C   UNL     1      40.916 -14.110   5.974  1.00  0.00     0.123 C 
BRANCH  16  20
HETATM   20  C   UNL     1      41.112 -11.918   2.886  1.00  0.00     0.229 C 
HETATM   21  N   UNL     1      41.857 -11.293   1.902  1.00  0.00    -0.311 N 
HETATM   22  H   UNL     1      42.774 -10.951   2.134  1.00  0.00     0.170 HD
HETATM   23  O   UNL     1      39.993 -12.403   2.730  1.00  0.00    -0.273 OA
BRANCH  21  24
HETATM   24  C   UNL     1      41.463 -11.131   0.564  1.00  0.00     0.129 A 
HETATM   25  N   UNL     1      40.374 -10.414   0.242  1.00  0.00    -0.243 NA
HETATM   26  C   UNL     1      40.052 -10.288  -1.062  1.00  0.00     0.119 A 
HETATM   27  C   UNL     1      40.775 -10.863  -2.089  1.00  0.00     0.019 A 
HETATM   28  C   UNL     1      41.900 -11.605  -1.752  1.00  0.00     0.005 A 
HETATM   29  C   UNL     1      42.253 -11.737  -0.410  1.00  0.00     0.050 A 
ENDBRANCH  21  24
ENDBRANCH  16  20
ENDBRANCH   2  14
BRANCH   1  30
HETATM   30  C   UNL     1      41.675 -15.954   2.633  1.00  0.00    -0.023 A 
HETATM   31  C   UNL     1      42.272 -15.600   1.417  1.00  0.00     0.012 A 
HETATM   32  C   UNL     1      41.483 -15.218   0.332  1.00  0.00     0.001 A 
HETATM   33  C   UNL     1      40.095 -15.201   0.450  1.00  0.00     0.000 A 
HETATM   34  C   UNL     1      39.491 -15.566   1.652  1.00  0.00     0.001 A 
HETATM   35  C   UNL     1      40.278 -15.941   2.742  1.00  0.00     0.012 A 
ENDBRANCH   1  30
TORSDOF 4
ENDMDL
MODEL 7
REMARK VINA RESULT:      -8.2      3.205      7.304
REMARK  4 active torsions:
REMARK  status: ('A' for Active; 'I' for Inactive)
REMARK    1  A    between atoms: C_4  and  C_5 
REMARK    2  A    between atoms: C_6  and  N_7 
REMARK    3  A    between atoms: C_9  and  C_10 
REMARK       I    between atoms: C_10  and  N_11 
REMARK    4  A    between atoms: N_11  and  C_12 
ROOT
HETATM    1  C   UNL     1      40.039 -13.631   2.937  1.00  0.00     0.019 A 
HETATM    2  C   UNL     1      40.393 -13.452   4.237  1.00  0.00     0.111 A 
HETATM    3  C   UNL     1      39.782 -12.290   5.015  1.00  0.00     0.273 A 
HETATM    4  O   UNL     1      40.053 -12.067   6.195  1.00  0.00    -0.266 OA
HETATM    5  N   UNL     1      38.908 -11.473   4.362  1.00  0.00    -0.321 N 
HETATM    6  C   UNL     1      38.536 -11.638   3.032  1.00  0.00     0.046 A 
HETATM    7  C   UNL     1      39.067 -12.703   2.297  1.00  0.00     0.006 A 
HETATM    8  C   UNL     1      37.636 -10.734   2.462  1.00  0.00     0.032 A 
HETATM    9  C   UNL     1      37.251 -10.890   1.132  1.00  0.00     0.026 A 
HETATM   10  C   UNL     1      37.764 -11.949   0.388  1.00  0.00     0.035 A 
HETATM   11 CL   UNL     1      37.286 -12.145  -1.254  1.00  0.00    -0.084 Cl
HETATM   12  C   UNL     1      38.662 -12.852   0.960  1.00  0.00     0.038 A 
HETATM   13  H   UNL     1      38.536 -10.710   4.912  1.00  0.00     0.169 HD
ENDROOT
BRANCH   2  14
HETATM   14  N   UNL     1      41.347 -14.256   4.915  1.00  0.00    -0.375 N 
HETATM   15  C   UNL     1      40.901 -15.087   6.050  1.00  0.00     0.137 C 
HETATM   16  C   UNL     1      41.893 -16.216   6.353  1.00  0.00     0.096 C 
HETATM   17  C   UNL     1      43.288 -15.614   6.597  1.00  0.00     0.017 C 
HETATM   18  C   UNL     1      43.714 -14.702   5.446  1.00  0.00     0.021 C 
HETATM   19  C   UNL     1      42.665 -13.633   5.167  1.00  0.00     0.123 C 
BRANCH  16  20
HETATM   20  C   UNL     1      41.941 -17.352   5.313  1.00  0.00     0.229 C 
HETATM   21  N   UNL     1      43.189 -17.934   5.178  1.00  0.00    -0.311 N 
HETATM   22  H   UNL     1      43.916 -17.674   5.822  1.00  0.00     0.170 HD
HETATM   23  O   UNL     1      40.961 -17.599   4.613  1.00  0.00    -0.273 OA
BRANCH  21  24
HETATM   24  C   UNL     1      43.529 -18.915   4.233  1.00  0.00     0.129 A 
HETATM   25  N   UNL     1      43.050 -18.867   2.978  1.00  0.00    -0.243 NA
HETATM   26  C   UNL     1      43.420 -19.835   2.113  1.00  0.00     0.119 A 
HETATM   27  C   UNL     1      44.259 -20.880   2.447  1.00  0.00     0.019 A 
HETATM   28  C   UNL     1      44.751 -20.928   3.745  1.00  0.00     0.005 A 
HETATM   29  C   UNL     1      44.386 -19.931   4.649  1.00  0.00     0.050 A 
ENDBRANCH  21  24
ENDBRANCH  16  20
ENDBRANCH   2  14
BRANCH   1  30
HETATM   30  C   UNL     1      40.658 -14.769   2.210  1.00  0.00    -0.023 A 
HETATM   31  C   UNL     1      41.942 -14.646   1.663  1.00  0.00     0.012 A 
HETATM   32  C   UNL     1      42.520 -15.715   0.980  1.00  0.00     0.001 A 
HETATM   33  C   UNL     1      41.828 -16.918   0.851  1.00  0.00     0.000 A 
HETATM   34  C   UNL     1      40.556 -17.055   1.405  1.00  0.00     0.001 A 
HETATM   35  C   UNL     1      39.971 -15.984   2.082  1.00  0.00     0.012 A 
ENDBRANCH   1  30
TORSDOF 4
ENDMDL
MODEL 8
REMARK VINA RESULT:      -7.9      3.276      7.589
REMARK  4 active torsions:
REMARK  status: ('A' for Active; 'I' for Inactive)
REMARK    1  A    between atoms: C_4  and  C_5 
REMARK    2  A    between atoms: C_6  and  N_7 
REMARK    3  A    between atoms: C_9  and  C_10 
REMARK       I    between atoms: C_10  and  N_11 
REMARK    4  A    between atoms: N_11  and  C_12 
ROOT
HETATM    1  C   UNL     1      40.745 -13.976   0.636  1.00  0.00     0.019 A 
HETATM    2  C   UNL     1      41.623 -14.882   1.141  1.00  0.00     0.111 A 
HETATM    3  C   UNL     1      42.090 -16.031   0.252  1.00  0.00     0.273 A 
HETATM    4  O   UNL     1      42.885 -16.888   0.639  1.00  0.00    -0.266 OA
HETATM    5  N   UNL     1      41.594 -16.100  -1.016  1.00  0.00    -0.321 N 
HETATM    6  C   UNL     1      40.693 -15.184  -1.549  1.00  0.00     0.046 A 
HETATM    7  C   UNL     1      40.258 -14.112  -0.764  1.00  0.00     0.006 A 
HETATM    8  C   UNL     1      40.245 -15.358  -2.860  1.00  0.00     0.032 A 
HETATM    9  C   UNL     1      39.347 -14.445  -3.409  1.00  0.00     0.026 A 
HETATM   10  C   UNL     1      38.909 -13.367  -2.644  1.00  0.00     0.035 A 
HETATM   11 CL   UNL     1      37.802 -12.238  -3.322  1.00  0.00    -0.084 Cl
HETATM   12  C   UNL     1      39.360 -13.195  -1.334  1.00  0.00     0.038 A 
HETATM   13  H   UNL     1      41.921 -16.883  -1.566  1.00  0.00     0.169 HD
ENDROOT
BRANCH   2  14
HETATM   14  N   UNL     1      42.103 -14.860   2.477  1.00  0.00    -0.375 N 
HETATM   15  C   UNL     1      41.267 -15.444   3.544  1.00  0.00     0.137 C 
HETATM   16  C   UNL     1      42.089 -15.773   4.796  1.00  0.00     0.096 C 
HETATM   17  C   UNL     1      42.822 -14.505   5.269  1.00  0.00     0.017 C 
HETATM   18  C   UNL     1      43.632 -13.870   4.139  1.00  0.00     0.021 C 
HETATM   19  C   UNL     1      42.767 -13.612   2.912  1.00  0.00     0.123 C 
BRANCH  16  20
HETATM   20  C   UNL     1      43.054 -16.965   4.659  1.00  0.00     0.229 C 
HETATM   21  N   UNL     1      42.704 -17.858   3.660  1.00  0.00    -0.311 N 
HETATM   22  H   UNL     1      41.949 -17.617   3.041  1.00  0.00     0.170 HD
HETATM   23  O   UNL     1      43.970 -17.123   5.463  1.00  0.00    -0.273 OA
BRANCH  21  24
HETATM   24  C   UNL     1      43.351 -19.074   3.395  1.00  0.00     0.129 A 
HETATM   25  N   UNL     1      44.198 -19.620   4.284  1.00  0.00    -0.243 NA
HETATM   26  C   UNL     1      44.783 -20.795   3.974  1.00  0.00     0.119 A 
HETATM   27  C   UNL     1      44.567 -21.470   2.788  1.00  0.00     0.019 A 
HETATM   28  C   UNL     1      43.692 -20.903   1.871  1.00  0.00     0.005 A 
HETATM   29  C   UNL     1      43.071 -19.693   2.179  1.00  0.00     0.050 A 
ENDBRANCH  21  24
ENDBRANCH  16  20
ENDBRANCH   2  14
BRANCH   1  30
HETATM   30  C   UNL     1      40.309 -12.874   1.533  1.00  0.00    -0.023 A 
HETATM   31  C   UNL     1      40.975 -11.642   1.515  1.00  0.00     0.012 A 
HETATM   32  C   UNL     1      40.566 -10.610   2.360  1.00  0.00     0.001 A 
HETATM   33  C   UNL     1      39.482 -10.797   3.215  1.00  0.00     0.000 A 
HETATM   34  C   UNL     1      38.804 -12.014   3.230  1.00  0.00     0.001 A 
HETATM   35  C   UNL     1      39.216 -13.052   2.392  1.00  0.00     0.012 A 
ENDBRANCH   1  30
TORSDOF 4
ENDMDL
MODEL 9
REMARK VINA RESULT:      -7.9      2.614      5.209
REMARK  4 active torsions:
REMARK  status: ('A' for Active; 'I' for Inactive)
REMARK    1  A    between atoms: C_4  and  C_5 
REMARK    2  A    between atoms: C_6  and  N_7 
REMARK    3  A    between atoms: C_9  and  C_10 
REMARK       I    between atoms: C_10  and  N_11 
REMARK    4  A    between atoms: N_11  and  C_12 
ROOT
HETATM    1  C   UNL     1      43.385 -17.971   3.870  1.00  0.00     0.019 A 
HETATM    2  C   UNL     1      42.935 -17.102   2.927  1.00  0.00     0.111 A 
HETATM    3  C   UNL     1      42.848 -17.566   1.475  1.00  0.00     0.273 A 
HETATM    4  O   UNL     1      42.449 -16.836   0.569  1.00  0.00    -0.266 OA
HETATM    5  N   UNL     1      43.239 -18.841   1.188  1.00  0.00    -0.321 N 
HETATM    6  C   UNL     1      43.705 -19.743   2.138  1.00  0.00     0.046 A 
HETATM    7  C   UNL     1      43.780 -19.352   3.479  1.00  0.00     0.006 A 
HETATM    8  C   UNL     1      44.085 -21.023   1.729  1.00  0.00     0.032 A 
HETATM    9  C   UNL     1      44.549 -21.940   2.670  1.00  0.00     0.026 A 
HETATM   10  C   UNL     1      44.624 -21.569   4.010  1.00  0.00     0.035 A 
HETATM   11 CL   UNL     1      45.193 -22.702   5.175  1.00  0.00    -0.084 Cl
HETATM   12  C   UNL     1      44.241 -20.290   4.418  1.00  0.00     0.038 A 
HETATM   13  H   UNL     1      43.176 -19.102   0.214  1.00  0.00     0.169 HD
ENDROOT
BRANCH   2  14
HETATM   14  N   UNL     1      42.581 -15.753   3.198  1.00  0.00    -0.375 N 
HETATM   15  C   UNL     1      41.651 -15.470   4.308  1.00  0.00     0.137 C 
HETATM   16  C   UNL     1      41.745 -14.011   4.770  1.00  0.00     0.096 C 
HETATM   17  C   UNL     1      41.503 -13.081   3.567  1.00  0.00     0.017 C 
HETATM   18  C   UNL     1      42.426 -13.425   2.397  1.00  0.00     0.021 C 
HETATM   19  C   UNL     1      42.319 -14.898   2.020  1.00  0.00     0.123 C 
BRANCH  16  20
HETATM   20  C   UNL     1      43.035 -13.636   5.523  1.00  0.00     0.229 C 
HETATM   21  N   UNL     1      42.817 -13.169   6.808  1.00  0.00    -0.311 N 
HETATM   22  H   UNL     1      41.888 -13.218   7.189  1.00  0.00     0.170 HD
HETATM   23  O   UNL     1      44.122 -13.659   4.950  1.00  0.00    -0.273 OA
BRANCH  21  24
HETATM   24  C   UNL     1      43.806 -12.666   7.667  1.00  0.00     0.129 A 
HETATM   25  N   UNL     1      45.060 -13.148   7.641  1.00  0.00    -0.243 NA
HETATM   26  C   UNL     1      45.969 -12.618   8.487  1.00  0.00     0.119 A 
HETATM   27  C   UNL     1      45.681 -11.610   9.386  1.00  0.00     0.019 A 
HETATM   28  C   UNL     1      44.384 -11.115   9.412  1.00  0.00     0.005 A 
HETATM   29  C   UNL     1      43.435 -11.645   8.538  1.00  0.00     0.050 A 
ENDBRANCH  21  24
ENDBRANCH  16  20
ENDBRANCH   2  14
BRANCH   1  30
HETATM   30  C   UNL     1      43.459 -17.482   5.271  1.00  0.00    -0.023 A 
HETATM   31  C   UNL     1      44.632 -16.886   5.750  1.00  0.00     0.012 A 
HETATM   32  C   UNL     1      44.701 -16.429   7.066  1.00  0.00     0.001 A 
HETATM   33  C   UNL     1      43.595 -16.551   7.906  1.00  0.00     0.000 A 
HETATM   34  C   UNL     1      42.418 -17.130   7.433  1.00  0.00     0.001 A 
HETATM   35  C   UNL     1      42.350 -17.596   6.119  1.00  0.00     0.012 A 
ENDBRANCH   1  30
TORSDOF 4
ENDMDL
MODEL 10
REMARK VINA RESULT:      -7.8      3.140      8.030
REMARK  4 active torsions:
REMARK  status: ('A' for Active; 'I' for Inactive)
REMARK    1  A    between atoms: C_4  and  C_5 
REMARK    2  A    between atoms: C_6  and  N_7 
REMARK    3  A    between atoms: C_9  and  C_10 
REMARK       I    between atoms: C_10  and  N_11 
REMARK    4  A    between atoms: N_11  and  C_12 
ROOT
HETATM    1  C   UNL     1      41.621 -13.611   4.421  1.00  0.00     0.019 A 
HETATM    2  C   UNL     1      41.979 -13.764   3.118  1.00  0.00     0.111 A 
HETATM    3  C   UNL     1      42.023 -12.534   2.216  1.00  0.00     0.273 A 
HETATM    4  O   UNL     1      42.340 -12.594   1.028  1.00  0.00    -0.266 OA
HETATM    5  N   UNL     1      41.689 -11.329   2.761  1.00  0.00    -0.321 N 
HETATM    6  C   UNL     1      41.317 -11.154   4.089  1.00  0.00     0.046 A 
HETATM    7  C   UNL     1      41.282 -12.260   4.945  1.00  0.00     0.006 A 
HETATM    8  C   UNL     1      40.987  -9.873   4.538  1.00  0.00     0.032 A 
HETATM    9  C   UNL     1      40.618  -9.681   5.868  1.00  0.00     0.026 A 
HETATM   10  C   UNL     1      40.585 -10.770   6.735  1.00  0.00     0.035 A 
HETATM   11 CL   UNL     1      40.132 -10.534   8.379  1.00  0.00    -0.084 Cl
HETATM   12  C   UNL     1      40.916 -12.049   6.285  1.00  0.00     0.038 A 
HETATM   13  H   UNL     1      41.720 -10.544   2.125  1.00  0.00     0.169 HD
ENDROOT
BRANCH   2  14
HETATM   14  N   UNL     1      42.271 -15.018   2.520  1.00  0.00    -0.375 N 
HETATM   15  C   UNL     1      43.674 -15.472   2.467  1.00  0.00     0.137 C 
HETATM   16  C   UNL     1      43.774 -16.987   2.246  1.00  0.00     0.096 C 
HETATM   17  C   UNL     1      42.999 -17.366   0.972  1.00  0.00     0.017 C 
HETATM   18  C   UNL     1      41.566 -16.834   1.007  1.00  0.00     0.021 C 
HETATM   19  C   UNL     1      41.537 -15.334   1.275  1.00  0.00     0.123 C 
BRANCH  16  20
HETATM   20  C   UNL     1      43.353 -17.858   3.444  1.00  0.00     0.229 C 
HETATM   21  N   UNL     1      44.401 -18.549   4.029  1.00  0.00    -0.311 N 
HETATM   22  H   UNL     1      45.339 -18.352   3.725  1.00  0.00     0.170 HD
HETATM   23  O   UNL     1      42.167 -17.984   3.739  1.00  0.00    -0.273 OA
BRANCH  21  24
HETATM   24  C   UNL     1      44.276 -19.488   5.065  1.00  0.00     0.129 A 
HETATM   25  N   UNL     1      44.405 -20.804   4.830  1.00  0.00    -0.243 NA
HETATM   26  C   UNL     1      44.282 -21.656   5.870  1.00  0.00     0.119 A 
HETATM   27  C   UNL     1      44.024 -21.251   7.165  1.00  0.00     0.019 A 
HETATM   28  C   UNL     1      43.890 -19.890   7.404  1.00  0.00     0.005 A 
HETATM   29  C   UNL     1      44.023 -18.995   6.343  1.00  0.00     0.050 A 
ENDBRANCH  21  24
ENDBRANCH  16  20
ENDBRANCH   2  14
BRANCH   1  30
HETATM   30  C   UNL     1      41.585 -14.832   5.267  1.00  0.00    -0.023 A 
HETATM   31  C   UNL     1      40.425 -15.614   5.332  1.00  0.00     0.012 A 
HETATM   32  C   UNL     1      40.393 -16.758   6.129  1.00  0.00     0.001 A 
HETATM   33  C   UNL     1      41.522 -17.136   6.854  1.00  0.00     0.000 A 
HETATM   34  C   UNL     1      42.686 -16.372   6.784  1.00  0.00     0.001 A 
HETATM   35  C   UNL     1      42.718 -15.221   5.994  1.00  0.00     0.012 A 
ENDBRANCH   1  30
TORSDOF 4
ENDMDL
