MODEL 1
REMARK VINA RESULT:      -8.8      0.000      0.000
REMARK  6 active torsions:
REMARK  status: ('A' for Active; 'I' for Inactive)
REMARK    1  A    between atoms: O_2  and  C_3 
REMARK    2  A    between atoms: C_3  and  C_4 
REMARK    3  A    between atoms: C_4  and  N_5 
REMARK       I    between atoms: N_5  and  C_6 
REMARK    4  A    between atoms: C_6  and  C_7 
REMARK    5  A    between atoms: C_12  and  C_13 
REMARK    6  A    between atoms: C_22  and  C_23 
ROOT
HETATM    1  C   UNL     1      44.416 -13.993   7.202  1.00  0.00     0.148 A 
HETATM    2  N   UNL     1      43.804 -13.573   6.070  1.00  0.00    -0.165 NA
HETATM    3  N   UNL     1      43.322 -14.708   5.539  1.00  0.00    -0.240 N 
HETATM    4  C   UNL     1      43.666 -15.839   6.224  1.00  0.00     0.123 A 
HETATM    5  N   UNL     1      43.362 -17.067   5.754  1.00  0.00    -0.366 N 
HETATM    6  C   UNL     1      42.657 -17.263   4.490  1.00  0.00     0.118 C 
HETATM    7  C   UNL     1      42.842 -16.045   3.562  1.00  0.00     0.066 C 
HETATM    8  C   UNL     1      42.575 -14.721   4.297  1.00  0.00     0.221 C 
HETATM    9  C   UNL     1      44.332 -15.408   7.340  1.00  0.00     0.088 A 
HETATM   10  H   UNL     1      43.480 -17.896   6.336  1.00  0.00     0.161 HD
ENDROOT
BRANCH   1  11
HETATM   11  C   UNL     1      45.095 -13.065   8.119  1.00  0.00     0.272 C 
HETATM   12  N   UNL     1      44.342 -12.732   9.223  1.00  0.00    -0.354 N 
HETATM   13  H   UNL     1      43.376 -13.046   9.205  1.00  0.00     0.162 HD
HETATM   14  O   UNL     1      46.216 -12.613   7.903  1.00  0.00    -0.266 OA
BRANCH  12  15
HETATM   15  C   UNL     1      44.744 -11.699  10.154  1.00  0.00     0.149 C 
BRANCH  15  16
HETATM   16  C   UNL     1      43.744 -11.523  11.299  1.00  0.00     0.186 C 
BRANCH  16  17
HETATM   17  O   UNL     1      44.010 -10.285  11.970  1.00  0.00    -0.394 OA
HETATM   18  C   UNL     1      43.139 -10.098  13.077  1.00  0.00     0.201 C 
ENDBRANCH  16  17
ENDBRANCH  15  16
ENDBRANCH  12  15
ENDBRANCH   1  11
BRANCH   8  19
HETATM   19  C   UNL     1      41.106 -14.499   4.578  1.00  0.00     0.409 C 
HETATM   20  F   UNL     1      40.754 -14.860   5.830  1.00  0.00    -0.169 F 
HETATM   21  F   UNL     1      40.813 -13.176   4.461  1.00  0.00    -0.169 F 
HETATM   22  F   UNL     1      40.292 -15.147   3.717  1.00  0.00    -0.169 F 
ENDBRANCH   8  19
BRANCH   6  23
HETATM   23  C   UNL     1      43.169 -18.525   3.813  1.00  0.00    -0.034 A 
HETATM   24  C   UNL     1      43.891 -19.496   4.534  1.00  0.00     0.034 A 
HETATM   25  C   UNL     1      44.378 -20.647   3.906  1.00  0.00     0.056 A 
HETATM   26 CL   UNL     1      45.246 -21.785   4.873  1.00  0.00    -0.083 Cl
HETATM   27  C   UNL     1      44.155 -20.838   2.540  1.00  0.00     0.055 A 
HETATM   28 CL   UNL     1      44.728 -22.230   1.692  1.00  0.00    -0.083 Cl
HETATM   29  C   UNL     1      43.447 -19.878   1.812  1.00  0.00     0.026 A 
HETATM   30  C   UNL     1      42.958 -18.730   2.442  1.00  0.00     0.011 A 
ENDBRANCH   6  23
TORSDOF 6
ENDMDL
MODEL 2
REMARK VINA RESULT:      -8.6      5.323      8.156
REMARK  6 active torsions:
REMARK  status: ('A' for Active; 'I' for Inactive)
REMARK    1  A    between atoms: O_2  and  C_3 
REMARK    2  A    between atoms: C_3  and  C_4 
REMARK    3  A    between atoms: C_4  and  N_5 
REMARK       I    between atoms: N_5  and  C_6 
REMARK    4  A    between atoms: C_6  and  C_7 
REMARK    5  A    between atoms: C_12  and  C_13 
REMARK    6  A    between atoms: C_22  and  C_23 
ROOT
HETATM    1  C   UNL     1      40.787 -14.890   0.313  1.00  0.00     0.148 A 
HETATM    2  N   UNL     1      40.656 -14.516   1.608  1.00  0.00    -0.165 NA
HETATM    3  N   UNL     1      41.655 -15.171   2.221  1.00  0.00    -0.240 N 
HETATM    4  C   UNL     1      42.362 -16.010   1.406  1.00  0.00     0.123 A 
HETATM    5  N   UNL     1      43.317 -16.828   1.895  1.00  0.00    -0.366 N 
HETATM    6  C   UNL     1      43.650 -16.873   3.316  1.00  0.00     0.118 C 
HETATM    7  C   UNL     1      42.466 -16.379   4.174  1.00  0.00     0.066 C 
HETATM    8  C   UNL     1      41.892 -15.053   3.646  1.00  0.00     0.221 C 
HETATM    9  C   UNL     1      41.860 -15.812   0.148  1.00  0.00     0.088 A 
HETATM   10  H   UNL     1      43.945 -17.334   1.270  1.00  0.00     0.161 HD
ENDROOT
BRANCH   1  11
HETATM   11  C   UNL     1      39.885 -14.401  -0.741  1.00  0.00     0.272 C 
HETATM   12  N   UNL     1      39.990 -15.099  -1.923  1.00  0.00    -0.354 N 
HETATM   13  H   UNL     1      40.759 -15.762  -1.973  1.00  0.00     0.162 HD
HETATM   14  O   UNL     1      39.131 -13.444  -0.583  1.00  0.00    -0.266 OA
BRANCH  12  15
HETATM   15  C   UNL     1      39.330 -14.672  -3.138  1.00  0.00     0.149 C 
BRANCH  15  16
HETATM   16  C   UNL     1      39.041 -15.837  -4.087  1.00  0.00     0.186 C 
BRANCH  16  17
HETATM   17  O   UNL     1      37.789 -15.609  -4.745  1.00  0.00    -0.394 OA
HETATM   18  C   UNL     1      36.967 -14.718  -4.002  1.00  0.00     0.201 C 
ENDBRANCH  16  17
ENDBRANCH  15  16
ENDBRANCH  12  15
ENDBRANCH   1  11
BRANCH   8  19
HETATM   19  C   UNL     1      42.804 -13.878   3.920  1.00  0.00     0.409 C 
HETATM   20  F   UNL     1      43.614 -14.082   4.980  1.00  0.00    -0.169 F 
HETATM   21  F   UNL     1      43.616 -13.671   2.848  1.00  0.00    -0.169 F 
HETATM   22  F   UNL     1      42.140 -12.721   4.124  1.00  0.00    -0.169 F 
ENDBRANCH   8  19
BRANCH   6  23
HETATM   23  C   UNL     1      44.025 -18.295   3.704  1.00  0.00    -0.034 A 
HETATM   24  C   UNL     1      44.075 -19.323   2.744  1.00  0.00     0.034 A 
HETATM   25  C   UNL     1      44.402 -20.634   3.105  1.00  0.00     0.056 A 
HETATM   26 CL   UNL     1      44.445 -21.827   1.856  1.00  0.00    -0.083 Cl
HETATM   27  C   UNL     1      44.677 -20.936   4.441  1.00  0.00     0.055 A 
HETATM   28 CL   UNL     1      45.085 -22.530   4.968  1.00  0.00    -0.083 Cl
HETATM   29  C   UNL     1      44.623 -19.926   5.406  1.00  0.00     0.026 A 
HETATM   30  C   UNL     1      44.300 -18.615   5.042  1.00  0.00     0.011 A 
ENDBRANCH   6  23
TORSDOF 6
ENDMDL
MODEL 3
REMARK VINA RESULT:      -8.1      2.622      3.526
REMARK  6 active torsions:
REMARK  status: ('A' for Active; 'I' for Inactive)
REMARK    1  A    between atoms: O_2  and  C_3 
REMARK    2  A    between atoms: C_3  and  C_4 
REMARK    3  A    between atoms: C_4  and  N_5 
REMARK       I    between atoms: N_5  and  C_6 
REMARK    4  A    between atoms: C_6  and  C_7 
REMARK    5  A    between atoms: C_12  and  C_13 
REMARK    6  A    between atoms: C_22  and  C_23 
ROOT
HETATM    1  C   UNL     1      40.680 -13.629   5.403  1.00  0.00     0.148 A 
HETATM    2  N   UNL     1      41.545 -13.372   4.393  1.00  0.00    -0.165 NA
HETATM    3  N   UNL     1      41.830 -14.592   3.912  1.00  0.00    -0.240 N 
HETATM    4  C   UNL     1      41.264 -15.619   4.613  1.00  0.00     0.123 A 
HETATM    5  N   UNL     1      41.551 -16.908   4.329  1.00  0.00    -0.366 N 
HETATM    6  C   UNL     1      42.481 -17.282   3.268  1.00  0.00     0.118 C 
HETATM    7  C   UNL     1      43.463 -16.131   2.967  1.00  0.00     0.066 C 
HETATM    8  C   UNL     1      42.735 -14.788   2.796  1.00  0.00     0.221 C 
HETATM    9  C   UNL     1      40.467 -15.029   5.556  1.00  0.00     0.088 A 
HETATM   10  H   UNL     1      41.013 -17.668   4.745  1.00  0.00     0.161 HD
ENDROOT
BRANCH   1  11
HETATM   11  C   UNL     1      40.094 -12.561   6.227  1.00  0.00     0.272 C 
HETATM   12  N   UNL     1      41.028 -11.830   6.928  1.00  0.00    -0.354 N 
HETATM   13  H   UNL     1      41.976 -12.196   6.905  1.00  0.00     0.162 HD
HETATM   14  O   UNL     1      38.885 -12.360   6.298  1.00  0.00    -0.266 OA
BRANCH  12  15
HETATM   15  C   UNL     1      40.657 -10.857   7.932  1.00  0.00     0.149 C 
BRANCH  15  16
HETATM   16  C   UNL     1      41.874 -10.202   8.589  1.00  0.00     0.186 C 
BRANCH  16  17
HETATM   17  O   UNL     1      43.038 -10.992   8.317  1.00  0.00    -0.394 OA
HETATM   18  C   UNL     1      43.833 -11.163   9.482  1.00  0.00     0.201 C 
ENDBRANCH  16  17
ENDBRANCH  15  16
ENDBRANCH  12  15
ENDBRANCH   1  11
BRANCH   8  19
HETATM   19  C   UNL     1      41.970 -14.705   1.494  1.00  0.00     0.409 C 
HETATM   20  F   UNL     1      42.404 -15.594   0.576  1.00  0.00    -0.169 F 
HETATM   21  F   UNL     1      40.658 -14.990   1.716  1.00  0.00    -0.169 F 
HETATM   22  F   UNL     1      42.002 -13.479   0.930  1.00  0.00    -0.169 F 
ENDBRANCH   8  19
BRANCH   6  23
HETATM   23  C   UNL     1      43.244 -18.532   3.679  1.00  0.00    -0.034 A 
HETATM   24  C   UNL     1      43.562 -19.532   2.741  1.00  0.00     0.034 A 
HETATM   25  C   UNL     1      44.247 -20.690   3.125  1.00  0.00     0.056 A 
HETATM   26 CL   UNL     1      44.599 -21.859   1.902  1.00  0.00    -0.083 Cl
HETATM   27  C   UNL     1      44.617 -20.866   4.460  1.00  0.00     0.055 A 
HETATM   28 CL   UNL     1      45.460 -22.269   5.013  1.00  0.00    -0.083 Cl
HETATM   29  C   UNL     1      44.300 -19.884   5.403  1.00  0.00     0.026 A 
HETATM   30  C   UNL     1      43.618 -18.725   5.017  1.00  0.00     0.011 A 
ENDBRANCH   6  23
TORSDOF 6
ENDMDL
MODEL 4
REMARK VINA RESULT:      -8.1      5.247      7.426
REMARK  6 active torsions:
REMARK  status: ('A' for Active; 'I' for Inactive)
REMARK    1  A    between atoms: O_2  and  C_3 
REMARK    2  A    between atoms: C_3  and  C_4 
REMARK    3  A    between atoms: C_4  and  N_5 
REMARK       I    between atoms: N_5  and  C_6 
REMARK    4  A    between atoms: C_6  and  C_7 
REMARK    5  A    between atoms: C_12  and  C_13 
REMARK    6  A    between atoms: C_22  and  C_23 
ROOT
HETATM    1  C   UNL     1      40.982 -15.240   0.194  1.00  0.00     0.148 A 
HETATM    2  N   UNL     1      40.226 -15.305   1.316  1.00  0.00    -0.165 NA
HETATM    3  N   UNL     1      41.055 -15.856   2.217  1.00  0.00    -0.240 N 
HETATM    4  C   UNL     1      42.269 -16.227   1.710  1.00  0.00     0.123 A 
HETATM    5  N   UNL     1      43.167 -16.903   2.458  1.00  0.00    -0.366 N 
HETATM    6  C   UNL     1      42.897 -17.284   3.841  1.00  0.00     0.118 C 
HETATM    7  C   UNL     1      41.380 -17.357   4.106  1.00  0.00     0.066 C 
HETATM    8  C   UNL     1      40.647 -16.110   3.584  1.00  0.00     0.221 C 
HETATM    9  C   UNL     1      42.277 -15.793   0.412  1.00  0.00     0.088 A 
HETATM   10  H   UNL     1      44.124 -17.040   2.131  1.00  0.00     0.161 HD
ENDROOT
BRANCH   1  11
HETATM   11  C   UNL     1      40.468 -14.690  -1.069  1.00  0.00     0.272 C 
HETATM   12  N   UNL     1      41.334 -14.843  -2.129  1.00  0.00    -0.354 N 
HETATM   13  H   UNL     1      42.262 -15.182  -1.890  1.00  0.00     0.162 HD
HETATM   14  O   UNL     1      39.381 -14.127  -1.159  1.00  0.00    -0.266 OA
BRANCH  12  15
HETATM   15  C   UNL     1      41.107 -14.217  -3.414  1.00  0.00     0.149 C 
BRANCH  15  16
HETATM   16  C   UNL     1      41.525 -12.746  -3.430  1.00  0.00     0.186 C 
BRANCH  16  17
HETATM   17  O   UNL     1      42.777 -12.604  -2.747  1.00  0.00    -0.394 OA
HETATM   18  C   UNL     1      42.845 -11.373  -2.040  1.00  0.00     0.201 C 
ENDBRANCH  16  17
ENDBRANCH  15  16
ENDBRANCH  12  15
ENDBRANCH   1  11
BRANCH   8  19
HETATM   19  C   UNL     1      40.910 -14.886   4.434  1.00  0.00     0.409 C 
HETATM   20  F   UNL     1      42.034 -14.231   4.072  1.00  0.00    -0.169 F 
HETATM   21  F   UNL     1      39.886 -14.002   4.290  1.00  0.00    -0.169 F 
HETATM   22  F   UNL     1      40.996 -15.158   5.753  1.00  0.00    -0.169 F 
ENDBRANCH   8  19
BRANCH   6  23
HETATM   23  C   UNL     1      43.550 -18.626   4.134  1.00  0.00    -0.034 A 
HETATM   24  C   UNL     1      43.826 -19.542   3.101  1.00  0.00     0.034 A 
HETATM   25  C   UNL     1      44.409 -20.784   3.374  1.00  0.00     0.056 A 
HETATM   26 CL   UNL     1      44.717 -21.839   2.041  1.00  0.00    -0.083 Cl
HETATM   27  C   UNL     1      44.716 -21.131   4.692  1.00  0.00     0.055 A 
HETATM   28 CL   UNL     1      45.432 -22.646   5.111  1.00  0.00    -0.083 Cl
HETATM   29  C   UNL     1      44.439 -20.234   5.728  1.00  0.00     0.026 A 
HETATM   30  C   UNL     1      43.860 -18.991   5.452  1.00  0.00     0.011 A 
ENDBRANCH   6  23
TORSDOF 6
ENDMDL
MODEL 5
REMARK VINA RESULT:      -8.0      4.286      5.648
REMARK  6 active torsions:
REMARK  status: ('A' for Active; 'I' for Inactive)
REMARK    1  A    between atoms: O_2  and  C_3 
REMARK    2  A    between atoms: C_3  and  C_4 
REMARK    3  A    between atoms: C_4  and  N_5 
REMARK       I    between atoms: N_5  and  C_6 
REMARK    4  A    between atoms: C_6  and  C_7 
REMARK    5  A    between atoms: C_12  and  C_13 
REMARK    6  A    between atoms: C_22  and  C_23 
ROOT
HETATM    1  C   UNL     1      43.482 -15.283   5.824  1.00  0.00     0.148 A 
HETATM    2  N   UNL     1      42.944 -16.500   5.573  1.00  0.00    -0.165 NA
HETATM    3  N   UNL     1      42.668 -16.452   4.260  1.00  0.00    -0.240 N 
HETATM    4  C   UNL     1      42.919 -15.241   3.677  1.00  0.00     0.123 A 
HETATM    5  N   UNL     1      42.582 -14.995   2.394  1.00  0.00    -0.366 N 
HETATM    6  C   UNL     1      41.928 -15.996   1.555  1.00  0.00     0.118 C 
HETATM    7  C   UNL     1      41.187 -17.037   2.418  1.00  0.00     0.066 C 
HETATM    8  C   UNL     1      42.073 -17.571   3.557  1.00  0.00     0.221 C 
HETATM    9  C   UNL     1      43.498 -14.474   4.652  1.00  0.00     0.088 A 
HETATM   10  H   UNL     1      42.909 -14.153   1.918  1.00  0.00     0.161 HD
ENDROOT
BRANCH   1  11
HETATM   11  C   UNL     1      43.941 -14.888   7.164  1.00  0.00     0.272 C 
HETATM   12  N   UNL     1      44.295 -13.560   7.256  1.00  0.00    -0.354 N 
HETATM   13  H   UNL     1      44.331 -13.055   6.375  1.00  0.00     0.162 HD
HETATM   14  O   UNL     1      44.023 -15.677   8.101  1.00  0.00    -0.266 OA
BRANCH  12  15
HETATM   15  C   UNL     1      44.941 -13.008   8.427  1.00  0.00     0.149 C 
BRANCH  15  16
HETATM   16  C   UNL     1      46.250 -12.291   8.089  1.00  0.00     0.186 C 
BRANCH  16  17
HETATM   17  O   UNL     1      46.281 -11.026   8.761  1.00  0.00    -0.394 OA
HETATM   18  C   UNL     1      45.434 -11.024   9.902  1.00  0.00     0.201 C 
ENDBRANCH  16  17
ENDBRANCH  15  16
ENDBRANCH  12  15
ENDBRANCH   1  11
BRANCH   8  19
HETATM   19  C   UNL     1      43.157 -18.501   3.060  1.00  0.00     0.409 C 
HETATM   20  F   UNL     1      43.531 -19.408   3.987  1.00  0.00    -0.169 F 
HETATM   21  F   UNL     1      42.698 -19.208   1.992  1.00  0.00    -0.169 F 
HETATM   22  F   UNL     1      44.266 -17.856   2.641  1.00  0.00    -0.169 F 
ENDBRANCH   8  19
BRANCH   6  23
HETATM   23  C   UNL     1      40.957 -15.308   0.608  1.00  0.00    -0.034 A 
HETATM   24  C   UNL     1      41.193 -15.274  -0.779  1.00  0.00     0.034 A 
HETATM   25  C   UNL     1      40.309 -14.625  -1.647  1.00  0.00     0.056 A 
HETATM   26 CL   UNL     1      40.679 -14.642  -3.335  1.00  0.00    -0.083 Cl
HETATM   27  C   UNL     1      39.175 -13.991  -1.134  1.00  0.00     0.055 A 
HETATM   28 CL   UNL     1      38.038 -13.165  -2.138  1.00  0.00    -0.083 Cl
HETATM   29  C   UNL     1      38.933 -14.011   0.243  1.00  0.00     0.026 A 
HETATM   30  C   UNL     1      39.816 -14.663   1.108  1.00  0.00     0.011 A 
ENDBRANCH   6  23
TORSDOF 6
ENDMDL
MODEL 6
REMARK VINA RESULT:      -8.0      5.047      7.822
REMARK  6 active torsions:
REMARK  status: ('A' for Active; 'I' for Inactive)
REMARK    1  A    between atoms: O_2  and  C_3 
REMARK    2  A    between atoms: C_3  and  C_4 
REMARK    3  A    between atoms: C_4  and  N_5 
REMARK       I    between atoms: N_5  and  C_6 
REMARK    4  A    between atoms: C_6  and  C_7 
REMARK    5  A    between atoms: C_12  and  C_13 
REMARK    6  A    between atoms: C_22  and  C_23 
ROOT
HETATM    1  C   UNL     1      39.997 -14.680   1.210  1.00  0.00     0.148 A 
HETATM    2  N   UNL     1      40.297 -14.245   2.456  1.00  0.00    -0.165 NA
HETATM    3  N   UNL     1      41.377 -14.971   2.786  1.00  0.00    -0.240 N 
HETATM    4  C   UNL     1      41.731 -15.907   1.855  1.00  0.00     0.123 A 
HETATM    5  N   UNL     1      42.719 -16.796   2.091  1.00  0.00    -0.366 N 
HETATM    6  C   UNL     1      43.461 -16.819   3.348  1.00  0.00     0.118 C 
HETATM    7  C   UNL     1      42.639 -16.177   4.484  1.00  0.00     0.066 C 
HETATM    8  C   UNL     1      42.044 -14.822   4.064  1.00  0.00     0.221 C 
HETATM    9  C   UNL     1      40.889 -15.710   0.794  1.00  0.00     0.088 A 
HETATM   10  H   UNL     1      43.083 -17.386   1.342  1.00  0.00     0.161 HD
ENDROOT
BRANCH   1  11
HETATM   11  C   UNL     1      38.862 -14.145   0.442  1.00  0.00     0.272 C 
HETATM   12  N   UNL     1      38.953 -14.380  -0.911  1.00  0.00    -0.354 N 
HETATM   13  H   UNL     1      39.840 -14.760  -1.231  1.00  0.00     0.162 HD
HETATM   14  O   UNL     1      37.937 -13.527   0.962  1.00  0.00    -0.266 OA
BRANCH  12  15
HETATM   15  C   UNL     1      38.041 -13.786  -1.865  1.00  0.00     0.149 C 
BRANCH  15  16
HETATM   16  C   UNL     1      38.377 -14.165  -3.309  1.00  0.00     0.186 C 
BRANCH  16  17
HETATM   17  O   UNL     1      37.920 -15.499  -3.564  1.00  0.00    -0.394 OA
HETATM   18  C   UNL     1      38.927 -16.281  -4.192  1.00  0.00     0.201 C 
ENDBRANCH  16  17
ENDBRANCH  15  16
ENDBRANCH  12  15
ENDBRANCH   1  11
BRANCH   8  19
HETATM   19  C   UNL     1      43.090 -13.733   3.974  1.00  0.00     0.409 C 
HETATM   20  F   UNL     1      44.145 -13.954   4.786  1.00  0.00    -0.169 F 
HETATM   21  F   UNL     1      43.583 -13.677   2.707  1.00  0.00    -0.169 F 
HETATM   22  F   UNL     1      42.607 -12.503   4.249  1.00  0.00    -0.169 F 
ENDBRANCH   8  19
BRANCH   6  23
HETATM   23  C   UNL     1      43.818 -18.254   3.701  1.00  0.00    -0.034 A 
HETATM   24  C   UNL     1      43.729 -18.722   5.026  1.00  0.00     0.034 A 
HETATM   25  C   UNL     1      44.075 -20.037   5.353  1.00  0.00     0.056 A 
HETATM   26 CL   UNL     1      43.926 -20.522   7.004  1.00  0.00    -0.083 Cl
HETATM   27  C   UNL     1      44.525 -20.904   4.353  1.00  0.00     0.055 A 
HETATM   28 CL   UNL     1      44.975 -22.540   4.677  1.00  0.00    -0.083 Cl
HETATM   29  C   UNL     1      44.625 -20.449   3.035  1.00  0.00     0.026 A 
HETATM   30  C   UNL     1      44.275 -19.135   2.710  1.00  0.00     0.011 A 
ENDBRANCH   6  23
TORSDOF 6
ENDMDL
MODEL 7
REMARK VINA RESULT:      -8.0      4.471      5.723
REMARK  6 active torsions:
REMARK  status: ('A' for Active; 'I' for Inactive)
REMARK    1  A    between atoms: O_2  and  C_3 
REMARK    2  A    between atoms: C_3  and  C_4 
REMARK    3  A    between atoms: C_4  and  N_5 
REMARK       I    between atoms: N_5  and  C_6 
REMARK    4  A    between atoms: C_6  and  C_7 
REMARK    5  A    between atoms: C_12  and  C_13 
REMARK    6  A    between atoms: C_22  and  C_23 
ROOT
HETATM    1  C   UNL     1      43.468 -15.271   5.690  1.00  0.00     0.148 A 
HETATM    2  N   UNL     1      42.939 -16.487   5.416  1.00  0.00    -0.165 NA
HETATM    3  N   UNL     1      42.650 -16.412   4.107  1.00  0.00    -0.240 N 
HETATM    4  C   UNL     1      42.884 -15.187   3.550  1.00  0.00     0.123 A 
HETATM    5  N   UNL     1      42.533 -14.914   2.275  1.00  0.00    -0.366 N 
HETATM    6  C   UNL     1      41.880 -15.902   1.420  1.00  0.00     0.118 C 
HETATM    7  C   UNL     1      41.156 -16.970   2.267  1.00  0.00     0.066 C 
HETATM    8  C   UNL     1      42.058 -17.520   3.384  1.00  0.00     0.221 C 
HETATM    9  C   UNL     1      43.466 -14.436   4.535  1.00  0.00     0.088 A 
HETATM   10  H   UNL     1      42.847 -14.059   1.816  1.00  0.00     0.161 HD
ENDROOT
BRANCH   1  11
HETATM   11  C   UNL     1      43.937 -14.902   7.034  1.00  0.00     0.272 C 
HETATM   12  N   UNL     1      44.206 -13.559   7.174  1.00  0.00    -0.354 N 
HETATM   13  H   UNL     1      44.186 -13.017   6.314  1.00  0.00     0.162 HD
HETATM   14  O   UNL     1      44.095 -15.722   7.934  1.00  0.00    -0.266 OA
BRANCH  12  15
HETATM   15  C   UNL     1      44.847 -13.014   8.351  1.00  0.00     0.149 C 
BRANCH  15  16
HETATM   16  C   UNL     1      46.218 -12.409   8.044  1.00  0.00     0.186 C 
BRANCH  16  17
HETATM   17  O   UNL     1      46.316 -11.123   8.667  1.00  0.00    -0.394 OA
HETATM   18  C   UNL     1      45.421 -11.009   9.765  1.00  0.00     0.201 C 
ENDBRANCH  16  17
ENDBRANCH  15  16
ENDBRANCH  12  15
ENDBRANCH   1  11
BRANCH   8  19
HETATM   19  C   UNL     1      43.146 -18.429   2.857  1.00  0.00     0.409 C 
HETATM   20  F   UNL     1      43.489 -19.396   3.734  1.00  0.00    -0.169 F 
HETATM   21  F   UNL     1      42.707 -19.063   1.736  1.00  0.00    -0.169 F 
HETATM   22  F   UNL     1      44.270 -17.771   2.506  1.00  0.00    -0.169 F 
ENDBRANCH   8  19
BRANCH   6  23
HETATM   23  C   UNL     1      40.893 -15.202   0.499  1.00  0.00    -0.034 A 
HETATM   24  C   UNL     1      39.680 -14.682   0.990  1.00  0.00     0.034 A 
HETATM   25  C   UNL     1      38.765 -14.055   0.138  1.00  0.00     0.056 A 
HETATM   26 CL   UNL     1      37.308 -13.441   0.834  1.00  0.00    -0.083 Cl
HETATM   27  C   UNL     1      39.049 -13.947  -1.225  1.00  0.00     0.055 A 
HETATM   28 CL   UNL     1      37.970 -13.192  -2.342  1.00  0.00    -0.083 Cl
HETATM   29  C   UNL     1      40.246 -14.467  -1.727  1.00  0.00     0.026 A 
HETATM   30  C   UNL     1      41.161 -15.090  -0.873  1.00  0.00     0.011 A 
ENDBRANCH   6  23
TORSDOF 6
ENDMDL
MODEL 8
REMARK VINA RESULT:      -7.8      6.202      8.751
REMARK  6 active torsions:
REMARK  status: ('A' for Active; 'I' for Inactive)
REMARK    1  A    between atoms: O_2  and  C_3 
REMARK    2  A    between atoms: C_3  and  C_4 
REMARK    3  A    between atoms: C_4  and  N_5 
REMARK       I    between atoms: N_5  and  C_6 
REMARK    4  A    between atoms: C_6  and  C_7 
REMARK    5  A    between atoms: C_12  and  C_13 
REMARK    6  A    between atoms: C_22  and  C_23 
ROOT
HETATM    1  C   UNL     1      43.048 -17.344   2.576  1.00  0.00     0.148 A 
HETATM    2  N   UNL     1      42.495 -16.288   3.219  1.00  0.00    -0.165 NA
HETATM    3  N   UNL     1      41.937 -15.578   2.226  1.00  0.00    -0.240 N 
HETATM    4  C   UNL     1      42.177 -16.075   0.976  1.00  0.00     0.123 A 
HETATM    5  N   UNL     1      41.788 -15.412  -0.133  1.00  0.00    -0.366 N 
HETATM    6  C   UNL     1      41.097 -14.127  -0.068  1.00  0.00     0.118 C 
HETATM    7  C   UNL     1      41.397 -13.408   1.263  1.00  0.00     0.066 C 
HETATM    8  C   UNL     1      41.220 -14.343   2.471  1.00  0.00     0.221 C 
HETATM    9  C   UNL     1      42.850 -17.252   1.169  1.00  0.00     0.088 A 
HETATM   10  H   UNL     1      41.828 -15.855  -1.051  1.00  0.00     0.161 HD
ENDROOT
BRANCH   1  11
HETATM   11  C   UNL     1      43.778 -18.403   3.289  1.00  0.00     0.272 C 
HETATM   12  N   UNL     1      44.323 -19.353   2.454  1.00  0.00    -0.354 N 
HETATM   13  H   UNL     1      44.044 -19.290   1.478  1.00  0.00     0.162 HD
HETATM   14  O   UNL     1      43.867 -18.445   4.512  1.00  0.00    -0.266 OA
BRANCH  12  15
HETATM   15  C   UNL     1      44.922 -20.572   2.952  1.00  0.00     0.149 C 
BRANCH  15  16
HETATM   16  C   UNL     1      44.241 -21.827   2.401  1.00  0.00     0.186 C 
BRANCH  16  17
HETATM   17  O   UNL     1      44.612 -22.955   3.203  1.00  0.00    -0.394 OA
HETATM   18  C   UNL     1      44.707 -22.606   4.577  1.00  0.00     0.201 C 
ENDBRANCH  16  17
ENDBRANCH  15  16
ENDBRANCH  12  15
ENDBRANCH   1  11
BRANCH   8  19
HETATM   19  C   UNL     1      39.766 -14.642   2.763  1.00  0.00     0.409 C 
HETATM   20  F   UNL     1      39.327 -15.756   2.139  1.00  0.00    -0.169 F 
HETATM   21  F   UNL     1      39.603 -14.857   4.096  1.00  0.00    -0.169 F 
HETATM   22  F   UNL     1      38.934 -13.631   2.436  1.00  0.00    -0.169 F 
ENDBRANCH   8  19
BRANCH   6  23
HETATM   23  C   UNL     1      41.523 -13.261  -1.244  1.00  0.00    -0.034 A 
HETATM   24  C   UNL     1      42.293 -12.099  -1.050  1.00  0.00     0.034 A 
HETATM   25  C   UNL     1      42.669 -11.293  -2.130  1.00  0.00     0.056 A 
HETATM   26 CL   UNL     1      43.620  -9.890  -1.795  1.00  0.00    -0.083 Cl
HETATM   27  C   UNL     1      42.270 -11.638  -3.424  1.00  0.00     0.055 A 
HETATM   28 CL   UNL     1      42.690 -10.694  -4.808  1.00  0.00    -0.083 Cl
HETATM   29  C   UNL     1      41.499 -12.786  -3.628  1.00  0.00     0.026 A 
HETATM   30  C   UNL     1      41.127 -13.592  -2.548  1.00  0.00     0.011 A 
ENDBRANCH   6  23
TORSDOF 6
ENDMDL
MODEL 9
REMARK VINA RESULT:      -7.8      5.209      7.281
REMARK  6 active torsions:
REMARK  status: ('A' for Active; 'I' for Inactive)
REMARK    1  A    between atoms: O_2  and  C_3 
REMARK    2  A    between atoms: C_3  and  C_4 
REMARK    3  A    between atoms: C_4  and  N_5 
REMARK       I    between atoms: N_5  and  C_6 
REMARK    4  A    between atoms: C_6  and  C_7 
REMARK    5  A    between atoms: C_12  and  C_13 
REMARK    6  A    between atoms: C_22  and  C_23 
ROOT
HETATM    1  C   UNL     1      40.938 -15.159   0.011  1.00  0.00     0.148 A 
HETATM    2  N   UNL     1      40.645 -14.813   1.287  1.00  0.00    -0.165 NA
HETATM    3  N   UNL     1      41.610 -15.413   2.001  1.00  0.00    -0.240 N 
HETATM    4  C   UNL     1      42.453 -16.195   1.261  1.00  0.00     0.123 A 
HETATM    5  N   UNL     1      43.400 -16.959   1.845  1.00  0.00    -0.366 N 
HETATM    6  C   UNL     1      43.579 -17.003   3.294  1.00  0.00     0.118 C 
HETATM    7  C   UNL     1      42.280 -16.596   4.021  1.00  0.00     0.066 C 
HETATM    8  C   UNL     1      41.684 -15.301   3.444  1.00  0.00     0.221 C 
HETATM    9  C   UNL     1      42.079 -16.011  -0.043  1.00  0.00     0.088 A 
HETATM   10  H   UNL     1      44.123 -17.415   1.289  1.00  0.00     0.161 HD
ENDROOT
BRANCH   1  11
HETATM   11  C   UNL     1      40.127 -14.712  -1.131  1.00  0.00     0.272 C 
HETATM   12  N   UNL     1      38.963 -14.075  -0.764  1.00  0.00    -0.354 N 
HETATM   13  H   UNL     1      38.737 -14.112   0.227  1.00  0.00     0.162 HD
HETATM   14  O   UNL     1      40.449 -14.914  -2.298  1.00  0.00    -0.266 OA
BRANCH  12  15
HETATM   15  C   UNL     1      37.937 -13.718  -1.720  1.00  0.00     0.149 C 
BRANCH  15  16
HETATM   16  C   UNL     1      37.451 -12.278  -1.547  1.00  0.00     0.186 C 
BRANCH  16  17
HETATM   17  O   UNL     1      37.675 -11.865  -0.194  1.00  0.00    -0.394 OA
HETATM   18  C   UNL     1      36.452 -11.738   0.519  1.00  0.00     0.201 C 
ENDBRANCH  16  17
ENDBRANCH  15  16
ENDBRANCH  12  15
ENDBRANCH   1  11
BRANCH   8  19
HETATM   19  C   UNL     1      42.484 -14.075   3.824  1.00  0.00     0.409 C 
HETATM   20  F   UNL     1      43.370 -13.714   2.871  1.00  0.00    -0.169 F 
HETATM   21  F   UNL     1      41.646 -13.017   3.992  1.00  0.00    -0.169 F 
HETATM   22  F   UNL     1      43.160 -14.214   4.984  1.00  0.00    -0.169 F 
ENDBRANCH   8  19
BRANCH   6  23
HETATM   23  C   UNL     1      43.999 -18.404   3.710  1.00  0.00    -0.034 A 
HETATM   24  C   UNL     1      44.079 -19.450   2.771  1.00  0.00     0.034 A 
HETATM   25  C   UNL     1      44.448 -20.742   3.159  1.00  0.00     0.056 A 
HETATM   26 CL   UNL     1      44.525 -21.958   1.934  1.00  0.00    -0.083 Cl
HETATM   27  C   UNL     1      44.735 -21.008   4.500  1.00  0.00     0.055 A 
HETATM   28 CL   UNL     1      45.193 -22.577   5.058  1.00  0.00    -0.083 Cl
HETATM   29  C   UNL     1      44.652 -19.980   5.444  1.00  0.00     0.026 A 
HETATM   30  C   UNL     1      44.287 -18.688   5.053  1.00  0.00     0.011 A 
ENDBRANCH   6  23
TORSDOF 6
ENDMDL
MODEL 10
REMARK VINA RESULT:      -7.7      3.581      4.343
REMARK  6 active torsions:
REMARK  status: ('A' for Active; 'I' for Inactive)
REMARK    1  A    between atoms: O_2  and  C_3 
REMARK    2  A    between atoms: C_3  and  C_4 
REMARK    3  A    between atoms: C_4  and  N_5 
REMARK       I    between atoms: N_5  and  C_6 
REMARK    4  A    between atoms: C_6  and  C_7 
REMARK    5  A    between atoms: C_12  and  C_13 
REMARK    6  A    between atoms: C_22  and  C_23 
ROOT
HETATM    1  C   UNL     1      40.393 -13.394   4.263  1.00  0.00     0.148 A 
HETATM    2  N   UNL     1      41.134 -13.303   3.134  1.00  0.00    -0.165 NA
HETATM    3  N   UNL     1      41.412 -14.584   2.842  1.00  0.00    -0.240 N 
HETATM    4  C   UNL     1      40.965 -15.482   3.770  1.00  0.00     0.123 A 
HETATM    5  N   UNL     1      41.269 -16.794   3.684  1.00  0.00    -0.366 N 
HETATM    6  C   UNL     1      42.094 -17.332   2.606  1.00  0.00     0.118 C 
HETATM    7  C   UNL     1      42.993 -16.234   2.001  1.00  0.00     0.066 C 
HETATM    8  C   UNL     1      42.199 -14.956   1.683  1.00  0.00     0.221 C 
HETATM    9  C   UNL     1      40.251 -14.749   4.680  1.00  0.00     0.088 A 
HETATM   10  H   UNL     1      40.808 -17.479   4.283  1.00  0.00     0.161 HD
ENDROOT
BRANCH   1  11
HETATM   11  C   UNL     1      39.858 -12.209   4.950  1.00  0.00     0.272 C 
HETATM   12  N   UNL     1      40.689 -11.113   4.885  1.00  0.00    -0.354 N 
HETATM   13  H   UNL     1      41.615 -11.288   4.503  1.00  0.00     0.162 HD
HETATM   14  O   UNL     1      38.783 -12.210   5.544  1.00  0.00    -0.266 OA
BRANCH  12  15
HETATM   15  C   UNL     1      40.442  -9.905   5.643  1.00  0.00     0.149 C 
BRANCH  15  16
HETATM   16  C   UNL     1      41.604  -8.914   5.559  1.00  0.00     0.186 C 
BRANCH  16  17
HETATM   17  O   UNL     1      41.893  -8.415   6.871  1.00  0.00    -0.394 OA
HETATM   18  C   UNL     1      41.458  -9.320   7.877  1.00  0.00     0.201 C 
ENDBRANCH  16  17
ENDBRANCH  15  16
ENDBRANCH  12  15
ENDBRANCH   1  11
BRANCH   8  19
HETATM   19  C   UNL     1      41.295 -15.119   0.480  1.00  0.00     0.409 C 
HETATM   20  F   UNL     1      39.991 -15.213   0.816  1.00  0.00    -0.169 F 
HETATM   21  F   UNL     1      41.408 -14.030  -0.327  1.00  0.00    -0.169 F 
HETATM   22  F   UNL     1      41.604 -16.190  -0.281  1.00  0.00    -0.169 F 
ENDBRANCH   8  19
BRANCH   6  23
HETATM   23  C   UNL     1      42.944 -18.475   3.139  1.00  0.00    -0.034 A 
HETATM   24  C   UNL     1      43.289 -19.569   2.323  1.00  0.00     0.034 A 
HETATM   25  C   UNL     1      44.055 -20.628   2.820  1.00  0.00     0.056 A 
HETATM   26 CL   UNL     1      44.434 -21.923   1.742  1.00  0.00    -0.083 Cl
HETATM   27  C   UNL     1      44.481 -20.610   4.151  1.00  0.00     0.055 A 
HETATM   28 CL   UNL     1      45.425 -21.882   4.841  1.00  0.00    -0.083 Cl
HETATM   29  C   UNL     1      44.138 -19.533   4.974  1.00  0.00     0.026 A 
HETATM   30  C   UNL     1      43.376 -18.474   4.473  1.00  0.00     0.011 A 
ENDBRANCH   6  23
TORSDOF 6
ENDMDL
