MODEL 1
REMARK VINA RESULT:      -8.7      0.000      0.000
REMARK  4 active torsions:
REMARK  status: ('A' for Active; 'I' for Inactive)
REMARK    1  A    between atoms: C_5  and  C_6 
REMARK    2  A    between atoms: C_6  and  N_7 
REMARK    3  A    between atoms: C_6  and  C_18 
REMARK    4  A    between atoms: N_7  and  C_8 
ROOT
HETATM    1  C   UNL     1      42.975 -17.800   2.832  1.00  0.00     0.288 C 
ENDROOT
BRANCH   1   2
HETATM    2  C   UNL     1      42.611 -17.247   4.200  1.00  0.00    -0.003 A 
HETATM    3  C   UNL     1      43.315 -16.219   4.822  1.00  0.00     0.126 A 
HETATM    4  N   UNL     1      43.025 -15.718   6.043  1.00  0.00    -0.272 NA
HETATM    5  C   UNL     1      41.944 -16.226   6.670  1.00  0.00     0.116 A 
HETATM    6  C   UNL     1      41.153 -17.228   6.135  1.00  0.00     0.020 A 
HETATM    7  C   UNL     1      41.494 -17.743   4.887  1.00  0.00     0.012 A 
ENDBRANCH   1   2
BRANCH   1   8
HETATM    8  N   UNL     1      41.905 -17.743   1.817  1.00  0.00     0.101 N 
HETATM    9  H   UNL     1      41.127 -18.321   2.135  1.00  0.00     0.317 HD
BRANCH   8  10
HETATM   10  C   UNL     1      41.465 -16.418   1.376  1.00  0.00     0.225 C 
HETATM   11  C   UNL     1      41.499 -16.263  -0.159  1.00  0.00     0.069 C 
HETATM   12  C   UNL     1      40.901 -14.924  -0.551  1.00  0.00     0.190 C 
HETATM   13  N   UNL     1      39.488 -14.859  -0.042  1.00  0.00    -0.067 N 
HETATM   14  C   UNL     1      40.695 -14.666  -2.030  1.00  0.00     0.035 C 
HETATM   15  H   UNL     1      38.987 -15.693  -0.385  1.00  0.00     0.280 HD
HETATM   16  C   UNL     1      39.419 -14.884   1.450  1.00  0.00     0.237 C 
HETATM   17  C   UNL     1      38.862 -13.679  -0.739  1.00  0.00     0.235 C 
HETATM   18  C   UNL     1      40.036 -16.197   1.924  1.00  0.00     0.063 C 
HETATM   19  C   UNL     1      39.659 -13.542  -2.037  1.00  0.00     0.030 C 
ENDBRANCH   8  10
ENDBRANCH   1   8
BRANCH   1  20
HETATM   20  C   UNL     1      43.536 -19.223   2.877  1.00  0.00    -0.021 A 
HETATM   21  C   UNL     1      43.185 -20.134   1.862  1.00  0.00     0.012 A 
HETATM   22  C   UNL     1      43.656 -21.448   1.884  1.00  0.00     0.043 A 
HETATM   23  C   UNL     1      44.473 -21.865   2.924  1.00  0.00     0.116 A 
HETATM   24  F   UNL     1      44.923 -23.126   2.947  1.00  0.00    -0.206 F 
HETATM   25  C   UNL     1      44.826 -20.994   3.947  1.00  0.00     0.043 A 
HETATM   26  C   UNL     1      44.355 -19.679   3.928  1.00  0.00     0.012 A 
ENDBRANCH   1  20
TORSDOF 4
ENDMDL
MODEL 2
REMARK VINA RESULT:      -8.5      0.576      1.390
REMARK  4 active torsions:
REMARK  status: ('A' for Active; 'I' for Inactive)
REMARK    1  A    between atoms: C_5  and  C_6 
REMARK    2  A    between atoms: C_6  and  N_7 
REMARK    3  A    between atoms: C_6  and  C_18 
REMARK    4  A    between atoms: N_7  and  C_8 
ROOT
HETATM    1  C   UNL     1      42.901 -17.865   2.805  1.00  0.00     0.288 C 
ENDROOT
BRANCH   1   2
HETATM    2  C   UNL     1      42.555 -17.310   4.176  1.00  0.00    -0.003 A 
HETATM    3  C   UNL     1      41.426 -17.696   4.895  1.00  0.00     0.126 A 
HETATM    4  N   UNL     1      41.084 -17.207   6.108  1.00  0.00    -0.272 NA
HETATM    5  C   UNL     1      41.931 -16.321   6.670  1.00  0.00     0.116 A 
HETATM    6  C   UNL     1      43.097 -15.888   6.063  1.00  0.00     0.020 A 
HETATM    7  C   UNL     1      43.409 -16.390   4.801  1.00  0.00     0.012 A 
ENDBRANCH   1   2
BRANCH   1   8
HETATM    8  N   UNL     1      41.831 -17.774   1.792  1.00  0.00     0.101 N 
HETATM    9  H   UNL     1      41.025 -18.304   2.125  1.00  0.00     0.317 HD
BRANCH   8  10
HETATM   10  C   UNL     1      41.459 -16.437   1.324  1.00  0.00     0.225 C 
HETATM   11  C   UNL     1      41.476 -16.323  -0.214  1.00  0.00     0.069 C 
HETATM   12  C   UNL     1      40.947 -14.963  -0.632  1.00  0.00     0.190 C 
HETATM   13  N   UNL     1      39.549 -14.805  -0.103  1.00  0.00    -0.067 N 
HETATM   14  C   UNL     1      40.732 -14.730  -2.113  1.00  0.00     0.035 C 
HETATM   15  H   UNL     1      38.997 -15.618  -0.417  1.00  0.00     0.280 HD
HETATM   16  C   UNL     1      39.504 -14.790   1.390  1.00  0.00     0.237 C 
HETATM   17  C   UNL     1      38.979 -13.609  -0.821  1.00  0.00     0.235 C 
HETATM   18  C   UNL     1      40.053 -16.123   1.888  1.00  0.00     0.063 C 
HETATM   19  C   UNL     1      39.761 -13.550  -2.134  1.00  0.00     0.030 C 
ENDBRANCH   8  10
ENDBRANCH   1   8
BRANCH   1  20
HETATM   20  C   UNL     1      43.425 -19.303   2.840  1.00  0.00    -0.021 A 
HETATM   21  C   UNL     1      44.283 -19.697   3.886  1.00  0.00     0.012 A 
HETATM   22  C   UNL     1      44.801 -20.993   3.936  1.00  0.00     0.043 A 
HETATM   23  C   UNL     1      44.476 -21.900   2.939  1.00  0.00     0.116 A 
HETATM   24  F   UNL     1      44.975 -23.141   2.986  1.00  0.00    -0.206 F 
HETATM   25  C   UNL     1      43.644 -21.536   1.889  1.00  0.00     0.043 A 
HETATM   26  C   UNL     1      43.123 -20.241   1.835  1.00  0.00     0.012 A 
ENDBRANCH   1  20
TORSDOF 4
ENDMDL
MODEL 3
REMARK VINA RESULT:      -8.4      2.687      4.695
REMARK  4 active torsions:
REMARK  status: ('A' for Active; 'I' for Inactive)
REMARK    1  A    between atoms: C_5  and  C_6 
REMARK    2  A    between atoms: C_6  and  N_7 
REMARK    3  A    between atoms: C_6  and  C_18 
REMARK    4  A    between atoms: N_7  and  C_8 
ROOT
HETATM    1  C   UNL     1      43.309 -18.316   3.488  1.00  0.00     0.288 C 
ENDROOT
BRANCH   1   2
HETATM    2  C   UNL     1      43.749 -19.742   3.200  1.00  0.00    -0.003 A 
HETATM    3  C   UNL     1      44.394 -20.548   4.136  1.00  0.00     0.126 A 
HETATM    4  N   UNL     1      44.811 -21.812   3.904  1.00  0.00    -0.272 NA
HETATM    5  C   UNL     1      44.532 -22.333   2.691  1.00  0.00     0.116 A 
HETATM    6  C   UNL     1      43.870 -21.637   1.695  1.00  0.00     0.020 A 
HETATM    7  C   UNL     1      43.477 -20.327   1.955  1.00  0.00     0.012 A 
ENDBRANCH   1   2
BRANCH   1   8
HETATM    8  N   UNL     1      44.002 -17.268   2.713  1.00  0.00     0.101 N 
HETATM    9  H   UNL     1      44.565 -17.719   1.991  1.00  0.00     0.317 HD
BRANCH   8  10
HETATM   10  C   UNL     1      43.186 -16.177   2.176  1.00  0.00     0.225 C 
HETATM   11  C   UNL     1      41.678 -16.507   2.187  1.00  0.00     0.069 C 
HETATM   12  C   UNL     1      40.885 -15.287   1.752  1.00  0.00     0.190 C 
HETATM   13  N   UNL     1      41.188 -14.154   2.693  1.00  0.00    -0.067 N 
HETATM   14  C   UNL     1      39.376 -15.369   1.863  1.00  0.00     0.035 C 
HETATM   15  H   UNL     1      41.014 -14.484   3.654  1.00  0.00     0.280 HD
HETATM   16  C   UNL     1      42.616 -13.724   2.624  1.00  0.00     0.237 C 
HETATM   17  C   UNL     1      40.140 -13.108   2.414  1.00  0.00     0.235 C 
HETATM   18  C   UNL     1      43.483 -14.916   3.020  1.00  0.00     0.063 C 
HETATM   19  C   UNL     1      38.955 -13.900   1.858  1.00  0.00     0.030 C 
ENDBRANCH   8  10
ENDBRANCH   1   8
BRANCH   1  20
HETATM   20  C   UNL     1      43.360 -17.947   4.971  1.00  0.00    -0.021 A 
HETATM   21  C   UNL     1      42.155 -17.739   5.671  1.00  0.00     0.012 A 
HETATM   22  C   UNL     1      42.163 -17.375   7.019  1.00  0.00     0.043 A 
HETATM   23  C   UNL     1      43.373 -17.205   7.675  1.00  0.00     0.116 A 
HETATM   24  F   UNL     1      43.381 -16.853   8.967  1.00  0.00    -0.206 F 
HETATM   25  C   UNL     1      44.578 -17.390   7.009  1.00  0.00     0.043 A 
HETATM   26  C   UNL     1      44.573 -17.753   5.660  1.00  0.00     0.012 A 
ENDBRANCH   1  20
TORSDOF 4
ENDMDL
MODEL 4
REMARK VINA RESULT:      -8.1      1.656      2.218
REMARK  4 active torsions:
REMARK  status: ('A' for Active; 'I' for Inactive)
REMARK    1  A    between atoms: C_5  and  C_6 
REMARK    2  A    between atoms: C_6  and  N_7 
REMARK    3  A    between atoms: C_6  and  C_18 
REMARK    4  A    between atoms: N_7  and  C_8 
ROOT
HETATM    1  C   UNL     1      42.819 -17.532   3.689  1.00  0.00     0.288 C 
ENDROOT
BRANCH   1   2
HETATM    2  C   UNL     1      43.028 -17.160   5.147  1.00  0.00    -0.003 A 
HETATM    3  C   UNL     1      42.334 -17.759   6.197  1.00  0.00     0.126 A 
HETATM    4  N   UNL     1      42.488 -17.438   7.500  1.00  0.00    -0.272 NA
HETATM    5  C   UNL     1      43.416 -16.504   7.794  1.00  0.00     0.116 A 
HETATM    6  C   UNL     1      44.185 -15.865   6.837  1.00  0.00     0.020 A 
HETATM    7  C   UNL     1      43.985 -16.198   5.499  1.00  0.00     0.012 A 
ENDBRANCH   1   2
BRANCH   1   8
HETATM    8  N   UNL     1      41.420 -17.496   3.217  1.00  0.00     0.101 N 
HETATM    9  H   UNL     1      40.804 -17.588   4.025  1.00  0.00     0.317 HD
BRANCH   8  10
HETATM   10  C   UNL     1      41.031 -16.381   2.350  1.00  0.00     0.225 C 
HETATM   11  C   UNL     1      41.703 -15.053   2.757  1.00  0.00     0.069 C 
HETATM   12  C   UNL     1      41.369 -13.977   1.739  1.00  0.00     0.190 C 
HETATM   13  N   UNL     1      41.854 -14.424   0.389  1.00  0.00    -0.067 N 
HETATM   14  C   UNL     1      42.077 -12.646   1.882  1.00  0.00     0.035 C 
HETATM   15  H   UNL     1      42.852 -14.668   0.474  1.00  0.00     0.280 HD
HETATM   16  C   UNL     1      41.141 -15.644  -0.097  1.00  0.00     0.237 C 
HETATM   17  C   UNL     1      41.796 -13.199  -0.486  1.00  0.00     0.235 C 
HETATM   18  C   UNL     1      41.405 -16.768   0.900  1.00  0.00     0.063 C 
HETATM   19  C   UNL     1      41.930 -12.031   0.492  1.00  0.00     0.030 C 
ENDBRANCH   8  10
ENDBRANCH   1   8
BRANCH   1  20
HETATM   20  C   UNL     1      43.433 -18.880   3.306  1.00  0.00    -0.021 A 
HETATM   21  C   UNL     1      42.988 -19.532   2.139  1.00  0.00     0.012 A 
HETATM   22  C   UNL     1      43.507 -20.776   1.772  1.00  0.00     0.043 A 
HETATM   23  C   UNL     1      44.465 -21.381   2.572  1.00  0.00     0.116 A 
HETATM   24  F   UNL     1      44.960 -22.574   2.222  1.00  0.00    -0.206 F 
HETATM   25  C   UNL     1      44.913 -20.769   3.735  1.00  0.00     0.043 A 
HETATM   26  C   UNL     1      44.396 -19.525   4.105  1.00  0.00     0.012 A 
ENDBRANCH   1  20
TORSDOF 4
ENDMDL
MODEL 5
REMARK VINA RESULT:      -7.9      2.010      2.820
REMARK  4 active torsions:
REMARK  status: ('A' for Active; 'I' for Inactive)
REMARK    1  A    between atoms: C_5  and  C_6 
REMARK    2  A    between atoms: C_6  and  N_7 
REMARK    3  A    between atoms: C_6  and  C_18 
REMARK    4  A    between atoms: N_7  and  C_8 
ROOT
HETATM    1  C   UNL     1      42.839 -17.461   3.825  1.00  0.00     0.288 C 
ENDROOT
BRANCH   1   2
HETATM    2  C   UNL     1      43.064 -17.136   5.292  1.00  0.00    -0.003 A 
HETATM    3  C   UNL     1      42.471 -17.847   6.333  1.00  0.00     0.126 A 
HETATM    4  N   UNL     1      42.640 -17.571   7.645  1.00  0.00    -0.272 NA
HETATM    5  C   UNL     1      43.483 -16.564   7.954  1.00  0.00     0.116 A 
HETATM    6  C   UNL     1      44.150 -15.809   7.005  1.00  0.00     0.020 A 
HETATM    7  C   UNL     1      43.935 -16.100   5.660  1.00  0.00     0.012 A 
ENDBRANCH   1   2
BRANCH   1   8
HETATM    8  N   UNL     1      41.438 -17.393   3.365  1.00  0.00     0.101 N 
HETATM    9  H   UNL     1      40.831 -17.668   4.138  1.00  0.00     0.317 HD
BRANCH   8  10
HETATM   10  C   UNL     1      40.997 -16.148   2.733  1.00  0.00     0.225 C 
HETATM   11  C   UNL     1      40.434 -15.134   3.751  1.00  0.00     0.069 C 
HETATM   12  C   UNL     1      40.129 -13.822   3.052  1.00  0.00     0.190 C 
HETATM   13  N   UNL     1      41.394 -13.302   2.429  1.00  0.00    -0.067 N 
HETATM   14  C   UNL     1      39.725 -12.651   3.924  1.00  0.00     0.035 C 
HETATM   15  H   UNL     1      42.117 -13.262   3.163  1.00  0.00     0.280 HD
HETATM   16  C   UNL     1      41.908 -14.198   1.350  1.00  0.00     0.237 C 
HETATM   17  C   UNL     1      41.100 -11.872   2.053  1.00  0.00     0.235 C 
HETATM   18  C   UNL     1      42.209 -15.557   1.976  1.00  0.00     0.063 C 
HETATM   19  C   UNL     1      39.998 -11.447   3.024  1.00  0.00     0.030 C 
ENDBRANCH   8  10
ENDBRANCH   1   8
BRANCH   1  20
HETATM   20  C   UNL     1      43.433 -18.804   3.397  1.00  0.00    -0.021 A 
HETATM   21  C   UNL     1      43.008 -19.392   2.189  1.00  0.00     0.012 A 
HETATM   22  C   UNL     1      43.508 -20.630   1.780  1.00  0.00     0.043 A 
HETATM   23  C   UNL     1      44.429 -21.294   2.576  1.00  0.00     0.116 A 
HETATM   24  F   UNL     1      44.906 -22.481   2.185  1.00  0.00    -0.206 F 
HETATM   25  C   UNL     1      44.857 -20.746   3.779  1.00  0.00     0.043 A 
HETATM   26  C   UNL     1      44.358 -19.508   4.192  1.00  0.00     0.012 A 
ENDBRANCH   1  20
TORSDOF 4
ENDMDL
MODEL 6
REMARK VINA RESULT:      -7.8      1.481      2.220
REMARK  4 active torsions:
REMARK  status: ('A' for Active; 'I' for Inactive)
REMARK    1  A    between atoms: C_5  and  C_6 
REMARK    2  A    between atoms: C_6  and  N_7 
REMARK    3  A    between atoms: C_6  and  C_18 
REMARK    4  A    between atoms: N_7  and  C_8 
ROOT
HETATM    1  C   UNL     1      42.302 -16.666   2.639  1.00  0.00     0.288 C 
ENDROOT
BRANCH   1   2
HETATM    2  C   UNL     1      42.659 -15.603   3.664  1.00  0.00    -0.003 A 
HETATM    3  C   UNL     1      43.614 -14.614   3.442  1.00  0.00     0.126 A 
HETATM    4  N   UNL     1      43.964 -13.667   4.341  1.00  0.00    -0.272 NA
HETATM    5  C   UNL     1      43.296 -13.663   5.513  1.00  0.00     0.116 A 
HETATM    6  C   UNL     1      42.307 -14.577   5.832  1.00  0.00     0.020 A 
HETATM    7  C   UNL     1      41.988 -15.558   4.895  1.00  0.00     0.012 A 
ENDBRANCH   1   2
BRANCH   1   8
HETATM    8  N   UNL     1      40.861 -16.950   2.491  1.00  0.00     0.101 N 
HETATM    9  H   UNL     1      40.418 -16.854   3.405  1.00  0.00     0.317 HD
BRANCH   8  10
HETATM   10  C   UNL     1      40.135 -16.224   1.447  1.00  0.00     0.225 C 
HETATM   11  C   UNL     1      39.277 -15.073   2.013  1.00  0.00     0.069 C 
HETATM   12  C   UNL     1      38.668 -14.280   0.872  1.00  0.00     0.190 C 
HETATM   13  N   UNL     1      39.777 -13.741   0.012  1.00  0.00    -0.067 N 
HETATM   14  C   UNL     1      37.928 -13.007   1.232  1.00  0.00     0.035 C 
HETATM   15  H   UNL     1      40.429 -13.224   0.622  1.00  0.00     0.280 HD
HETATM   16  C   UNL     1      40.560 -14.826  -0.653  1.00  0.00     0.237 C 
HETATM   17  C   UNL     1      39.133 -12.712  -0.880  1.00  0.00     0.235 C 
HETATM   18  C   UNL     1      41.181 -15.691   0.440  1.00  0.00     0.063 C 
HETATM   19  C   UNL     1      37.913 -12.238  -0.088  1.00  0.00     0.030 C 
ENDBRANCH   8  10
ENDBRANCH   1   8
BRANCH   1  20
HETATM   20  C   UNL     1      43.047 -17.987   2.841  1.00  0.00    -0.021 A 
HETATM   21  C   UNL     1      42.944 -18.992   1.859  1.00  0.00     0.012 A 
HETATM   22  C   UNL     1      43.589 -20.220   2.022  1.00  0.00     0.043 A 
HETATM   23  C   UNL     1      44.330 -20.458   3.170  1.00  0.00     0.116 A 
HETATM   24  F   UNL     1      44.944 -21.636   3.327  1.00  0.00    -0.206 F 
HETATM   25  C   UNL     1      44.438 -19.492   4.161  1.00  0.00     0.043 A 
HETATM   26  C   UNL     1      43.795 -18.262   4.002  1.00  0.00     0.012 A 
ENDBRANCH   1  20
TORSDOF 4
ENDMDL
MODEL 7
REMARK VINA RESULT:      -7.7      2.692      4.566
REMARK  4 active torsions:
REMARK  status: ('A' for Active; 'I' for Inactive)
REMARK    1  A    between atoms: C_5  and  C_6 
REMARK    2  A    between atoms: C_6  and  N_7 
REMARK    3  A    between atoms: C_6  and  C_18 
REMARK    4  A    between atoms: N_7  and  C_8 
ROOT
HETATM    1  C   UNL     1      43.000 -18.391   3.520  1.00  0.00     0.288 C 
ENDROOT
BRANCH   1   2
HETATM    2  C   UNL     1      43.590 -19.757   3.214  1.00  0.00    -0.003 A 
HETATM    3  C   UNL     1      44.312 -20.504   4.142  1.00  0.00     0.126 A 
HETATM    4  N   UNL     1      44.862 -21.713   3.893  1.00  0.00    -0.272 NA
HETATM    5  C   UNL     1      44.645 -22.242   2.671  1.00  0.00     0.116 A 
HETATM    6  C   UNL     1      43.918 -21.605   1.681  1.00  0.00     0.020 A 
HETATM    7  C   UNL     1      43.387 -20.348   1.958  1.00  0.00     0.012 A 
ENDBRANCH   1   2
BRANCH   1   8
HETATM    8  N   UNL     1      43.464 -17.288   2.654  1.00  0.00     0.101 N 
HETATM    9  H   UNL     1      44.074 -17.678   1.935  1.00  0.00     0.317 HD
BRANCH   8  10
HETATM   10  C   UNL     1      42.444 -16.400   2.091  1.00  0.00     0.225 C 
HETATM   11  C   UNL     1      42.777 -14.908   2.304  1.00  0.00     0.069 C 
HETATM   12  C   UNL     1      41.758 -14.048   1.578  1.00  0.00     0.190 C 
HETATM   13  N   UNL     1      41.789 -14.395   0.116  1.00  0.00    -0.067 N 
HETATM   14  C   UNL     1      42.018 -12.557   1.534  1.00  0.00     0.035 C 
HETATM   15  H   UNL     1      42.763 -14.310  -0.211  1.00  0.00     0.280 HD
HETATM   16  C   UNL     1      41.356 -15.801  -0.145  1.00  0.00     0.237 C 
HETATM   17  C   UNL     1      41.019 -13.299  -0.575  1.00  0.00     0.235 C 
HETATM   18  C   UNL     1      42.321 -16.730   0.585  1.00  0.00     0.063 C 
HETATM   19  C   UNL     1      41.158 -12.096   0.359  1.00  0.00     0.030 C 
ENDBRANCH   8  10
ENDBRANCH   1   8
BRANCH   1  20
HETATM   20  C   UNL     1      43.158 -17.968   4.982  1.00  0.00    -0.021 A 
HETATM   21  C   UNL     1      42.006 -17.751   5.764  1.00  0.00     0.012 A 
HETATM   22  C   UNL     1      42.112 -17.339   7.094  1.00  0.00     0.043 A 
HETATM   23  C   UNL     1      43.366 -17.131   7.650  1.00  0.00     0.116 A 
HETATM   24  F   UNL     1      43.467 -16.734   8.924  1.00  0.00    -0.206 F 
HETATM   25  C   UNL     1      44.518 -17.325   6.900  1.00  0.00     0.043 A 
HETATM   26  C   UNL     1      44.417 -17.736   5.569  1.00  0.00     0.012 A 
ENDBRANCH   1  20
TORSDOF 4
ENDMDL
MODEL 8
REMARK VINA RESULT:      -7.5      1.918      2.469
REMARK  4 active torsions:
REMARK  status: ('A' for Active; 'I' for Inactive)
REMARK    1  A    between atoms: C_5  and  C_6 
REMARK    2  A    between atoms: C_6  and  N_7 
REMARK    3  A    between atoms: C_6  and  C_18 
REMARK    4  A    between atoms: N_7  and  C_8 
ROOT
HETATM    1  C   UNL     1      42.490 -15.758   3.138  1.00  0.00     0.288 C 
ENDROOT
BRANCH   1   2
HETATM    2  C   UNL     1      41.947 -14.764   4.151  1.00  0.00    -0.003 A 
HETATM    3  C   UNL     1      42.574 -13.558   4.452  1.00  0.00     0.126 A 
HETATM    4  N   UNL     1      42.123 -12.663   5.359  1.00  0.00    -0.272 NA
HETATM    5  C   UNL     1      40.956 -12.950   5.971  1.00  0.00     0.116 A 
HETATM    6  C   UNL     1      40.230 -14.103   5.729  1.00  0.00     0.020 A 
HETATM    7  C   UNL     1      40.735 -15.019   4.809  1.00  0.00     0.012 A 
ENDBRANCH   1   2
BRANCH   1   8
HETATM    8  N   UNL     1      41.521 -16.238   2.134  1.00  0.00     0.101 N 
HETATM    9  H   UNL     1      40.673 -16.532   2.618  1.00  0.00     0.317 HD
BRANCH   8  10
HETATM   10  C   UNL     1      41.232 -15.356   1.001  1.00  0.00     0.225 C 
HETATM   11  C   UNL     1      41.397 -16.065  -0.359  1.00  0.00     0.069 C 
HETATM   12  C   UNL     1      40.949 -15.141  -1.476  1.00  0.00     0.190 C 
HETATM   13  N   UNL     1      39.512 -14.765  -1.244  1.00  0.00    -0.067 N 
HETATM   14  C   UNL     1      40.880 -15.725  -2.872  1.00  0.00     0.035 C 
HETATM   15  H   UNL     1      38.969 -15.635  -1.136  1.00  0.00     0.280 HD
HETATM   16  C   UNL     1      39.326 -13.970   0.006  1.00  0.00     0.237 C 
HETATM   17  C   UNL     1      39.046 -14.139  -2.533  1.00  0.00     0.235 C 
HETATM   18  C   UNL     1      39.789 -14.829   1.179  1.00  0.00     0.063 C 
HETATM   19  C   UNL     1      39.949 -14.758  -3.601  1.00  0.00     0.030 C 
ENDBRANCH   8  10
ENDBRANCH   1   8
BRANCH   1  20
HETATM   20  C   UNL     1      43.179 -16.967   3.775  1.00  0.00    -0.021 A 
HETATM   21  C   UNL     1      43.312 -18.155   3.030  1.00  0.00     0.012 A 
HETATM   22  C   UNL     1      43.912 -19.286   3.588  1.00  0.00     0.043 A 
HETATM   23  C   UNL     1      44.372 -19.243   4.895  1.00  0.00     0.116 A 
HETATM   24  F   UNL     1      44.944 -20.329   5.430  1.00  0.00    -0.206 F 
HETATM   25  C   UNL     1      44.243 -18.091   5.659  1.00  0.00     0.043 A 
HETATM   26  C   UNL     1      43.643 -16.957   5.105  1.00  0.00     0.012 A 
ENDBRANCH   1  20
TORSDOF 4
ENDMDL
MODEL 9
REMARK VINA RESULT:      -7.4      3.528      7.659
REMARK  4 active torsions:
REMARK  status: ('A' for Active; 'I' for Inactive)
REMARK    1  A    between atoms: C_5  and  C_6 
REMARK    2  A    between atoms: C_6  and  N_7 
REMARK    3  A    between atoms: C_6  and  C_18 
REMARK    4  A    between atoms: N_7  and  C_8 
ROOT
HETATM    1  C   UNL     1      41.239 -14.258  -0.286  1.00  0.00     0.288 C 
ENDROOT
BRANCH   1   2
HETATM    2  C   UNL     1      41.765 -12.833  -0.331  1.00  0.00    -0.003 A 
HETATM    3  C   UNL     1      41.492 -11.885   0.651  1.00  0.00     0.126 A 
HETATM    4  N   UNL     1      41.932 -10.607   0.628  1.00  0.00    -0.272 NA
HETATM    5  C   UNL     1      42.731 -10.255  -0.400  1.00  0.00     0.116 A 
HETATM    6  C   UNL     1      43.093 -11.122  -1.417  1.00  0.00     0.020 A 
HETATM    7  C   UNL     1      42.602 -12.425  -1.380  1.00  0.00     0.012 A 
ENDBRANCH   1   2
BRANCH   1   8
HETATM    8  N   UNL     1      42.265 -15.312  -0.152  1.00  0.00     0.101 N 
HETATM    9  H   UNL     1      43.182 -14.888  -0.292  1.00  0.00     0.317 HD
BRANCH   8  10
HETATM   10  C   UNL     1      42.219 -16.148   1.049  1.00  0.00     0.225 C 
HETATM   11  C   UNL     1      43.054 -17.437   0.905  1.00  0.00     0.069 C 
HETATM   12  C   UNL     1      43.077 -18.182   2.227  1.00  0.00     0.190 C 
HETATM   13  N   UNL     1      43.666 -17.283   3.278  1.00  0.00    -0.067 N 
HETATM   14  C   UNL     1      43.988 -19.389   2.325  1.00  0.00     0.035 C 
HETATM   15  H   UNL     1      44.579 -16.949   2.935  1.00  0.00     0.280 HD
HETATM   16  C   UNL     1      42.821 -16.078   3.534  1.00  0.00     0.237 C 
HETATM   17  C   UNL     1      43.963 -18.178   4.454  1.00  0.00     0.235 C 
HETATM   18  C   UNL     1      42.725 -15.289   2.232  1.00  0.00     0.063 C 
HETATM   19  C   UNL     1      44.163 -19.561   3.833  1.00  0.00     0.030 C 
ENDBRANCH   8  10
ENDBRANCH   1   8
BRANCH   1  20
HETATM   20  C   UNL     1      40.321 -14.610  -1.458  1.00  0.00    -0.021 A 
HETATM   21  C   UNL     1      40.755 -15.548  -2.415  1.00  0.00     0.012 A 
HETATM   22  C   UNL     1      39.955 -15.875  -3.512  1.00  0.00     0.043 A 
HETATM   23  C   UNL     1      38.722 -15.260  -3.667  1.00  0.00     0.116 A 
HETATM   24  F   UNL     1      37.957 -15.571  -4.721  1.00  0.00    -0.206 F 
HETATM   25  C   UNL     1      38.272 -14.322  -2.748  1.00  0.00     0.043 A 
HETATM   26  C   UNL     1      39.070 -13.992  -1.649  1.00  0.00     0.012 A 
ENDBRANCH   1  20
TORSDOF 4
ENDMDL
MODEL 10
REMARK VINA RESULT:      -7.4      2.128      2.784
REMARK  4 active torsions:
REMARK  status: ('A' for Active; 'I' for Inactive)
REMARK    1  A    between atoms: C_5  and  C_6 
REMARK    2  A    between atoms: C_6  and  N_7 
REMARK    3  A    between atoms: C_6  and  C_18 
REMARK    4  A    between atoms: N_7  and  C_8 
ROOT
HETATM    1  C   UNL     1      42.428 -15.692   2.359  1.00  0.00     0.288 C 
ENDROOT
BRANCH   1   2
HETATM    2  C   UNL     1      42.449 -14.818   3.602  1.00  0.00    -0.003 A 
HETATM    3  C   UNL     1      43.575 -14.116   4.025  1.00  0.00     0.126 A 
HETATM    4  N   UNL     1      43.627 -13.345   5.133  1.00  0.00    -0.272 NA
HETATM    5  C   UNL     1      42.487 -13.218   5.843  1.00  0.00     0.116 A 
HETATM    6  C   UNL     1      41.301 -13.844   5.501  1.00  0.00     0.020 A 
HETATM    7  C   UNL     1      41.285 -14.654   4.367  1.00  0.00     0.012 A 
ENDBRANCH   1   2
BRANCH   1   8
HETATM    8  N   UNL     1      41.120 -15.804   1.681  1.00  0.00     0.101 N 
HETATM    9  H   UNL     1      40.385 -15.670   2.375  1.00  0.00     0.317 HD
BRANCH   8  10
HETATM   10  C   UNL     1      40.909 -14.984   0.487  1.00  0.00     0.225 C 
HETATM   11  C   UNL     1      41.834 -13.750   0.445  1.00  0.00     0.069 C 
HETATM   12  C   UNL     1      41.663 -13.027  -0.879  1.00  0.00     0.190 C 
HETATM   13  N   UNL     1      41.995 -13.978  -1.995  1.00  0.00    -0.067 N 
HETATM   14  C   UNL     1      42.614 -11.884  -1.170  1.00  0.00     0.035 C 
HETATM   15  H   UNL     1      42.933 -14.366  -1.813  1.00  0.00     0.280 HD
HETATM   16  C   UNL     1      41.045 -15.129  -2.064  1.00  0.00     0.237 C 
HETATM   17  C   UNL     1      42.128 -13.121  -3.228  1.00  0.00     0.235 C 
HETATM   18  C   UNL     1      41.139 -15.891  -0.745  1.00  0.00     0.063 C 
HETATM   19  C   UNL     1      42.522 -11.745  -2.689  1.00  0.00     0.030 C 
ENDBRANCH   8  10
ENDBRANCH   1   8
BRANCH   1  20
HETATM   20  C   UNL     1      42.986 -17.098   2.589  1.00  0.00    -0.021 A 
HETATM   21  C   UNL     1      43.395 -17.866   1.481  1.00  0.00     0.012 A 
HETATM   22  C   UNL     1      43.884 -19.163   1.650  1.00  0.00     0.043 A 
HETATM   23  C   UNL     1      43.959 -19.705   2.924  1.00  0.00     0.116 A 
HETATM   24  F   UNL     1      44.426 -20.950   3.086  1.00  0.00    -0.206 F 
HETATM   25  C   UNL     1      43.551 -18.978   4.034  1.00  0.00     0.043 A 
HETATM   26  C   UNL     1      43.060 -17.680   3.869  1.00  0.00     0.012 A 
ENDBRANCH   1  20
TORSDOF 4
ENDMDL
