MODEL 1
REMARK VINA RESULT:      -7.9      0.000      0.000
REMARK  5 active torsions:
REMARK  status: ('A' for Active; 'I' for Inactive)
REMARK    1  A    between atoms: C_5  and  C_6 
REMARK       I    between atoms: C_6  and  N_7 
REMARK    2  A    between atoms: N_7  and  C_8 
REMARK    3  A    between atoms: C_8  and  C_9 
REMARK    4  A    between atoms: C_11  and  N_12 
REMARK    5  A    between atoms: N_12  and  C_13 
ROOT
HETATM    1  C   UNL     1      42.773 -16.765   5.517  1.00  0.00     0.161 C 
ENDROOT
BRANCH   1   2
HETATM    2  N   UNL     1      43.001 -18.118   5.069  1.00  0.00    -0.353 N 
HETATM    3  C   UNL     1      44.230 -18.733   5.188  1.00  0.00     0.255 C 
HETATM    4  O   UNL     1      45.176 -18.190   5.751  1.00  0.00    -0.268 OA
HETATM    5  H   UNL     1      42.261 -18.593   4.562  1.00  0.00     0.163 HD
BRANCH   3   6
HETATM    6  C   UNL     1      44.381 -20.101   4.617  1.00  0.00     0.071 A 
HETATM    7  C   UNL     1      44.238 -20.379   3.254  1.00  0.00     0.138 A 
HETATM    8  C   UNL     1      44.396 -21.677   2.755  1.00  0.00    -0.022 A 
HETATM    9  F   UNL     1      43.938 -19.393   2.390  1.00  0.00    -0.204 F 
HETATM   10  C   UNL     1      44.212 -21.965   1.294  1.00  0.00     0.051 C 
HETATM   11  C   UNL     1      44.673 -22.718   3.649  1.00  0.00     0.010 A 
HETATM   12  C   UNL     1      44.815 -22.457   5.012  1.00  0.00     0.002 A 
HETATM   13  C   UNL     1      44.673 -21.156   5.495  1.00  0.00     0.020 A 
ENDBRANCH   3   6
ENDBRANCH   1   2
BRANCH   1  14
HETATM   14  C   UNL     1      41.648 -16.120   4.742  1.00  0.00    -0.036 A 
HETATM   15  C   UNL     1      41.406 -16.490   3.412  1.00  0.00     0.057 A 
HETATM   16  C   UNL     1      40.408 -15.856   2.670  1.00  0.00     0.101 A 
HETATM   17  N   UNL     1      39.721 -14.864   3.252  1.00  0.00    -0.353 N 
HETATM   18  H   UNL     1      39.041 -14.377   2.676  1.00  0.00     0.166 HD
HETATM   19  C   UNL     1      39.916 -14.474   4.519  1.00  0.00     0.090 A 
HETATM   20  C   UNL     1      40.884 -15.094   5.297  1.00  0.00     0.026 A 
BRANCH  16  21
HETATM   21  N   UNL     1      40.214 -16.158   1.316  1.00  0.00    -0.372 N 
HETATM   22  H   UNL     1      39.259 -15.955   1.014  1.00  0.00     0.161 HD
BRANCH  21  23
HETATM   23  C   UNL     1      41.252 -15.934   0.312  1.00  0.00     0.083 A 
HETATM   24  C   UNL     1      40.954 -15.237  -0.985  1.00  0.00     0.027 A 
HETATM   25  C   UNL     1      41.757 -14.540   0.074  1.00  0.00     0.027 A 
ENDBRANCH  21  23
ENDBRANCH  16  21
ENDBRANCH   1  14
TORSDOF 5
ENDMDL
MODEL 2
REMARK VINA RESULT:      -7.9      1.839      2.775
REMARK  5 active torsions:
REMARK  status: ('A' for Active; 'I' for Inactive)
REMARK    1  A    between atoms: C_5  and  C_6 
REMARK       I    between atoms: C_6  and  N_7 
REMARK    2  A    between atoms: N_7  and  C_8 
REMARK    3  A    between atoms: C_8  and  C_9 
REMARK    4  A    between atoms: C_11  and  N_12 
REMARK    5  A    between atoms: N_12  and  C_13 
ROOT
HETATM    1  C   UNL     1      42.754 -15.967   3.463  1.00  0.00     0.161 C 
ENDROOT
BRANCH   1   2
HETATM    2  N   UNL     1      43.034 -17.380   3.544  1.00  0.00    -0.353 N 
HETATM    3  C   UNL     1      43.872 -18.013   2.650  1.00  0.00     0.255 C 
HETATM    4  O   UNL     1      44.486 -17.396   1.784  1.00  0.00    -0.268 OA
HETATM    5  H   UNL     1      42.520 -17.939   4.217  1.00  0.00     0.163 HD
BRANCH   3   6
HETATM    6  C   UNL     1      44.027 -19.490   2.770  1.00  0.00     0.071 A 
HETATM    7  C   UNL     1      44.547 -20.113   3.909  1.00  0.00     0.138 A 
HETATM    8  C   UNL     1      44.669 -21.505   3.987  1.00  0.00    -0.022 A 
HETATM    9  F   UNL     1      44.949 -19.376   4.960  1.00  0.00    -0.204 F 
HETATM   10  C   UNL     1      45.256 -22.158   5.204  1.00  0.00     0.051 C 
HETATM   11  C   UNL     1      44.289 -22.282   2.886  1.00  0.00     0.010 A 
HETATM   12  C   UNL     1      43.771 -21.676   1.741  1.00  0.00     0.002 A 
HETATM   13  C   UNL     1      43.638 -20.287   1.683  1.00  0.00     0.020 A 
ENDBRANCH   3   6
ENDBRANCH   1   2
BRANCH   1  14
HETATM   14  C   UNL     1      41.639 -15.690   2.482  1.00  0.00    -0.036 A 
HETATM   15  C   UNL     1      41.936 -15.257   1.182  1.00  0.00     0.057 A 
HETATM   16  C   UNL     1      40.911 -14.940   0.289  1.00  0.00     0.101 A 
HETATM   17  N   UNL     1      39.646 -15.027   0.721  1.00  0.00    -0.353 N 
HETATM   18  H   UNL     1      38.919 -14.736   0.075  1.00  0.00     0.166 HD
HETATM   19  C   UNL     1      39.312 -15.435   1.953  1.00  0.00     0.090 A 
HETATM   20  C   UNL     1      40.301 -15.779   2.864  1.00  0.00     0.026 A 
BRANCH  16  21
HETATM   21  N   UNL     1      41.196 -14.426  -0.982  1.00  0.00    -0.372 N 
HETATM   22  H   UNL     1      42.197 -14.455  -1.189  1.00  0.00     0.161 HD
BRANCH  21  23
HETATM   23  C   UNL     1      40.310 -14.639  -2.125  1.00  0.00     0.083 A 
HETATM   24  C   UNL     1      40.727 -14.273  -3.522  1.00  0.00     0.027 A 
HETATM   25  C   UNL     1      40.639 -15.716  -3.119  1.00  0.00     0.027 A 
ENDBRANCH  21  23
ENDBRANCH  16  21
ENDBRANCH   1  14
TORSDOF 5
ENDMDL
MODEL 3
REMARK VINA RESULT:      -7.8      1.897      4.121
REMARK  5 active torsions:
REMARK  status: ('A' for Active; 'I' for Inactive)
REMARK    1  A    between atoms: C_5  and  C_6 
REMARK       I    between atoms: C_6  and  N_7 
REMARK    2  A    between atoms: N_7  and  C_8 
REMARK    3  A    between atoms: C_8  and  C_9 
REMARK    4  A    between atoms: C_11  and  N_12 
REMARK    5  A    between atoms: N_12  and  C_13 
ROOT
HETATM    1  C   UNL     1      41.745 -16.514   1.874  1.00  0.00     0.161 C 
ENDROOT
BRANCH   1   2
HETATM    2  N   UNL     1      42.188 -17.833   2.254  1.00  0.00    -0.353 N 
HETATM    3  C   UNL     1      43.497 -18.240   2.101  1.00  0.00     0.255 C 
HETATM    4  O   UNL     1      44.373 -17.477   1.704  1.00  0.00    -0.268 OA
HETATM    5  H   UNL     1      41.494 -18.512   2.549  1.00  0.00     0.163 HD
BRANCH   3   6
HETATM    6  C   UNL     1      43.831 -19.651   2.445  1.00  0.00     0.071 A 
HETATM    7  C   UNL     1      44.312 -20.036   3.701  1.00  0.00     0.138 A 
HETATM    8  C   UNL     1      44.607 -21.373   3.990  1.00  0.00    -0.022 A 
HETATM    9  F   UNL     1      44.507 -19.116   4.663  1.00  0.00    -0.204 F 
HETATM   10  C   UNL     1      45.149 -21.768   5.332  1.00  0.00     0.051 C 
HETATM   11  C   UNL     1      44.443 -22.336   2.986  1.00  0.00     0.010 A 
HETATM   12  C   UNL     1      43.968 -21.967   1.727  1.00  0.00     0.002 A 
HETATM   13  C   UNL     1      43.660 -20.632   1.458  1.00  0.00     0.020 A 
ENDBRANCH   3   6
ENDBRANCH   1   2
BRANCH   1  14
HETATM   14  C   UNL     1      41.310 -15.719   3.082  1.00  0.00    -0.036 A 
HETATM   15  C   UNL     1      41.969 -15.883   4.309  1.00  0.00     0.057 A 
HETATM   16  C   UNL     1      41.534 -15.199   5.445  1.00  0.00     0.101 A 
HETATM   17  N   UNL     1      40.452 -14.415   5.336  1.00  0.00    -0.353 N 
HETATM   18  H   UNL     1      40.118 -13.973   6.187  1.00  0.00     0.166 HD
HETATM   19  C   UNL     1      39.789 -14.226   4.187  1.00  0.00     0.090 A 
HETATM   20  C   UNL     1      40.203 -14.872   3.030  1.00  0.00     0.026 A 
BRANCH  16  21
HETATM   21  N   UNL     1      42.130 -15.420   6.692  1.00  0.00    -0.372 N 
HETATM   22  H   UNL     1      41.462 -15.312   7.458  1.00  0.00     0.161 HD
BRANCH  21  23
HETATM   23  C   UNL     1      43.159 -16.438   6.894  1.00  0.00     0.083 A 
HETATM   24  C   UNL     1      43.438 -17.016   8.253  1.00  0.00     0.027 A 
HETATM   25  C   UNL     1      42.746 -17.847   7.213  1.00  0.00     0.027 A 
ENDBRANCH  21  23
ENDBRANCH  16  21
ENDBRANCH   1  14
TORSDOF 5
ENDMDL
MODEL 4
REMARK VINA RESULT:      -7.6      1.605      2.345
REMARK  5 active torsions:
REMARK  status: ('A' for Active; 'I' for Inactive)
REMARK    1  A    between atoms: C_5  and  C_6 
REMARK       I    between atoms: C_6  and  N_7 
REMARK    2  A    between atoms: N_7  and  C_8 
REMARK    3  A    between atoms: C_8  and  C_9 
REMARK    4  A    between atoms: C_11  and  N_12 
REMARK    5  A    between atoms: N_12  and  C_13 
ROOT
HETATM    1  C   UNL     1      43.209 -17.433   7.519  1.00  0.00     0.161 C 
ENDROOT
BRANCH   1   2
HETATM    2  N   UNL     1      43.328 -18.605   6.685  1.00  0.00    -0.353 N 
HETATM    3  C   UNL     1      44.522 -18.966   6.095  1.00  0.00     0.255 C 
HETATM    4  O   UNL     1      45.564 -18.355   6.309  1.00  0.00    -0.268 OA
HETATM    5  H   UNL     1      42.487 -19.119   6.447  1.00  0.00     0.163 HD
BRANCH   3   6
HETATM    6  C   UNL     1      44.517 -20.146   5.185  1.00  0.00     0.071 A 
HETATM    7  C   UNL     1      44.323 -20.042   3.803  1.00  0.00     0.138 A 
HETATM    8  C   UNL     1      44.334 -21.174   2.980  1.00  0.00    -0.022 A 
HETATM    9  F   UNL     1      44.114 -18.841   3.237  1.00  0.00    -0.204 F 
HETATM   10  C   UNL     1      44.096 -21.052   1.503  1.00  0.00     0.051 C 
HETATM   11  C   UNL     1      44.515 -22.435   3.562  1.00  0.00     0.010 A 
HETATM   12  C   UNL     1      44.706 -22.554   4.938  1.00  0.00     0.002 A 
HETATM   13  C   UNL     1      44.711 -21.416   5.746  1.00  0.00     0.020 A 
ENDBRANCH   3   6
ENDBRANCH   1   2
BRANCH   1  14
HETATM   14  C   UNL     1      43.219 -16.172   6.687  1.00  0.00    -0.036 A 
HETATM   15  C   UNL     1      42.367 -16.052   5.580  1.00  0.00     0.057 A 
HETATM   16  C   UNL     1      42.414 -14.916   4.770  1.00  0.00     0.101 A 
HETATM   17  N   UNL     1      43.317 -13.970   5.058  1.00  0.00    -0.353 N 
HETATM   18  H   UNL     1      43.374 -13.180   4.422  1.00  0.00     0.166 HD
HETATM   19  C   UNL     1      44.152 -14.040   6.104  1.00  0.00     0.090 A 
HETATM   20  C   UNL     1      44.123 -15.143   6.946  1.00  0.00     0.026 A 
BRANCH  16  21
HETATM   21  N   UNL     1      41.629 -14.823   3.614  1.00  0.00    -0.372 N 
HETATM   22  H   UNL     1      42.118 -14.336   2.860  1.00  0.00     0.161 HD
BRANCH  21  23
HETATM   23  C   UNL     1      40.733 -15.898   3.192  1.00  0.00     0.083 A 
HETATM   24  C   UNL     1      39.835 -15.748   1.996  1.00  0.00     0.027 A 
HETATM   25  C   UNL     1      41.032 -16.650   1.927  1.00  0.00     0.027 A 
ENDBRANCH  21  23
ENDBRANCH  16  21
ENDBRANCH   1  14
TORSDOF 5
ENDMDL
MODEL 5
REMARK VINA RESULT:      -7.6      1.877      2.583
REMARK  5 active torsions:
REMARK  status: ('A' for Active; 'I' for Inactive)
REMARK    1  A    between atoms: C_5  and  C_6 
REMARK       I    between atoms: C_6  and  N_7 
REMARK    2  A    between atoms: N_7  and  C_8 
REMARK    3  A    between atoms: C_8  and  C_9 
REMARK    4  A    between atoms: C_11  and  N_12 
REMARK    5  A    between atoms: N_12  and  C_13 
ROOT
HETATM    1  C   UNL     1      42.255 -15.085   3.461  1.00  0.00     0.161 C 
ENDROOT
BRANCH   1   2
HETATM    2  N   UNL     1      42.972 -16.334   3.372  1.00  0.00    -0.353 N 
HETATM    3  C   UNL     1      42.474 -17.505   3.904  1.00  0.00     0.255 C 
HETATM    4  O   UNL     1      41.360 -17.565   4.415  1.00  0.00    -0.268 OA
HETATM    5  H   UNL     1      43.914 -16.327   2.994  1.00  0.00     0.163 HD
BRANCH   3   6
HETATM    6  C   UNL     1      43.332 -18.721   3.832  1.00  0.00     0.071 A 
HETATM    7  C   UNL     1      43.303 -19.612   2.755  1.00  0.00     0.138 A 
HETATM    8  C   UNL     1      44.131 -20.740   2.720  1.00  0.00    -0.022 A 
HETATM    9  F   UNL     1      42.465 -19.402   1.724  1.00  0.00    -0.204 F 
HETATM   10  C   UNL     1      44.069 -21.703   1.571  1.00  0.00     0.051 C 
HETATM   11  C   UNL     1      44.982 -20.991   3.803  1.00  0.00     0.010 A 
HETATM   12  C   UNL     1      45.020 -20.113   4.887  1.00  0.00     0.002 A 
HETATM   13  C   UNL     1      44.202 -18.982   4.901  1.00  0.00     0.020 A 
ENDBRANCH   3   6
ENDBRANCH   1   2
BRANCH   1  14
HETATM   14  C   UNL     1      41.153 -15.017   2.430  1.00  0.00    -0.036 A 
HETATM   15  C   UNL     1      41.428 -15.307   1.086  1.00  0.00     0.057 A 
HETATM   16  C   UNL     1      40.430 -15.187   0.117  1.00  0.00     0.101 A 
HETATM   17  N   UNL     1      39.222 -14.753   0.502  1.00  0.00    -0.353 N 
HETATM   18  H   UNL     1      38.529 -14.617  -0.227  1.00  0.00     0.166 HD
HETATM   19  C   UNL     1      38.912 -14.464   1.773  1.00  0.00     0.090 A 
HETATM   20  C   UNL     1      39.870 -14.590   2.770  1.00  0.00     0.026 A 
BRANCH  16  21
HETATM   21  N   UNL     1      40.714 -15.391  -1.239  1.00  0.00    -0.372 N 
HETATM   22  H   UNL     1      40.847 -16.382  -1.456  1.00  0.00     0.161 HD
BRANCH  21  23
HETATM   23  C   UNL     1      40.089 -14.595  -2.294  1.00  0.00     0.083 A 
HETATM   24  C   UNL     1      40.856 -14.165  -3.513  1.00  0.00     0.027 A 
HETATM   25  C   UNL     1      39.806 -15.231  -3.625  1.00  0.00     0.027 A 
ENDBRANCH  21  23
ENDBRANCH  16  21
ENDBRANCH   1  14
TORSDOF 5
ENDMDL
MODEL 6
REMARK VINA RESULT:      -7.5      2.301      4.037
REMARK  5 active torsions:
REMARK  status: ('A' for Active; 'I' for Inactive)
REMARK    1  A    between atoms: C_5  and  C_6 
REMARK       I    between atoms: C_6  and  N_7 
REMARK    2  A    between atoms: N_7  and  C_8 
REMARK    3  A    between atoms: C_8  and  C_9 
REMARK    4  A    between atoms: C_11  and  N_12 
REMARK    5  A    between atoms: N_12  and  C_13 
ROOT
HETATM    1  C   UNL     1      40.589 -16.081   2.695  1.00  0.00     0.161 C 
ENDROOT
BRANCH   1   2
HETATM    2  N   UNL     1      41.479 -17.081   3.235  1.00  0.00    -0.353 N 
HETATM    3  C   UNL     1      42.670 -17.409   2.622  1.00  0.00     0.255 C 
HETATM    4  O   UNL     1      43.075 -16.815   1.627  1.00  0.00    -0.268 OA
HETATM    5  H   UNL     1      41.170 -17.626   4.033  1.00  0.00     0.163 HD
BRANCH   3   6
HETATM    6  C   UNL     1      43.474 -18.514   3.214  1.00  0.00     0.071 A 
HETATM    7  C   UNL     1      43.642 -19.755   2.591  1.00  0.00     0.138 A 
HETATM    8  C   UNL     1      44.414 -20.766   3.176  1.00  0.00    -0.022 A 
HETATM    9  F   UNL     1      43.054 -20.003   1.407  1.00  0.00    -0.204 F 
HETATM   10  C   UNL     1      44.561 -22.102   2.509  1.00  0.00     0.051 C 
HETATM   11  C   UNL     1      45.002 -20.534   4.426  1.00  0.00     0.010 A 
HETATM   12  C   UNL     1      44.840 -19.302   5.061  1.00  0.00     0.002 A 
HETATM   13  C   UNL     1      44.084 -18.296   4.459  1.00  0.00     0.020 A 
ENDBRANCH   3   6
ENDBRANCH   1   2
BRANCH   1  14
HETATM   14  C   UNL     1      40.640 -14.811   3.512  1.00  0.00    -0.036 A 
HETATM   15  C   UNL     1      41.643 -14.634   4.475  1.00  0.00     0.057 A 
HETATM   16  C   UNL     1      41.662 -13.491   5.277  1.00  0.00     0.101 A 
HETATM   17  N   UNL     1      40.678 -12.595   5.124  1.00  0.00    -0.353 N 
HETATM   18  H   UNL     1      40.677 -11.801   5.757  1.00  0.00     0.166 HD
HETATM   19  C   UNL     1      39.698 -12.721   4.219  1.00  0.00     0.090 A 
HETATM   20  C   UNL     1      39.655 -13.832   3.388  1.00  0.00     0.026 A 
BRANCH  16  21
HETATM   21  N   UNL     1      42.608 -13.343   6.299  1.00  0.00    -0.372 N 
HETATM   22  H   UNL     1      42.178 -13.384   7.225  1.00  0.00     0.161 HD
BRANCH  21  23
HETATM   23  C   UNL     1      43.952 -13.909   6.204  1.00  0.00     0.083 A 
HETATM   24  C   UNL     1      44.906 -13.868   7.365  1.00  0.00     0.027 A 
HETATM   25  C   UNL     1      44.275 -15.168   6.958  1.00  0.00     0.027 A 
ENDBRANCH  21  23
ENDBRANCH  16  21
ENDBRANCH   1  14
TORSDOF 5
ENDMDL
MODEL 7
REMARK VINA RESULT:      -7.3      3.224      5.045
REMARK  5 active torsions:
REMARK  status: ('A' for Active; 'I' for Inactive)
REMARK    1  A    between atoms: C_5  and  C_6 
REMARK       I    between atoms: C_6  and  N_7 
REMARK    2  A    between atoms: N_7  and  C_8 
REMARK    3  A    between atoms: C_8  and  C_9 
REMARK    4  A    between atoms: C_11  and  N_12 
REMARK    5  A    between atoms: N_12  and  C_13 
ROOT
HETATM    1  C   UNL     1      42.600 -17.322   7.149  1.00  0.00     0.161 C 
ENDROOT
BRANCH   1   2
HETATM    2  N   UNL     1      42.862 -18.456   6.296  1.00  0.00    -0.353 N 
HETATM    3  C   UNL     1      44.110 -19.036   6.211  1.00  0.00     0.255 C 
HETATM    4  O   UNL     1      45.047 -18.669   6.913  1.00  0.00    -0.268 OA
HETATM    5  H   UNL     1      42.129 -18.770   5.668  1.00  0.00     0.163 HD
BRANCH   3   6
HETATM    6  C   UNL     1      44.294 -20.149   5.237  1.00  0.00     0.071 A 
HETATM    7  C   UNL     1      44.155 -19.983   3.855  1.00  0.00     0.138 A 
HETATM    8  C   UNL     1      44.344 -21.052   2.970  1.00  0.00    -0.022 A 
HETATM    9  F   UNL     1      43.827 -18.782   3.346  1.00  0.00    -0.204 F 
HETATM   10  C   UNL     1      44.163 -20.866   1.492  1.00  0.00     0.051 C 
HETATM   11  C   UNL     1      44.650 -22.316   3.490  1.00  0.00     0.010 A 
HETATM   12  C   UNL     1      44.789 -22.497   4.866  1.00  0.00     0.002 A 
HETATM   13  C   UNL     1      44.615 -21.420   5.736  1.00  0.00     0.020 A 
ENDBRANCH   3   6
ENDBRANCH   1   2
BRANCH   1  14
HETATM   14  C   UNL     1      43.243 -16.071   6.600  1.00  0.00    -0.036 A 
HETATM   15  C   UNL     1      44.022 -15.255   7.432  1.00  0.00     0.057 A 
HETATM   16  C   UNL     1      44.569 -14.066   6.948  1.00  0.00     0.101 A 
HETATM   17  N   UNL     1      44.297 -13.712   5.685  1.00  0.00    -0.353 N 
HETATM   18  H   UNL     1      44.656 -12.815   5.372  1.00  0.00     0.166 HD
HETATM   19  C   UNL     1      43.558 -14.457   4.852  1.00  0.00     0.090 A 
HETATM   20  C   UNL     1      43.013 -15.657   5.288  1.00  0.00     0.026 A 
BRANCH  16  21
HETATM   21  N   UNL     1      45.277 -13.202   7.793  1.00  0.00    -0.372 N 
HETATM   22  H   UNL     1      45.875 -12.560   7.267  1.00  0.00     0.161 HD
BRANCH  21  23
HETATM   23  C   UNL     1      44.693 -12.657   9.017  1.00  0.00     0.083 A 
HETATM   24  C   UNL     1      45.548 -12.055  10.096  1.00  0.00     0.027 A 
HETATM   25  C   UNL     1      44.695 -11.171   9.235  1.00  0.00     0.027 A 
ENDBRANCH  21  23
ENDBRANCH  16  21
ENDBRANCH   1  14
TORSDOF 5
ENDMDL
MODEL 8
REMARK VINA RESULT:      -7.2      2.773      4.644
REMARK  5 active torsions:
REMARK  status: ('A' for Active; 'I' for Inactive)
REMARK    1  A    between atoms: C_5  and  C_6 
REMARK       I    between atoms: C_6  and  N_7 
REMARK    2  A    between atoms: N_7  and  C_8 
REMARK    3  A    between atoms: C_8  and  C_9 
REMARK    4  A    between atoms: C_11  and  N_12 
REMARK    5  A    between atoms: N_12  and  C_13 
ROOT
HETATM    1  C   UNL     1      42.065 -15.087   1.057  1.00  0.00     0.161 C 
ENDROOT
BRANCH   1   2
HETATM    2  N   UNL     1      42.780 -16.223   1.587  1.00  0.00    -0.353 N 
HETATM    3  C   UNL     1      42.129 -17.317   2.116  1.00  0.00     0.255 C 
HETATM    4  O   UNL     1      40.906 -17.420   2.095  1.00  0.00    -0.268 OA
HETATM    5  H   UNL     1      43.791 -16.168   1.662  1.00  0.00     0.163 HD
BRANCH   3   6
HETATM    6  C   UNL     1      42.962 -18.399   2.713  1.00  0.00     0.071 A 
HETATM    7  C   UNL     1      43.264 -18.464   4.077  1.00  0.00     0.138 A 
HETATM    8  C   UNL     1      44.043 -19.502   4.602  1.00  0.00    -0.022 A 
HETATM    9  F   UNL     1      42.810 -17.517   4.917  1.00  0.00    -0.204 F 
HETATM   10  C   UNL     1      44.383 -19.544   6.063  1.00  0.00     0.051 C 
HETATM   11  C   UNL     1      44.552 -20.475   3.732  1.00  0.00     0.010 A 
HETATM   12  C   UNL     1      44.262 -20.421   2.369  1.00  0.00     0.002 A 
HETATM   13  C   UNL     1      43.469 -19.391   1.861  1.00  0.00     0.020 A 
ENDBRANCH   3   6
ENDBRANCH   1   2
BRANCH   1  14
HETATM   14  C   UNL     1      42.021 -13.958   2.061  1.00  0.00    -0.036 A 
HETATM   15  C   UNL     1      42.560 -14.134   3.343  1.00  0.00     0.057 A 
HETATM   16  C   UNL     1      42.469 -13.118   4.296  1.00  0.00     0.101 A 
HETATM   17  N   UNL     1      41.821 -11.993   3.962  1.00  0.00    -0.353 N 
HETATM   18  H   UNL     1      41.716 -11.292   4.688  1.00  0.00     0.166 HD
HETATM   19  C   UNL     1      41.290 -11.779   2.750  1.00  0.00     0.090 A 
HETATM   20  C   UNL     1      41.377 -12.756   1.768  1.00  0.00     0.026 A 
BRANCH  16  21
HETATM   21  N   UNL     1      42.927 -13.314   5.604  1.00  0.00    -0.372 N 
HETATM   22  H   UNL     1      42.159 -13.495   6.254  1.00  0.00     0.161 HD
BRANCH  21  23
HETATM   23  C   UNL     1      44.175 -14.016   5.895  1.00  0.00     0.083 A 
HETATM   24  C   UNL     1      44.876 -13.860   7.216  1.00  0.00     0.027 A 
HETATM   25  C   UNL     1      44.171 -15.144   6.887  1.00  0.00     0.027 A 
ENDBRANCH  21  23
ENDBRANCH  16  21
ENDBRANCH   1  14
TORSDOF 5
ENDMDL
MODEL 9
REMARK VINA RESULT:      -7.2      2.528      3.344
REMARK  5 active torsions:
REMARK  status: ('A' for Active; 'I' for Inactive)
REMARK    1  A    between atoms: C_5  and  C_6 
REMARK       I    between atoms: C_6  and  N_7 
REMARK    2  A    between atoms: N_7  and  C_8 
REMARK    3  A    between atoms: C_8  and  C_9 
REMARK    4  A    between atoms: C_11  and  N_12 
REMARK    5  A    between atoms: N_12  and  C_13 
ROOT
HETATM    1  C   UNL     1      42.243 -15.091   3.048  1.00  0.00     0.161 C 
ENDROOT
BRANCH   1   2
HETATM    2  N   UNL     1      42.953 -16.348   3.065  1.00  0.00    -0.353 N 
HETATM    3  C   UNL     1      42.441 -17.471   3.682  1.00  0.00     0.255 C 
HETATM    4  O   UNL     1      41.321 -17.483   4.184  1.00  0.00    -0.268 OA
HETATM    5  H   UNL     1      43.898 -16.377   2.698  1.00  0.00     0.163 HD
BRANCH   3   6
HETATM    6  C   UNL     1      43.291 -18.694   3.715  1.00  0.00     0.071 A 
HETATM    7  C   UNL     1      43.325 -19.628   2.674  1.00  0.00     0.138 A 
HETATM    8  C   UNL     1      44.144 -20.761   2.739  1.00  0.00    -0.022 A 
HETATM    9  F   UNL     1      42.558 -19.454   1.583  1.00  0.00    -0.204 F 
HETATM   10  C   UNL     1      44.148 -21.769   1.627  1.00  0.00     0.051 C 
HETATM   11  C   UNL     1      44.920 -20.973   3.885  1.00  0.00     0.010 A 
HETATM   12  C   UNL     1      44.895 -20.052   4.932  1.00  0.00     0.002 A 
HETATM   13  C   UNL     1      44.087 -18.917   4.848  1.00  0.00     0.020 A 
ENDBRANCH   3   6
ENDBRANCH   1   2
BRANCH   1  14
HETATM   14  C   UNL     1      41.414 -14.954   1.793  1.00  0.00    -0.036 A 
HETATM   15  C   UNL     1      40.098 -14.475   1.868  1.00  0.00     0.057 A 
HETATM   16  C   UNL     1      39.305 -14.403   0.722  1.00  0.00     0.101 A 
HETATM   17  N   UNL     1      39.823 -14.837  -0.435  1.00  0.00    -0.353 N 
HETATM   18  H   UNL     1      39.209 -14.831  -1.244  1.00  0.00     0.166 HD
HETATM   19  C   UNL     1      41.073 -15.303  -0.556  1.00  0.00     0.090 A 
HETATM   20  C   UNL     1      41.901 -15.371   0.555  1.00  0.00     0.026 A 
BRANCH  16  21
HETATM   21  N   UNL     1      37.963 -14.008   0.798  1.00  0.00    -0.372 N 
HETATM   22  H   UNL     1      37.576 -14.152   1.732  1.00  0.00     0.161 HD
BRANCH  21  23
HETATM   23  C   UNL     1      37.453 -12.842   0.079  1.00  0.00     0.083 A 
HETATM   24  C   UNL     1      36.680 -11.761   0.781  1.00  0.00     0.027 A 
HETATM   25  C   UNL     1      38.082 -11.498   0.317  1.00  0.00     0.027 A 
ENDBRANCH  21  23
ENDBRANCH  16  21
ENDBRANCH   1  14
TORSDOF 5
ENDMDL
MODEL 10
REMARK VINA RESULT:      -7.1      1.887      2.861
REMARK  5 active torsions:
REMARK  status: ('A' for Active; 'I' for Inactive)
REMARK    1  A    between atoms: C_5  and  C_6 
REMARK       I    between atoms: C_6  and  N_7 
REMARK    2  A    between atoms: N_7  and  C_8 
REMARK    3  A    between atoms: C_8  and  C_9 
REMARK    4  A    between atoms: C_11  and  N_12 
REMARK    5  A    between atoms: N_12  and  C_13 
ROOT
HETATM    1  C   UNL     1      42.989 -16.657   5.946  1.00  0.00     0.161 C 
ENDROOT
BRANCH   1   2
HETATM    2  N   UNL     1      43.151 -18.001   5.446  1.00  0.00    -0.353 N 
HETATM    3  C   UNL     1      44.376 -18.634   5.431  1.00  0.00     0.255 C 
HETATM    4  O   UNL     1      45.380 -18.119   5.914  1.00  0.00    -0.268 OA
HETATM    5  H   UNL     1      42.359 -18.452   5.000  1.00  0.00     0.163 HD
BRANCH   3   6
HETATM    6  C   UNL     1      44.450 -19.989   4.815  1.00  0.00     0.071 A 
HETATM    7  C   UNL     1      44.364 -20.205   3.436  1.00  0.00     0.138 A 
HETATM    8  C   UNL     1      44.447 -21.494   2.894  1.00  0.00    -0.022 A 
HETATM    9  F   UNL     1      44.194 -19.168   2.597  1.00  0.00    -0.204 F 
HETATM   10  C   UNL     1      44.325 -21.714   1.415  1.00  0.00     0.051 C 
HETATM   11  C   UNL     1      44.588 -22.586   3.760  1.00  0.00     0.010 A 
HETATM   12  C   UNL     1      44.671 -22.386   5.138  1.00  0.00     0.002 A 
HETATM   13  C   UNL     1      44.606 -21.095   5.664  1.00  0.00     0.020 A 
ENDBRANCH   3   6
ENDBRANCH   1   2
BRANCH   1  14
HETATM   14  C   UNL     1      42.957 -15.657   4.814  1.00  0.00    -0.036 A 
HETATM   15  C   UNL     1      42.609 -14.322   5.063  1.00  0.00     0.057 A 
HETATM   16  C   UNL     1      42.518 -13.406   4.014  1.00  0.00     0.101 A 
HETATM   17  N   UNL     1      42.733 -13.848   2.767  1.00  0.00    -0.353 N 
HETATM   18  H   UNL     1      42.604 -13.179   2.014  1.00  0.00     0.166 HD
HETATM   19  C   UNL     1      43.067 -15.113   2.479  1.00  0.00     0.090 A 
HETATM   20  C   UNL     1      43.189 -16.050   3.497  1.00  0.00     0.026 A 
BRANCH  16  21
HETATM   21  N   UNL     1      42.089 -12.092   4.239  1.00  0.00    -0.372 N 
HETATM   22  H   UNL     1      42.619 -11.418   3.683  1.00  0.00     0.161 HD
BRANCH  21  23
HETATM   23  C   UNL     1      40.683 -11.759   4.458  1.00  0.00     0.083 A 
HETATM   24  C   UNL     1      39.778 -11.379   3.320  1.00  0.00     0.027 A 
HETATM   25  C   UNL     1      39.620 -12.712   3.992  1.00  0.00     0.027 A 
ENDBRANCH  21  23
ENDBRANCH  16  21
ENDBRANCH   1  14
TORSDOF 5
ENDMDL
