MODEL 1
REMARK VINA RESULT:      -7.7      0.000      0.000
REMARK  10 active torsions:
REMARK  status: ('A' for Active; 'I' for Inactive)
REMARK    1  A    between atoms: C_2  and  C_3 
REMARK    2  A    between atoms: C_3  and  C_4 
REMARK    3  A    between atoms: N_7  and  C_9 
REMARK    4  A    between atoms: C_9  and  C_10 
REMARK    5  A    between atoms: C_11  and  O_12 
REMARK    6  A    between atoms: C_13  and  O_14 
REMARK    7  A    between atoms: O_14  and  C_15 
REMARK    8  A    between atoms: N_25  and  C_26 
REMARK    9  A    between atoms: C_26  and  C_27 
REMARK   10  A    between atoms: C_27  and  C_28 
ROOT
HETATM    1  C   UNL     1      40.995 -14.007   4.792  1.00  0.00     0.026 C 
HETATM    2  C   UNL     1      42.257 -14.529   5.504  1.00  0.00     0.035 C 
HETATM    3  C   UNL     1      43.245 -15.248   4.593  1.00  0.00     0.235 C 
HETATM    4  N   UNL     1      42.582 -16.317   3.760  1.00  0.00    -0.067 N 
HETATM    5  H   UNL     1      42.294 -17.082   4.382  1.00  0.00     0.280 HD
HETATM    6  C   UNL     1      41.334 -15.853   3.050  1.00  0.00     0.235 C 
HETATM    7  C   UNL     1      40.378 -15.188   4.022  1.00  0.00     0.035 C 
ENDROOT
BRANCH   1   8
HETATM    8  C   UNL     1      41.197 -12.693   3.966  1.00  0.00     0.119 C 
HETATM    9  N   UNL     1      42.247 -12.790   2.968  1.00  0.00    -0.324 N 
HETATM   10  C   UNL     1      41.801 -12.424   1.714  1.00  0.00     0.326 C 
HETATM   11  H   UNL     1      43.220 -12.562   3.141  1.00  0.00     0.165 HD
HETATM   12  O   UNL     1      42.557 -12.214   0.783  1.00  0.00    -0.247 OA
HETATM   13  N   UNL     1      40.448 -12.343   1.735  1.00  0.00    -0.268 N 
HETATM   14  C   UNL     1      39.993 -12.439   3.022  1.00  0.00     0.256 C 
HETATM   15  O   UNL     1      38.831 -12.349   3.389  1.00  0.00    -0.270 OA
BRANCH   8  16
HETATM   16  C   UNL     1      41.462 -11.420   4.804  1.00  0.00     0.037 C 
HETATM   17  C   UNL     1      40.650 -11.284   6.084  1.00  0.00     0.008 C 
ENDBRANCH   8  16
BRANCH  13  18
HETATM   18  C   UNL     1      39.627 -11.947   0.599  1.00  0.00     0.142 C 
BRANCH  18  19
HETATM   19  C   UNL     1      39.045 -13.141  -0.167  1.00  0.00     0.068 C 
BRANCH  19  20
HETATM   20  C   UNL     1      39.866 -13.480  -1.372  1.00  0.00     0.010 A 
HETATM   21  S   UNL     1      39.731 -12.552  -2.811  1.00  0.00    -0.085 SA
HETATM   22  C   UNL     1      40.897 -13.561  -3.554  1.00  0.00     0.166 A 
HETATM   23  N   UNL     1      41.375 -14.531  -2.809  1.00  0.00    -0.258 NA
HETATM   24  C   UNL     1      40.790 -14.498  -1.555  1.00  0.00     0.044 A 
HETATM   25  C   UNL     1      41.201 -15.528  -0.563  1.00  0.00     0.071 C 
ENDBRANCH  19  20
ENDBRANCH  18  19
ENDBRANCH  13  18
ENDBRANCH   1   8
BRANCH   4  26
HETATM   26  C   UNL     1      43.618 -16.918   2.802  1.00  0.00     0.276 C 
BRANCH  26  27
HETATM   27  C   UNL     1      43.786 -18.410   2.854  1.00  0.00     0.004 A 
HETATM   28  C   UNL     1      44.345 -19.018   3.986  1.00  0.00     0.107 A 
HETATM   29  C   UNL     1      44.534 -20.397   4.048  1.00  0.00     0.102 A 
HETATM   30  C   UNL     1      44.196 -21.196   2.964  1.00  0.00     0.039 A 
HETATM   31  C   UNL     1      43.635 -20.609   1.827  1.00  0.00     0.003 A 
HETATM   32  C   UNL     1      43.431 -19.225   1.769  1.00  0.00     0.012 A 
BRANCH  28  33
HETATM   33  O   UNL     1      44.751 -18.228   5.027  1.00  0.00    -0.357 OA
HETATM   34  H   UNL     1      45.711 -18.070   4.904  1.00  0.00     0.218 HD
ENDBRANCH  28  33
BRANCH  29  35
HETATM   35  O   UNL     1      45.148 -20.951   5.137  1.00  0.00    -0.349 OA
BRANCH  35  36
HETATM   36  C   UNL     1      44.275 -21.862   5.822  1.00  0.00     0.171 C 
HETATM   37  C   UNL     1      43.639 -21.127   6.985  1.00  0.00     0.034 C 
ENDBRANCH  35  36
ENDBRANCH  29  35
ENDBRANCH  26  27
ENDBRANCH   4  26
TORSDOF 10
ENDMDL
MODEL 2
REMARK VINA RESULT:      -7.7      1.717      2.083
REMARK  10 active torsions:
REMARK  status: ('A' for Active; 'I' for Inactive)
REMARK    1  A    between atoms: C_2  and  C_3 
REMARK    2  A    between atoms: C_3  and  C_4 
REMARK    3  A    between atoms: N_7  and  C_9 
REMARK    4  A    between atoms: C_9  and  C_10 
REMARK    5  A    between atoms: C_11  and  O_12 
REMARK    6  A    between atoms: C_13  and  O_14 
REMARK    7  A    between atoms: O_14  and  C_15 
REMARK    8  A    between atoms: N_25  and  C_26 
REMARK    9  A    between atoms: C_26  and  C_27 
REMARK   10  A    between atoms: C_27  and  C_28 
ROOT
HETATM    1  C   UNL     1      39.582 -14.425   2.872  1.00  0.00     0.026 C 
HETATM    2  C   UNL     1      40.367 -14.757   4.154  1.00  0.00     0.035 C 
HETATM    3  C   UNL     1      41.785 -15.263   3.915  1.00  0.00     0.235 C 
HETATM    4  N   UNL     1      41.828 -16.393   2.916  1.00  0.00    -0.067 N 
HETATM    5  H   UNL     1      41.392 -17.220   3.341  1.00  0.00     0.280 HD
HETATM    6  C   UNL     1      41.063 -16.116   1.645  1.00  0.00     0.235 C 
HETATM    7  C   UNL     1      39.650 -15.661   1.957  1.00  0.00     0.035 C 
ENDROOT
BRANCH   1   8
HETATM    8  C   UNL     1      39.960 -13.063   2.198  1.00  0.00     0.119 C 
HETATM    9  N   UNL     1      41.361 -12.966   1.830  1.00  0.00    -0.324 N 
HETATM   10  C   UNL     1      41.521 -12.619   0.504  1.00  0.00     0.326 C 
HETATM   11  H   UNL     1      42.087 -12.606   2.441  1.00  0.00     0.165 HD
HETATM   12  O   UNL     1      42.591 -12.264   0.043  1.00  0.00    -0.247 OA
HETATM   13  N   UNL     1      40.329 -12.737  -0.130  1.00  0.00    -0.268 N 
HETATM   14  C   UNL     1      39.333 -12.950   0.784  1.00  0.00     0.256 C 
HETATM   15  O   UNL     1      38.138 -13.044   0.546  1.00  0.00    -0.270 OA
BRANCH   8  16
HETATM   16  C   UNL     1      39.600 -11.800   3.016  1.00  0.00     0.037 C 
HETATM   17  C   UNL     1      40.768 -11.070   3.663  1.00  0.00     0.008 C 
ENDBRANCH   8  16
BRANCH  13  18
HETATM   18  C   UNL     1      40.105 -12.419  -1.533  1.00  0.00     0.142 C 
BRANCH  18  19
HETATM   19  C   UNL     1      40.223 -13.641  -2.452  1.00  0.00     0.068 C 
BRANCH  19  20
HETATM   20  C   UNL     1      38.929 -13.940  -3.143  1.00  0.00     0.010 A 
HETATM   21  S   UNL     1      37.696 -12.749  -3.243  1.00  0.00    -0.085 SA
HETATM   22  C   UNL     1      36.712 -13.860  -4.095  1.00  0.00     0.166 A 
HETATM   23  N   UNL     1      37.236 -15.045  -4.309  1.00  0.00    -0.258 NA
HETATM   24  C   UNL     1      38.507 -15.106  -3.765  1.00  0.00     0.044 A 
HETATM   25  C   UNL     1      39.267 -16.378  -3.901  1.00  0.00     0.071 C 
ENDBRANCH  19  20
ENDBRANCH  18  19
ENDBRANCH  13  18
ENDBRANCH   1   8
BRANCH   4  26
HETATM   26  C   UNL     1      43.290 -16.774   2.654  1.00  0.00     0.276 C 
BRANCH  26  27
HETATM   27  C   UNL     1      43.629 -18.233   2.763  1.00  0.00     0.004 A 
HETATM   28  C   UNL     1      44.167 -18.745   3.951  1.00  0.00     0.107 A 
HETATM   29  C   UNL     1      44.512 -20.090   4.069  1.00  0.00     0.102 A 
HETATM   30  C   UNL     1      44.355 -20.947   2.988  1.00  0.00     0.039 A 
HETATM   31  C   UNL     1      43.816 -20.456   1.796  1.00  0.00     0.003 A 
HETATM   32  C   UNL     1      43.455 -19.108   1.681  1.00  0.00     0.012 A 
BRANCH  28  33
HETATM   33  O   UNL     1      44.397 -17.890   4.995  1.00  0.00    -0.357 OA
HETATM   34  H   UNL     1      43.805 -17.119   4.864  1.00  0.00     0.218 HD
ENDBRANCH  28  33
BRANCH  29  35
HETATM   35  O   UNL     1      45.102 -20.543   5.216  1.00  0.00    -0.349 OA
BRANCH  35  36
HETATM   36  C   UNL     1      44.352 -21.619   5.800  1.00  0.00     0.171 C 
HETATM   37  C   UNL     1      43.648 -21.092   7.034  1.00  0.00     0.034 C 
ENDBRANCH  35  36
ENDBRANCH  29  35
ENDBRANCH  26  27
ENDBRANCH   4  26
TORSDOF 10
ENDMDL
MODEL 3
REMARK VINA RESULT:      -7.6      1.971      3.047
REMARK  10 active torsions:
REMARK  status: ('A' for Active; 'I' for Inactive)
REMARK    1  A    between atoms: C_2  and  C_3 
REMARK    2  A    between atoms: C_3  and  C_4 
REMARK    3  A    between atoms: N_7  and  C_9 
REMARK    4  A    between atoms: C_9  and  C_10 
REMARK    5  A    between atoms: C_11  and  O_12 
REMARK    6  A    between atoms: C_13  and  O_14 
REMARK    7  A    between atoms: O_14  and  C_15 
REMARK    8  A    between atoms: N_25  and  C_26 
REMARK    9  A    between atoms: C_26  and  C_27 
REMARK   10  A    between atoms: C_27  and  C_28 
ROOT
HETATM    1  C   UNL     1      41.550 -13.344   4.753  1.00  0.00     0.026 C 
HETATM    2  C   UNL     1      42.924 -13.676   5.364  1.00  0.00     0.035 C 
HETATM    3  C   UNL     1      43.086 -15.127   5.802  1.00  0.00     0.235 C 
HETATM    4  N   UNL     1      41.950 -15.589   6.681  1.00  0.00    -0.067 N 
HETATM    5  H   UNL     1      42.016 -15.101   7.583  1.00  0.00     0.280 HD
HETATM    6  C   UNL     1      40.582 -15.276   6.128  1.00  0.00     0.235 C 
HETATM    7  C   UNL     1      40.476 -13.809   5.754  1.00  0.00     0.035 C 
ENDROOT
BRANCH   1   8
HETATM    8  C   UNL     1      41.349 -13.818   3.275  1.00  0.00     0.119 C 
HETATM    9  N   UNL     1      40.510 -14.998   3.154  1.00  0.00    -0.324 N 
HETATM   10  C   UNL     1      39.471 -14.801   2.267  1.00  0.00     0.326 C 
HETATM   11  H   UNL     1      40.860 -15.950   3.173  1.00  0.00     0.165 HD
HETATM   12  O   UNL     1      38.787 -15.715   1.843  1.00  0.00    -0.247 OA
HETATM   13  N   UNL     1      39.383 -13.479   1.978  1.00  0.00    -0.268 N 
HETATM   14  C   UNL     1      40.468 -12.816   2.484  1.00  0.00     0.256 C 
HETATM   15  O   UNL     1      40.719 -11.628   2.351  1.00  0.00    -0.270 OA
BRANCH   8  16
HETATM   16  C   UNL     1      42.651 -14.085   2.484  1.00  0.00     0.037 C 
HETATM   17  C   UNL     1      42.979 -15.546   2.213  1.00  0.00     0.008 C 
ENDBRANCH   8  16
BRANCH  13  18
HETATM   18  C   UNL     1      38.425 -12.900   1.047  1.00  0.00     0.142 C 
BRANCH  18  19
HETATM   19  C   UNL     1      38.621 -13.382  -0.395  1.00  0.00     0.068 C 
BRANCH  19  20
HETATM   20  C   UNL     1      39.984 -13.042  -0.912  1.00  0.00     0.010 A 
HETATM   21  S   UNL     1      40.400 -11.415  -1.276  1.00  0.00    -0.085 SA
HETATM   22  C   UNL     1      41.959 -11.936  -1.753  1.00  0.00     0.166 A 
HETATM   23  N   UNL     1      42.188 -13.225  -1.657  1.00  0.00    -0.258 NA
HETATM   24  C   UNL     1      41.061 -13.873  -1.180  1.00  0.00     0.044 A 
HETATM   25  C   UNL     1      41.123 -15.349  -1.007  1.00  0.00     0.071 C 
ENDBRANCH  19  20
ENDBRANCH  18  19
ENDBRANCH  13  18
ENDBRANCH   1   8
BRANCH   4  26
HETATM   26  C   UNL     1      42.133 -17.080   6.993  1.00  0.00     0.276 C 
BRANCH  26  27
HETATM   27  C   UNL     1      43.013 -17.854   6.054  1.00  0.00     0.004 A 
HETATM   28  C   UNL     1      42.554 -18.190   4.774  1.00  0.00     0.107 A 
HETATM   29  C   UNL     1      43.342 -18.928   3.892  1.00  0.00     0.102 A 
HETATM   30  C   UNL     1      44.597 -19.374   4.287  1.00  0.00     0.039 A 
HETATM   31  C   UNL     1      45.074 -19.046   5.558  1.00  0.00     0.003 A 
HETATM   32  C   UNL     1      44.289 -18.291   6.439  1.00  0.00     0.012 A 
BRANCH  28  33
HETATM   33  O   UNL     1      41.289 -17.821   4.407  1.00  0.00    -0.357 OA
HETATM   34  H   UNL     1      41.264 -17.834   3.426  1.00  0.00     0.218 HD
ENDBRANCH  28  33
BRANCH  29  35
HETATM   35  O   UNL     1      42.838 -19.302   2.678  1.00  0.00    -0.349 OA
BRANCH  35  36
HETATM   36  C   UNL     1      43.819 -20.003   1.898  1.00  0.00     0.171 C 
HETATM   37  C   UNL     1      43.389 -21.452   1.784  1.00  0.00     0.034 C 
ENDBRANCH  35  36
ENDBRANCH  29  35
ENDBRANCH  26  27
ENDBRANCH   4  26
TORSDOF 10
ENDMDL
MODEL 4
REMARK VINA RESULT:      -7.6      3.084      7.662
REMARK  10 active torsions:
REMARK  status: ('A' for Active; 'I' for Inactive)
REMARK    1  A    between atoms: C_2  and  C_3 
REMARK    2  A    between atoms: C_3  and  C_4 
REMARK    3  A    between atoms: N_7  and  C_9 
REMARK    4  A    between atoms: C_9  and  C_10 
REMARK    5  A    between atoms: C_11  and  O_12 
REMARK    6  A    between atoms: C_13  and  O_14 
REMARK    7  A    between atoms: O_14  and  C_15 
REMARK    8  A    between atoms: N_25  and  C_26 
REMARK    9  A    between atoms: C_26  and  C_27 
REMARK   10  A    between atoms: C_27  and  C_28 
ROOT
HETATM    1  C   UNL     1      42.607 -14.173   4.661  1.00  0.00     0.026 C 
HETATM    2  C   UNL     1      41.903 -12.831   4.935  1.00  0.00     0.035 C 
HETATM    3  C   UNL     1      41.196 -12.230   3.727  1.00  0.00     0.235 C 
HETATM    4  N   UNL     1      42.091 -12.161   2.514  1.00  0.00    -0.067 N 
HETATM    5  H   UNL     1      42.820 -11.458   2.687  1.00  0.00     0.280 HD
HETATM    6  C   UNL     1      42.811 -13.452   2.212  1.00  0.00     0.235 C 
HETATM    7  C   UNL     1      43.529 -13.970   3.444  1.00  0.00     0.035 C 
ENDROOT
BRANCH   1   8
HETATM    8  C   UNL     1      41.659 -15.416   4.591  1.00  0.00     0.119 C 
HETATM    9  N   UNL     1      40.851 -15.463   3.386  1.00  0.00    -0.324 N 
HETATM   10  C   UNL     1      40.978 -16.671   2.728  1.00  0.00     0.326 C 
HETATM   11  H   UNL     1      39.933 -15.042   3.299  1.00  0.00     0.165 HD
HETATM   12  O   UNL     1      40.228 -17.012   1.831  1.00  0.00    -0.247 OA
HETATM   13  N   UNL     1      42.025 -17.351   3.255  1.00  0.00    -0.268 N 
HETATM   14  C   UNL     1      42.470 -16.723   4.386  1.00  0.00     0.256 C 
HETATM   15  O   UNL     1      43.362 -17.108   5.127  1.00  0.00    -0.270 OA
BRANCH   8  16
HETATM   16  C   UNL     1      40.710 -15.592   5.800  1.00  0.00     0.037 C 
HETATM   17  C   UNL     1      40.627 -16.994   6.384  1.00  0.00     0.008 C 
ENDBRANCH   8  16
BRANCH  13  18
HETATM   18  C   UNL     1      42.439 -18.683   2.836  1.00  0.00     0.142 C 
BRANCH  18  19
HETATM   19  C   UNL     1      43.956 -18.892   2.909  1.00  0.00     0.068 C 
BRANCH  19  20
HETATM   20  C   UNL     1      44.304 -20.220   3.505  1.00  0.00     0.010 A 
HETATM   21  S   UNL     1      44.746 -20.349   5.159  1.00  0.00    -0.085 SA
HETATM   22  C   UNL     1      44.951 -22.036   4.959  1.00  0.00     0.166 A 
HETATM   23  N   UNL     1      44.712 -22.505   3.756  1.00  0.00    -0.258 NA
HETATM   24  C   UNL     1      44.343 -21.473   2.910  1.00  0.00     0.044 A 
HETATM   25  C   UNL     1      44.035 -21.806   1.493  1.00  0.00     0.071 C 
ENDBRANCH  19  20
ENDBRANCH  18  19
ENDBRANCH  13  18
ENDBRANCH   1   8
BRANCH   4  26
HETATM   26  C   UNL     1      41.279 -11.644   1.321  1.00  0.00     0.276 C 
BRANCH  26  27
HETATM   27  C   UNL     1      41.582 -12.268  -0.012  1.00  0.00     0.004 A 
HETATM   28  C   UNL     1      40.977 -13.477  -0.378  1.00  0.00     0.107 A 
HETATM   29  C   UNL     1      41.260 -14.089  -1.597  1.00  0.00     0.102 A 
HETATM   30  C   UNL     1      42.181 -13.517  -2.466  1.00  0.00     0.039 A 
HETATM   31  C   UNL     1      42.793 -12.310  -2.120  1.00  0.00     0.003 A 
HETATM   32  C   UNL     1      42.497 -11.686  -0.901  1.00  0.00     0.012 A 
BRANCH  28  33
HETATM   33  O   UNL     1      40.128 -14.086   0.506  1.00  0.00    -0.357 OA
HETATM   34  H   UNL     1      39.505 -14.624  -0.026  1.00  0.00     0.218 HD
ENDBRANCH  28  33
BRANCH  29  35
HETATM   35  O   UNL     1      40.710 -15.304  -1.893  1.00  0.00    -0.349 OA
BRANCH  35  36
HETATM   36  C   UNL     1      40.224 -15.343  -3.244  1.00  0.00     0.171 C 
HETATM   37  C   UNL     1      38.801 -14.819  -3.252  1.00  0.00     0.034 C 
ENDBRANCH  35  36
ENDBRANCH  29  35
ENDBRANCH  26  27
ENDBRANCH   4  26
TORSDOF 10
ENDMDL
MODEL 5
REMARK VINA RESULT:      -7.5      4.188      7.182
REMARK  10 active torsions:
REMARK  status: ('A' for Active; 'I' for Inactive)
REMARK    1  A    between atoms: C_2  and  C_3 
REMARK    2  A    between atoms: C_3  and  C_4 
REMARK    3  A    between atoms: N_7  and  C_9 
REMARK    4  A    between atoms: C_9  and  C_10 
REMARK    5  A    between atoms: C_11  and  O_12 
REMARK    6  A    between atoms: C_13  and  O_14 
REMARK    7  A    between atoms: O_14  and  C_15 
REMARK    8  A    between atoms: N_25  and  C_26 
REMARK    9  A    between atoms: C_26  and  C_27 
REMARK   10  A    between atoms: C_27  and  C_28 
ROOT
HETATM    1  C   UNL     1      40.960 -12.290   3.907  1.00  0.00     0.026 C 
HETATM    2  C   UNL     1      40.382 -13.454   3.080  1.00  0.00     0.035 C 
HETATM    3  C   UNL     1      40.248 -14.766   3.844  1.00  0.00     0.235 C 
HETATM    4  N   UNL     1      41.526 -15.152   4.548  1.00  0.00    -0.067 N 
HETATM    5  H   UNL     1      42.224 -15.406   3.839  1.00  0.00     0.280 HD
HETATM    6  C   UNL     1      42.135 -14.038   5.364  1.00  0.00     0.235 C 
HETATM    7  C   UNL     1      42.280 -12.779   4.530  1.00  0.00     0.035 C 
ENDROOT
BRANCH   1   8
HETATM    8  C   UNL     1      39.952 -11.616   4.897  1.00  0.00     0.119 C 
HETATM    9  N   UNL     1      39.443 -12.522   5.913  1.00  0.00    -0.324 N 
HETATM   10  C   UNL     1      39.616 -12.017   7.185  1.00  0.00     0.326 C 
HETATM   11  H   UNL     1      38.608 -13.087   5.804  1.00  0.00     0.165 HD
HETATM   12  O   UNL     1      39.068 -12.495   8.162  1.00  0.00    -0.247 OA
HETATM   13  N   UNL     1      40.453 -10.952   7.127  1.00  0.00    -0.268 N 
HETATM   14  C   UNL     1      40.676 -10.603   5.823  1.00  0.00     0.256 C 
HETATM   15  O   UNL     1      41.338  -9.654   5.428  1.00  0.00    -0.270 OA
BRANCH   8  16
HETATM   16  C   UNL     1      38.739 -10.923   4.235  1.00  0.00     0.037 C 
HETATM   17  C   UNL     1      38.996 -10.283   2.879  1.00  0.00     0.008 C 
ENDBRANCH   8  16
BRANCH  13  18
HETATM   18  C   UNL     1      40.839 -10.142   8.274  1.00  0.00     0.142 C 
BRANCH  18  19
HETATM   19  C   UNL     1      42.223 -10.502   8.826  1.00  0.00     0.068 C 
BRANCH  19  20
HETATM   20  C   UNL     1      42.170 -10.817  10.289  1.00  0.00     0.010 A 
HETATM   21  S   UNL     1      40.662 -10.974  11.096  1.00  0.00    -0.085 SA
HETATM   22  C   UNL     1      41.494 -11.290  12.558  1.00  0.00     0.166 A 
HETATM   23  N   UNL     1      42.805 -11.287  12.485  1.00  0.00    -0.258 NA
HETATM   24  C   UNL     1      43.207 -11.013  11.189  1.00  0.00     0.044 A 
HETATM   25  C   UNL     1      44.666 -10.962  10.905  1.00  0.00     0.071 C 
ENDBRANCH  19  20
ENDBRANCH  18  19
ENDBRANCH  13  18
ENDBRANCH   1   8
BRANCH   4  26
HETATM   26  C   UNL     1      41.279 -16.421   5.373  1.00  0.00     0.276 C 
BRANCH  26  27
HETATM   27  C   UNL     1      42.333 -17.488   5.285  1.00  0.00     0.004 A 
HETATM   28  C   UNL     1      42.693 -18.022   4.041  1.00  0.00     0.107 A 
HETATM   29  C   UNL     1      43.651 -19.030   3.936  1.00  0.00     0.102 A 
HETATM   30  C   UNL     1      44.246 -19.547   5.079  1.00  0.00     0.039 A 
HETATM   31  C   UNL     1      43.902 -19.025   6.328  1.00  0.00     0.003 A 
HETATM   32  C   UNL     1      42.952 -18.002   6.434  1.00  0.00     0.012 A 
BRANCH  28  33
HETATM   33  O   UNL     1      42.055 -17.571   2.918  1.00  0.00    -0.357 OA
HETATM   34  H   UNL     1      42.714 -17.588   2.192  1.00  0.00     0.218 HD
ENDBRANCH  28  33
BRANCH  29  35
HETATM   35  O   UNL     1      43.927 -19.580   2.716  1.00  0.00    -0.349 OA
BRANCH  35  36
HETATM   36  C   UNL     1      44.531 -20.876   2.852  1.00  0.00     0.171 C 
HETATM   37  C   UNL     1      43.985 -21.772   1.758  1.00  0.00     0.034 C 
ENDBRANCH  35  36
ENDBRANCH  29  35
ENDBRANCH  26  27
ENDBRANCH   4  26
TORSDOF 10
ENDMDL
MODEL 6
REMARK VINA RESULT:      -7.5      3.998      8.637
REMARK  10 active torsions:
REMARK  status: ('A' for Active; 'I' for Inactive)
REMARK    1  A    between atoms: C_2  and  C_3 
REMARK    2  A    between atoms: C_3  and  C_4 
REMARK    3  A    between atoms: N_7  and  C_9 
REMARK    4  A    between atoms: C_9  and  C_10 
REMARK    5  A    between atoms: C_11  and  O_12 
REMARK    6  A    between atoms: C_13  and  O_14 
REMARK    7  A    between atoms: O_14  and  C_15 
REMARK    8  A    between atoms: N_25  and  C_26 
REMARK    9  A    between atoms: C_26  and  C_27 
REMARK   10  A    between atoms: C_27  and  C_28 
ROOT
HETATM    1  C   UNL     1      40.655 -14.293   3.995  1.00  0.00     0.026 C 
HETATM    2  C   UNL     1      40.814 -12.945   3.267  1.00  0.00     0.035 C 
HETATM    3  C   UNL     1      41.386 -11.825   4.128  1.00  0.00     0.235 C 
HETATM    4  N   UNL     1      40.650 -11.677   5.438  1.00  0.00    -0.067 N 
HETATM    5  H   UNL     1      39.708 -11.316   5.243  1.00  0.00     0.280 HD
HETATM    6  C   UNL     1      40.462 -12.975   6.183  1.00  0.00     0.235 C 
HETATM    7  C   UNL     1      39.849 -14.030   5.281  1.00  0.00     0.035 C 
ENDROOT
BRANCH   1   8
HETATM    8  C   UNL     1      41.980 -15.105   4.182  1.00  0.00     0.119 C 
HETATM    9  N   UNL     1      41.972 -15.969   5.350  1.00  0.00    -0.324 N 
HETATM   10  C   UNL     1      42.294 -17.272   5.028  1.00  0.00     0.326 C 
HETATM   11  H   UNL     1      42.283 -15.683   6.271  1.00  0.00     0.165 HD
HETATM   12  O   UNL     1      42.567 -18.108   5.871  1.00  0.00    -0.247 OA
HETATM   13  N   UNL     1      42.257 -17.415   3.681  1.00  0.00    -0.268 N 
HETATM   14  C   UNL     1      42.126 -16.191   3.083  1.00  0.00     0.256 C 
HETATM   15  O   UNL     1      42.116 -15.967   1.882  1.00  0.00    -0.270 OA
BRANCH   8  16
HETATM   16  C   UNL     1      43.273 -14.258   4.233  1.00  0.00     0.037 C 
HETATM   17  C   UNL     1      43.892 -14.070   5.611  1.00  0.00     0.008 C 
ENDBRANCH   8  16
BRANCH  13  18
HETATM   18  C   UNL     1      42.578 -18.647   2.973  1.00  0.00     0.142 C 
BRANCH  18  19
HETATM   19  C   UNL     1      44.078 -18.964   2.968  1.00  0.00     0.068 C 
BRANCH  19  20
HETATM   20  C   UNL     1      44.357 -20.327   3.522  1.00  0.00     0.010 A 
HETATM   21  S   UNL     1      44.769 -20.531   5.177  1.00  0.00    -0.085 SA
HETATM   22  C   UNL     1      44.901 -22.218   4.920  1.00  0.00     0.166 A 
HETATM   23  N   UNL     1      44.660 -22.634   3.698  1.00  0.00    -0.258 NA
HETATM   24  C   UNL     1      44.350 -21.558   2.884  1.00  0.00     0.044 A 
HETATM   25  C   UNL     1      44.048 -21.828   1.452  1.00  0.00     0.071 C 
ENDBRANCH  19  20
ENDBRANCH  18  19
ENDBRANCH  13  18
ENDBRANCH   1   8
BRANCH   4  26
HETATM   26  C   UNL     1      41.347 -10.605   6.285  1.00  0.00     0.276 C 
BRANCH  26  27
HETATM   27  C   UNL     1      40.953 -10.541   7.733  1.00  0.00     0.004 A 
HETATM   28  C   UNL     1      41.920 -10.698   8.734  1.00  0.00     0.107 A 
HETATM   29  C   UNL     1      41.576 -10.667  10.085  1.00  0.00     0.102 A 
HETATM   30  C   UNL     1      40.249 -10.508  10.461  1.00  0.00     0.039 A 
HETATM   31  C   UNL     1      39.271 -10.346   9.478  1.00  0.00     0.003 A 
HETATM   32  C   UNL     1      39.617 -10.363   8.121  1.00  0.00     0.012 A 
BRANCH  28  33
HETATM   33  O   UNL     1      43.218 -10.932   8.369  1.00  0.00    -0.357 OA
HETATM   34  H   UNL     1      43.354 -11.903   8.415  1.00  0.00     0.218 HD
ENDBRANCH  28  33
BRANCH  29  35
HETATM   35  O   UNL     1      42.531 -10.896  11.035  1.00  0.00    -0.349 OA
BRANCH  35  36
HETATM   36  C   UNL     1      43.038  -9.666  11.574  1.00  0.00     0.171 C 
HETATM   37  C   UNL     1      43.303  -9.868  13.053  1.00  0.00     0.034 C 
ENDBRANCH  35  36
ENDBRANCH  29  35
ENDBRANCH  26  27
ENDBRANCH   4  26
TORSDOF 10
ENDMDL
MODEL 7
REMARK VINA RESULT:      -7.3      4.343      8.778
REMARK  10 active torsions:
REMARK  status: ('A' for Active; 'I' for Inactive)
REMARK    1  A    between atoms: C_2  and  C_3 
REMARK    2  A    between atoms: C_3  and  C_4 
REMARK    3  A    between atoms: N_7  and  C_9 
REMARK    4  A    between atoms: C_9  and  C_10 
REMARK    5  A    between atoms: C_11  and  O_12 
REMARK    6  A    between atoms: C_13  and  O_14 
REMARK    7  A    between atoms: O_14  and  C_15 
REMARK    8  A    between atoms: N_25  and  C_26 
REMARK    9  A    between atoms: C_26  and  C_27 
REMARK   10  A    between atoms: C_27  and  C_28 
ROOT
HETATM    1  C   UNL     1      40.020 -12.972   4.964  1.00  0.00     0.026 C 
HETATM    2  C   UNL     1      40.366 -11.571   4.426  1.00  0.00     0.035 C 
HETATM    3  C   UNL     1      40.986 -10.634   5.457  1.00  0.00     0.235 C 
HETATM    4  N   UNL     1      40.177 -10.567   6.729  1.00  0.00    -0.067 N 
HETATM    5  H   UNL     1      39.293 -10.085   6.528  1.00  0.00     0.280 HD
HETATM    6  C   UNL     1      39.805 -11.918   7.289  1.00  0.00     0.235 C 
HETATM    7  C   UNL     1      39.155 -12.781   6.223  1.00  0.00     0.035 C 
ENDROOT
BRANCH   1   8
HETATM    8  C   UNL     1      41.239 -13.941   5.121  1.00  0.00     0.119 C 
HETATM    9  N   UNL     1      41.119 -14.846   6.251  1.00  0.00    -0.324 N 
HETATM   10  C   UNL     1      41.290 -16.163   5.875  1.00  0.00     0.326 C 
HETATM   11  H   UNL     1      41.454 -14.638   7.185  1.00  0.00     0.165 HD
HETATM   12  O   UNL     1      41.456 -17.060   6.682  1.00  0.00    -0.247 OA
HETATM   13  N   UNL     1      41.249 -16.244   4.522  1.00  0.00    -0.268 N 
HETATM   14  C   UNL     1      41.267 -14.989   3.977  1.00  0.00     0.256 C 
HETATM   15  O   UNL     1      41.295 -14.716   2.787  1.00  0.00    -0.270 OA
BRANCH   8  16
HETATM   16  C   UNL     1      42.622 -13.254   5.214  1.00  0.00     0.037 C 
HETATM   17  C   UNL     1      43.549 -13.768   6.306  1.00  0.00     0.008 C 
ENDBRANCH   8  16
BRANCH  13  18
HETATM   18  C   UNL     1      41.430 -17.474   3.763  1.00  0.00     0.142 C 
BRANCH  18  19
HETATM   19  C   UNL     1      42.817 -17.583   3.118  1.00  0.00     0.068 C 
BRANCH  19  20
HETATM   20  C   UNL     1      43.611 -18.710   3.700  1.00  0.00     0.010 A 
HETATM   21  S   UNL     1      44.314 -18.569   5.261  1.00  0.00    -0.085 SA
HETATM   22  C   UNL     1      44.957 -20.147   5.098  1.00  0.00     0.166 A 
HETATM   23  N   UNL     1      44.683 -20.765   3.972  1.00  0.00    -0.258 NA
HETATM   24  C   UNL     1      43.915 -19.950   3.158  1.00  0.00     0.044 A 
HETATM   25  C   UNL     1      43.506 -20.475   1.827  1.00  0.00     0.071 C 
ENDBRANCH  19  20
ENDBRANCH  18  19
ENDBRANCH  13  18
ENDBRANCH   1   8
BRANCH   4  26
HETATM   26  C   UNL     1      40.916  -9.690   7.747  1.00  0.00     0.276 C 
BRANCH  26  27
HETATM   27  C   UNL     1      40.484  -9.823   9.179  1.00  0.00     0.004 A 
HETATM   28  C   UNL     1      41.281 -10.525  10.094  1.00  0.00     0.107 A 
HETATM   29  C   UNL     1      40.890 -10.683  11.422  1.00  0.00     0.102 A 
HETATM   30  C   UNL     1      39.676 -10.168  11.857  1.00  0.00     0.039 A 
HETATM   31  C   UNL     1      38.869  -9.462  10.961  1.00  0.00     0.003 A 
HETATM   32  C   UNL     1      39.268  -9.289   9.630  1.00  0.00     0.012 A 
BRANCH  28  33
HETATM   33  O   UNL     1      42.441 -11.101   9.653  1.00  0.00    -0.357 OA
HETATM   34  H   UNL     1      42.698 -11.767  10.326  1.00  0.00     0.218 HD
ENDBRANCH  28  33
BRANCH  29  35
HETATM   35  O   UNL     1      41.653 -11.435  12.271  1.00  0.00    -0.349 OA
BRANCH  35  36
HETATM   36  C   UNL     1      42.050 -10.678  13.425  1.00  0.00     0.171 C 
HETATM   37  C   UNL     1      43.292  -9.885  13.069  1.00  0.00     0.034 C 
ENDBRANCH  35  36
ENDBRANCH  29  35
ENDBRANCH  26  27
ENDBRANCH   4  26
TORSDOF 10
ENDMDL
MODEL 8
REMARK VINA RESULT:      -7.2      2.954      8.047
REMARK  10 active torsions:
REMARK  status: ('A' for Active; 'I' for Inactive)
REMARK    1  A    between atoms: C_2  and  C_3 
REMARK    2  A    between atoms: C_3  and  C_4 
REMARK    3  A    between atoms: N_7  and  C_9 
REMARK    4  A    between atoms: C_9  and  C_10 
REMARK    5  A    between atoms: C_11  and  O_12 
REMARK    6  A    between atoms: C_13  and  O_14 
REMARK    7  A    between atoms: O_14  and  C_15 
REMARK    8  A    between atoms: N_25  and  C_26 
REMARK    9  A    between atoms: C_26  and  C_27 
REMARK   10  A    between atoms: C_27  and  C_28 
ROOT
HETATM    1  C   UNL     1      41.724 -14.102   5.159  1.00  0.00     0.026 C 
HETATM    2  C   UNL     1      40.496 -14.802   4.547  1.00  0.00     0.035 C 
HETATM    3  C   UNL     1      40.698 -15.299   3.121  1.00  0.00     0.235 C 
HETATM    4  N   UNL     1      41.248 -14.225   2.213  1.00  0.00    -0.067 N 
HETATM    5  H   UNL     1      40.521 -13.513   2.075  1.00  0.00     0.280 HD
HETATM    6  C   UNL     1      42.447 -13.504   2.776  1.00  0.00     0.235 C 
HETATM    7  C   UNL     1      42.162 -12.999   4.179  1.00  0.00     0.035 C 
ENDROOT
BRANCH   1   8
HETATM    8  C   UNL     1      42.859 -15.062   5.648  1.00  0.00     0.119 C 
HETATM    9  N   UNL     1      42.597 -15.657   6.948  1.00  0.00    -0.324 N 
HETATM   10  C   UNL     1      42.705 -17.033   6.914  1.00  0.00     0.326 C 
HETATM   11  H   UNL     1      42.878 -15.243   7.830  1.00  0.00     0.165 HD
HETATM   12  O   UNL     1      42.750 -17.712   7.924  1.00  0.00    -0.247 OA
HETATM   13  N   UNL     1      42.755 -17.440   5.623  1.00  0.00    -0.268 N 
HETATM   14  C   UNL     1      42.897 -16.358   4.796  1.00  0.00     0.256 C 
HETATM   15  O   UNL     1      43.029 -16.386   3.582  1.00  0.00    -0.270 OA
BRANCH   8  16
HETATM   16  C   UNL     1      44.275 -14.442   5.693  1.00  0.00     0.037 C 
HETATM   17  C   UNL     1      44.799 -14.076   7.074  1.00  0.00     0.008 C 
ENDBRANCH   8  16
BRANCH  13  18
HETATM   18  C   UNL     1      42.906 -18.825   5.199  1.00  0.00     0.142 C 
BRANCH  18  19
HETATM   19  C   UNL     1      44.297 -19.131   4.630  1.00  0.00     0.068 C 
BRANCH  19  20
HETATM   20  C   UNL     1      44.264 -20.290   3.683  1.00  0.00     0.010 A 
HETATM   21  S   UNL     1      43.728 -20.081   2.064  1.00  0.00    -0.085 SA
HETATM   22  C   UNL     1      43.997 -21.746   1.776  1.00  0.00     0.166 A 
HETATM   23  N   UNL     1      44.456 -22.438   2.793  1.00  0.00    -0.258 NA
HETATM   24  C   UNL     1      44.611 -21.616   3.895  1.00  0.00     0.044 A 
HETATM   25  C   UNL     1      45.119 -22.222   5.155  1.00  0.00     0.071 C 
ENDBRANCH  19  20
ENDBRANCH  18  19
ENDBRANCH  13  18
ENDBRANCH   1   8
BRANCH   4  26
HETATM   26  C   UNL     1      41.518 -14.829   0.830  1.00  0.00     0.276 C 
BRANCH  26  27
HETATM   27  C   UNL     1      41.020 -14.043  -0.349  1.00  0.00     0.004 A 
HETATM   28  C   UNL     1      39.648 -13.975  -0.624  1.00  0.00     0.107 A 
HETATM   29  C   UNL     1      39.164 -13.272  -1.725  1.00  0.00     0.102 A 
HETATM   30  C   UNL     1      40.047 -12.647  -2.595  1.00  0.00     0.039 A 
HETATM   31  C   UNL     1      41.418 -12.699  -2.337  1.00  0.00     0.003 A 
HETATM   32  C   UNL     1      41.906 -13.393  -1.222  1.00  0.00     0.012 A 
BRANCH  28  33
HETATM   33  O   UNL     1      38.778 -14.654   0.186  1.00  0.00    -0.357 OA
HETATM   34  H   UNL     1      38.153 -13.990   0.547  1.00  0.00     0.218 HD
ENDBRANCH  28  33
BRANCH  29  35
HETATM   35  O   UNL     1      37.826 -13.286  -2.007  1.00  0.00    -0.349 OA
BRANCH  35  36
HETATM   36  C   UNL     1      37.584 -13.640  -3.377  1.00  0.00     0.171 C 
HETATM   37  C   UNL     1      37.438 -15.147  -3.460  1.00  0.00     0.034 C 
ENDBRANCH  35  36
ENDBRANCH  29  35
ENDBRANCH  26  27
ENDBRANCH   4  26
TORSDOF 10
ENDMDL
MODEL 9
REMARK VINA RESULT:      -7.2      3.382      8.325
REMARK  10 active torsions:
REMARK  status: ('A' for Active; 'I' for Inactive)
REMARK    1  A    between atoms: C_2  and  C_3 
REMARK    2  A    between atoms: C_3  and  C_4 
REMARK    3  A    between atoms: N_7  and  C_9 
REMARK    4  A    between atoms: C_9  and  C_10 
REMARK    5  A    between atoms: C_11  and  O_12 
REMARK    6  A    between atoms: C_13  and  O_14 
REMARK    7  A    between atoms: O_14  and  C_15 
REMARK    8  A    between atoms: N_25  and  C_26 
REMARK    9  A    between atoms: C_26  and  C_27 
REMARK   10  A    between atoms: C_27  and  C_28 
ROOT
HETATM    1  C   UNL     1      43.039 -14.284   3.735  1.00  0.00     0.026 C 
HETATM    2  C   UNL     1      42.197 -13.118   3.184  1.00  0.00     0.035 C 
HETATM    3  C   UNL     1      41.076 -13.538   2.242  1.00  0.00     0.235 C 
HETATM    4  N   UNL     1      41.563 -14.452   1.144  1.00  0.00    -0.067 N 
HETATM    5  H   UNL     1      42.162 -13.910   0.510  1.00  0.00     0.280 HD
HETATM    6  C   UNL     1      42.401 -15.606   1.636  1.00  0.00     0.235 C 
HETATM    7  C   UNL     1      43.523 -15.112   2.531  1.00  0.00     0.035 C 
ENDROOT
BRANCH   1   8
HETATM    8  C   UNL     1      42.366 -15.099   4.890  1.00  0.00     0.119 C 
HETATM    9  N   UNL     1      41.434 -16.109   4.422  1.00  0.00    -0.324 N 
HETATM   10  C   UNL     1      41.719 -17.354   4.944  1.00  0.00     0.326 C 
HETATM   11  H   UNL     1      40.445 -15.944   4.268  1.00  0.00     0.165 HD
HETATM   12  O   UNL     1      40.944 -18.291   4.869  1.00  0.00    -0.247 OA
HETATM   13  N   UNL     1      42.944 -17.319   5.523  1.00  0.00    -0.268 N 
HETATM   14  C   UNL     1      43.395 -16.028   5.587  1.00  0.00     0.256 C 
HETATM   15  O   UNL     1      44.437 -15.648   6.099  1.00  0.00    -0.270 OA
BRANCH   8  16
HETATM   16  C   UNL     1      41.641 -14.251   5.961  1.00  0.00     0.037 C 
HETATM   17  C   UNL     1      40.123 -14.213   5.865  1.00  0.00     0.008 C 
ENDBRANCH   8  16
BRANCH  13  18
HETATM   18  C   UNL     1      43.564 -18.443   6.211  1.00  0.00     0.142 C 
BRANCH  18  19
HETATM   19  C   UNL     1      44.885 -18.885   5.570  1.00  0.00     0.068 C 
BRANCH  19  20
HETATM   20  C   UNL     1      44.683 -20.019   4.614  1.00  0.00     0.010 A 
HETATM   21  S   UNL     1      44.890 -21.645   5.129  1.00  0.00    -0.085 SA
HETATM   22  C   UNL     1      44.506 -22.179   3.549  1.00  0.00     0.166 A 
HETATM   23  N   UNL     1      44.235 -21.237   2.674  1.00  0.00    -0.258 NA
HETATM   24  C   UNL     1      44.337 -19.992   3.271  1.00  0.00     0.044 A 
HETATM   25  C   UNL     1      44.071 -18.791   2.435  1.00  0.00     0.071 C 
ENDBRANCH  19  20
ENDBRANCH  18  19
ENDBRANCH  13  18
ENDBRANCH   1   8
BRANCH   4  26
HETATM   26  C   UNL     1      40.363 -14.910   0.305  1.00  0.00     0.276 C 
BRANCH  26  27
HETATM   27  C   UNL     1      40.230 -14.293  -1.058  1.00  0.00     0.004 A 
HETATM   28  C   UNL     1      38.961 -14.043  -1.598  1.00  0.00     0.107 A 
HETATM   29  C   UNL     1      38.810 -13.494  -2.870  1.00  0.00     0.102 A 
HETATM   30  C   UNL     1      39.929 -13.211  -3.643  1.00  0.00     0.039 A 
HETATM   31  C   UNL     1      41.202 -13.450  -3.121  1.00  0.00     0.003 A 
HETATM   32  C   UNL     1      41.356 -13.988  -1.837  1.00  0.00     0.012 A 
BRANCH  28  33
HETATM   33  O   UNL     1      37.854 -14.391  -0.872  1.00  0.00    -0.357 OA
HETATM   34  H   UNL     1      37.432 -13.554  -0.582  1.00  0.00     0.218 HD
ENDBRANCH  28  33
BRANCH  29  35
HETATM   35  O   UNL     1      37.560 -13.331  -3.396  1.00  0.00    -0.349 OA
BRANCH  35  36
HETATM   36  C   UNL     1      37.180 -14.458  -4.201  1.00  0.00     0.171 C 
HETATM   37  C   UNL     1      35.773 -14.224  -4.712  1.00  0.00     0.034 C 
ENDBRANCH  35  36
ENDBRANCH  29  35
ENDBRANCH  26  27
ENDBRANCH   4  26
TORSDOF 10
ENDMDL
MODEL 10
REMARK VINA RESULT:      -7.2      2.078      3.430
REMARK  10 active torsions:
REMARK  status: ('A' for Active; 'I' for Inactive)
REMARK    1  A    between atoms: C_2  and  C_3 
REMARK    2  A    between atoms: C_3  and  C_4 
REMARK    3  A    between atoms: N_7  and  C_9 
REMARK    4  A    between atoms: C_9  and  C_10 
REMARK    5  A    between atoms: C_11  and  O_12 
REMARK    6  A    between atoms: C_13  and  O_14 
REMARK    7  A    between atoms: O_14  and  C_15 
REMARK    8  A    between atoms: N_25  and  C_26 
REMARK    9  A    between atoms: C_26  and  C_27 
REMARK   10  A    between atoms: C_27  and  C_28 
ROOT
HETATM    1  C   UNL     1      41.274 -15.104   5.507  1.00  0.00     0.026 C 
HETATM    2  C   UNL     1      42.366 -14.415   6.346  1.00  0.00     0.035 C 
HETATM    3  C   UNL     1      43.503 -15.333   6.779  1.00  0.00     0.235 C 
HETATM    4  N   UNL     1      43.001 -16.597   7.433  1.00  0.00    -0.067 N 
HETATM    5  H   UNL     1      42.588 -16.352   8.340  1.00  0.00     0.280 HD
HETATM    6  C   UNL     1      41.921 -17.303   6.651  1.00  0.00     0.235 C 
HETATM    7  C   UNL     1      40.803 -16.342   6.292  1.00  0.00     0.035 C 
ENDROOT
BRANCH   1   8
HETATM    8  C   UNL     1      41.649 -15.356   4.008  1.00  0.00     0.119 C 
HETATM    9  N   UNL     1      41.148 -16.616   3.488  1.00  0.00    -0.324 N 
HETATM   10  C   UNL     1      40.424 -16.441   2.326  1.00  0.00     0.326 C 
HETATM   11  H   UNL     1      41.658 -17.491   3.527  1.00  0.00     0.165 HD
HETATM   12  O   UNL     1      40.108 -17.369   1.603  1.00  0.00    -0.247 OA
HETATM   13  N   UNL     1      40.165 -15.121   2.162  1.00  0.00    -0.268 N 
HETATM   14  C   UNL     1      40.878 -14.388   3.072  1.00  0.00     0.256 C 
HETATM   15  O   UNL     1      40.912 -13.169   3.156  1.00  0.00    -0.270 OA
BRANCH   8  16
HETATM   16  C   UNL     1      43.159 -15.281   3.684  1.00  0.00     0.037 C 
HETATM   17  C   UNL     1      43.664 -16.259   2.634  1.00  0.00     0.008 C 
ENDBRANCH   8  16
BRANCH  13  18
HETATM   18  C   UNL     1      39.453 -14.554   1.026  1.00  0.00     0.142 C 
BRANCH  18  19
HETATM   19  C   UNL     1      40.367 -14.256  -0.169  1.00  0.00     0.068 C 
BRANCH  19  20
HETATM   20  C   UNL     1      39.611 -14.270  -1.461  1.00  0.00     0.010 A 
HETATM   21  S   UNL     1      38.083 -13.497  -1.588  1.00  0.00    -0.085 SA
HETATM   22  C   UNL     1      37.989 -13.985  -3.226  1.00  0.00     0.166 A 
HETATM   23  N   UNL     1      39.010 -14.675  -3.679  1.00  0.00    -0.258 NA
HETATM   24  C   UNL     1      39.947 -14.850  -2.675  1.00  0.00     0.044 A 
HETATM   25  C   UNL     1      41.181 -15.617  -2.995  1.00  0.00     0.071 C 
ENDBRANCH  19  20
ENDBRANCH  18  19
ENDBRANCH  13  18
ENDBRANCH   1   8
BRANCH   4  26
HETATM   26  C   UNL     1      44.196 -17.508   7.744  1.00  0.00     0.276 C 
BRANCH  26  27
HETATM   27  C   UNL     1      44.187 -18.862   7.095  1.00  0.00     0.004 A 
HETATM   28  C   UNL     1      44.655 -19.019   5.784  1.00  0.00     0.107 A 
HETATM   29  C   UNL     1      44.635 -20.260   5.151  1.00  0.00     0.102 A 
HETATM   30  C   UNL     1      44.116 -21.368   5.808  1.00  0.00     0.039 A 
HETATM   31  C   UNL     1      43.648 -21.233   7.117  1.00  0.00     0.003 A 
HETATM   32  C   UNL     1      43.681 -19.989   7.759  1.00  0.00     0.012 A 
BRANCH  28  33
HETATM   33  O   UNL     1      45.096 -17.916   5.103  1.00  0.00    -0.357 OA
HETATM   34  H   UNL     1      44.421 -17.718   4.420  1.00  0.00     0.218 HD
ENDBRANCH  28  33
BRANCH  29  35
HETATM   35  O   UNL     1      45.031 -20.366   3.847  1.00  0.00    -0.349 OA
BRANCH  35  36
HETATM   36  C   UNL     1      43.923 -20.195   2.950  1.00  0.00     0.171 C 
HETATM   37  C   UNL     1      43.979 -21.298   1.911  1.00  0.00     0.034 C 
ENDBRANCH  35  36
ENDBRANCH  29  35
ENDBRANCH  26  27
ENDBRANCH   4  26
TORSDOF 10
ENDMDL
