MODEL 1
REMARK VINA RESULT:      -8.0      0.000      0.000
REMARK  6 active torsions:
REMARK  status: ('A' for Active; 'I' for Inactive)
REMARK    1  A    between atoms: C_5  and  C_6 
REMARK    2  A    between atoms: C_6  and  O_7 
REMARK    3  A    between atoms: C_6  and  C_8 
REMARK    4  A    between atoms: C_8  and  N_9 
REMARK       I    between atoms: N_9  and  C_10 
REMARK    5  A    between atoms: C_10  and  C_11 
REMARK    6  A    between atoms: C_11  and  C_12 
ROOT
HETATM    1  N   UNL     1      43.920 -14.224   4.271  1.00  0.00    -0.358 N 
HETATM    2  C   UNL     1      43.548 -14.076   5.587  1.00  0.00     0.222 C 
HETATM    3  O   UNL     1      42.557 -13.442   5.937  1.00  0.00    -0.273 OA
HETATM    4  H   UNL     1      44.674 -14.857   4.038  1.00  0.00     0.162 HD
ENDROOT
BRANCH   1   5
HETATM    5  C   UNL     1      43.104 -13.717   3.177  1.00  0.00     0.159 C 
BRANCH   5   6
HETATM    6  C   UNL     1      41.959 -14.638   2.706  1.00  0.00     0.169 C 
BRANCH   6   7
HETATM    7  C   UNL     1      42.381 -16.081   2.511  1.00  0.00    -0.028 A 
HETATM    8  C   UNL     1      43.292 -16.417   1.501  1.00  0.00     0.010 A 
HETATM    9  C   UNL     1      43.672 -17.746   1.297  1.00  0.00     0.007 A 
HETATM   10  C   UNL     1      43.145 -18.765   2.097  1.00  0.00    -0.062 A 
HETATM   11  C   UNL     1      43.551 -20.194   1.891  1.00  0.00     0.048 C 
HETATM   12  C   UNL     1      42.248 -18.431   3.118  1.00  0.00     0.007 A 
HETATM   13  C   UNL     1      41.867 -17.104   3.321  1.00  0.00     0.010 A 
ENDBRANCH   6   7
BRANCH   6  14
HETATM   14  O   UNL     1      40.905 -14.597   3.678  1.00  0.00    -0.389 OA
HETATM   15  H   UNL     1      40.843 -15.494   4.051  1.00  0.00     0.210 HD
ENDBRANCH   6  14
ENDBRANCH   5   6
ENDBRANCH   1   5
BRANCH   2  16
HETATM   16  C   UNL     1      44.451 -14.781   6.585  1.00  0.00     0.142 C 
BRANCH  16  17
HETATM   17  C   UNL     1      44.165 -16.250   6.749  1.00  0.00    -0.031 A 
HETATM   18  C   UNL     1      43.467 -16.763   7.836  1.00  0.00     0.125 A 
HETATM   19  N   UNL     1      43.228 -18.080   8.038  1.00  0.00    -0.260 NA
HETATM   20  C   UNL     1      43.718 -18.960   7.150  1.00  0.00     0.066 A 
HETATM   21  C   UNL     1      44.462 -18.554   6.024  1.00  0.00    -0.007 A 
HETATM   22  C   UNL     1      43.499 -20.317   7.340  1.00  0.00     0.032 A 
HETATM   23  C   UNL     1      44.678 -17.179   5.839  1.00  0.00     0.022 A 
HETATM   24  C   UNL     1      44.968 -19.514   5.129  1.00  0.00     0.014 A 
HETATM   25  C   UNL     1      44.736 -20.872   5.346  1.00  0.00     0.001 A 
HETATM   26  C   UNL     1      44.000 -21.274   6.454  1.00  0.00     0.002 A 
ENDBRANCH  16  17
ENDBRANCH   2  16
TORSDOF 6
ENDMDL
MODEL 2
REMARK VINA RESULT:      -7.9      4.383      7.460
REMARK  6 active torsions:
REMARK  status: ('A' for Active; 'I' for Inactive)
REMARK    1  A    between atoms: C_5  and  C_6 
REMARK    2  A    between atoms: C_6  and  O_7 
REMARK    3  A    between atoms: C_6  and  C_8 
REMARK    4  A    between atoms: C_8  and  N_9 
REMARK       I    between atoms: N_9  and  C_10 
REMARK    5  A    between atoms: C_10  and  C_11 
REMARK    6  A    between atoms: C_11  and  C_12 
ROOT
HETATM    1  N   UNL     1      44.160 -13.495   8.110  1.00  0.00    -0.358 N 
HETATM    2  C   UNL     1      44.395 -13.924   6.824  1.00  0.00     0.222 C 
HETATM    3  O   UNL     1      45.434 -13.682   6.216  1.00  0.00    -0.273 OA
HETATM    4  H   UNL     1      43.340 -13.828   8.599  1.00  0.00     0.162 HD
ENDROOT
BRANCH   1   5
HETATM    5  C   UNL     1      45.174 -12.799   8.889  1.00  0.00     0.159 C 
BRANCH   5   6
HETATM    6  C   UNL     1      44.898 -11.308   9.178  1.00  0.00     0.169 C 
BRANCH   6   7
HETATM    7  C   UNL     1      44.209 -11.065  10.507  1.00  0.00    -0.028 A 
HETATM    8  C   UNL     1      43.898  -9.759  10.908  1.00  0.00     0.010 A 
HETATM    9  C   UNL     1      43.283  -9.519  12.139  1.00  0.00     0.007 A 
HETATM   10  C   UNL     1      42.973 -10.580  12.996  1.00  0.00    -0.062 A 
HETATM   11  C   UNL     1      42.308 -10.335  14.317  1.00  0.00     0.048 C 
HETATM   12  C   UNL     1      43.268 -11.887  12.591  1.00  0.00     0.007 A 
HETATM   13  C   UNL     1      43.882 -12.127  11.361  1.00  0.00     0.010 A 
ENDBRANCH   6   7
BRANCH   6  14
HETATM   14  O   UNL     1      46.145 -10.600   9.173  1.00  0.00    -0.389 OA
HETATM   15  H   UNL     1      46.699 -11.017   9.856  1.00  0.00     0.210 HD
ENDBRANCH   6  14
ENDBRANCH   5   6
ENDBRANCH   1   5
BRANCH   2  16
HETATM   16  C   UNL     1      43.274 -14.745   6.213  1.00  0.00     0.142 C 
BRANCH  16  17
HETATM   17  C   UNL     1      43.670 -16.147   5.830  1.00  0.00    -0.031 A 
HETATM   18  C   UNL     1      44.412 -16.973   6.666  1.00  0.00     0.125 A 
HETATM   19  N   UNL     1      44.821 -18.221   6.340  1.00  0.00    -0.260 NA
HETATM   20  C   UNL     1      44.519 -18.691   5.119  1.00  0.00     0.066 A 
HETATM   21  C   UNL     1      43.793 -17.931   4.180  1.00  0.00    -0.007 A 
HETATM   22  C   UNL     1      44.938 -19.963   4.753  1.00  0.00     0.032 A 
HETATM   23  C   UNL     1      43.374 -16.646   4.558  1.00  0.00     0.022 A 
HETATM   24  C   UNL     1      43.515 -18.460   2.907  1.00  0.00     0.014 A 
HETATM   25  C   UNL     1      43.951 -19.739   2.564  1.00  0.00     0.001 A 
HETATM   26  C   UNL     1      44.664 -20.492   3.489  1.00  0.00     0.002 A 
ENDBRANCH  16  17
ENDBRANCH   2  16
TORSDOF 6
ENDMDL
MODEL 3
REMARK VINA RESULT:      -7.8      1.906      4.148
REMARK  6 active torsions:
REMARK  status: ('A' for Active; 'I' for Inactive)
REMARK    1  A    between atoms: C_5  and  C_6 
REMARK    2  A    between atoms: C_6  and  O_7 
REMARK    3  A    between atoms: C_6  and  C_8 
REMARK    4  A    between atoms: C_8  and  N_9 
REMARK       I    between atoms: N_9  and  C_10 
REMARK    5  A    between atoms: C_10  and  C_11 
REMARK    6  A    between atoms: C_11  and  C_12 
ROOT
HETATM    1  N   UNL     1      42.447 -15.104   1.869  1.00  0.00    -0.358 N 
HETATM    2  C   UNL     1      42.084 -16.345   1.398  1.00  0.00     0.222 C 
HETATM    3  O   UNL     1      40.916 -16.687   1.240  1.00  0.00    -0.273 OA
HETATM    4  H   UNL     1      43.424 -14.839   1.862  1.00  0.00     0.162 HD
ENDROOT
BRANCH   1   5
HETATM    5  C   UNL     1      41.467 -14.060   2.128  1.00  0.00     0.159 C 
BRANCH   5   6
HETATM    6  C   UNL     1      41.440 -13.501   3.566  1.00  0.00     0.169 C 
BRANCH   6   7
HETATM    7  C   UNL     1      41.819 -14.520   4.622  1.00  0.00    -0.028 A 
HETATM    8  C   UNL     1      40.923 -15.540   4.968  1.00  0.00     0.010 A 
HETATM    9  C   UNL     1      41.253 -16.473   5.955  1.00  0.00     0.007 A 
HETATM   10  C   UNL     1      42.482 -16.400   6.619  1.00  0.00    -0.062 A 
HETATM   11  C   UNL     1      42.848 -17.399   7.675  1.00  0.00     0.048 C 
HETATM   12  C   UNL     1      43.386 -15.392   6.264  1.00  0.00     0.007 A 
HETATM   13  C   UNL     1      43.057 -14.460   5.278  1.00  0.00     0.010 A 
ENDBRANCH   6   7
BRANCH   6  14
HETATM   14  O   UNL     1      42.352 -12.397   3.648  1.00  0.00    -0.389 OA
HETATM   15  H   UNL     1      42.418 -12.166   4.591  1.00  0.00     0.210 HD
ENDBRANCH   6  14
ENDBRANCH   5   6
ENDBRANCH   1   5
BRANCH   2  16
HETATM   16  C   UNL     1      43.247 -17.261   1.061  1.00  0.00     0.142 C 
BRANCH  16  17
HETATM   17  C   UNL     1      43.600 -18.241   2.148  1.00  0.00    -0.031 A 
HETATM   18  C   UNL     1      43.874 -17.848   3.453  1.00  0.00     0.125 A 
HETATM   19  N   UNL     1      44.235 -18.694   4.446  1.00  0.00    -0.260 NA
HETATM   20  C   UNL     1      44.367 -19.999   4.154  1.00  0.00     0.066 A 
HETATM   21  C   UNL     1      44.138 -20.505   2.859  1.00  0.00    -0.007 A 
HETATM   22  C   UNL     1      44.749 -20.887   5.150  1.00  0.00     0.032 A 
HETATM   23  C   UNL     1      43.752 -19.600   1.858  1.00  0.00     0.022 A 
HETATM   24  C   UNL     1      44.305 -21.877   2.598  1.00  0.00     0.014 A 
HETATM   25  C   UNL     1      44.693 -22.747   3.616  1.00  0.00     0.001 A 
HETATM   26  C   UNL     1      44.915 -22.251   4.895  1.00  0.00     0.002 A 
ENDBRANCH  16  17
ENDBRANCH   2  16
TORSDOF 6
ENDMDL
MODEL 4
REMARK VINA RESULT:      -7.6      2.058      4.806
REMARK  6 active torsions:
REMARK  status: ('A' for Active; 'I' for Inactive)
REMARK    1  A    between atoms: C_5  and  C_6 
REMARK    2  A    between atoms: C_6  and  O_7 
REMARK    3  A    between atoms: C_6  and  C_8 
REMARK    4  A    between atoms: C_8  and  N_9 
REMARK       I    between atoms: N_9  and  C_10 
REMARK    5  A    between atoms: C_10  and  C_11 
REMARK    6  A    between atoms: C_11  and  C_12 
ROOT
HETATM    1  N   UNL     1      43.164 -15.513   7.169  1.00  0.00    -0.358 N 
HETATM    2  C   UNL     1      43.919 -14.466   6.690  1.00  0.00     0.222 C 
HETATM    3  O   UNL     1      45.093 -14.289   7.001  1.00  0.00    -0.273 OA
HETATM    4  H   UNL     1      42.243 -15.675   6.783  1.00  0.00     0.162 HD
ENDROOT
BRANCH   1   5
HETATM    5  C   UNL     1      43.735 -16.553   8.012  1.00  0.00     0.159 C 
BRANCH   5   6
HETATM    6  C   UNL     1      43.210 -17.984   7.768  1.00  0.00     0.169 C 
BRANCH   6   7
HETATM    7  C   UNL     1      43.435 -18.481   6.353  1.00  0.00    -0.028 A 
HETATM    8  C   UNL     1      44.630 -19.131   6.019  1.00  0.00     0.010 A 
HETATM    9  C   UNL     1      44.859 -19.575   4.714  1.00  0.00     0.007 A 
HETATM   10  C   UNL     1      43.900 -19.371   3.717  1.00  0.00    -0.062 A 
HETATM   11  C   UNL     1      44.133 -19.848   2.314  1.00  0.00     0.048 C 
HETATM   12  C   UNL     1      42.698 -18.736   4.051  1.00  0.00     0.007 A 
HETATM   13  C   UNL     1      42.469 -18.293   5.355  1.00  0.00     0.010 A 
ENDBRANCH   6   7
BRANCH   6  14
HETATM   14  O   UNL     1      43.868 -18.877   8.676  1.00  0.00    -0.389 OA
HETATM   15  H   UNL     1      43.625 -18.584   9.572  1.00  0.00     0.210 HD
ENDBRANCH   6  14
ENDBRANCH   5   6
ENDBRANCH   1   5
BRANCH   2  16
HETATM   16  C   UNL     1      43.192 -13.551   5.722  1.00  0.00     0.142 C 
BRANCH  16  17
HETATM   17  C   UNL     1      42.508 -14.266   4.587  1.00  0.00    -0.031 A 
HETATM   18  C   UNL     1      41.126 -14.385   4.499  1.00  0.00     0.125 A 
HETATM   19  N   UNL     1      40.477 -15.055   3.518  1.00  0.00    -0.260 NA
HETATM   20  C   UNL     1      41.210 -15.673   2.577  1.00  0.00     0.066 A 
HETATM   21  C   UNL     1      42.619 -15.640   2.582  1.00  0.00    -0.007 A 
HETATM   22  C   UNL     1      40.571 -16.379   1.567  1.00  0.00     0.032 A 
HETATM   23  C   UNL     1      43.257 -14.924   3.607  1.00  0.00     0.022 A 
HETATM   24  C   UNL     1      43.344 -16.316   1.584  1.00  0.00     0.014 A 
HETATM   25  C   UNL     1      42.678 -17.021   0.583  1.00  0.00     0.001 A 
HETATM   26  C   UNL     1      41.288 -17.052   0.574  1.00  0.00     0.002 A 
ENDBRANCH  16  17
ENDBRANCH   2  16
TORSDOF 6
ENDMDL
MODEL 5
REMARK VINA RESULT:      -7.4      1.929      2.893
REMARK  6 active torsions:
REMARK  status: ('A' for Active; 'I' for Inactive)
REMARK    1  A    between atoms: C_5  and  C_6 
REMARK    2  A    between atoms: C_6  and  O_7 
REMARK    3  A    between atoms: C_6  and  C_8 
REMARK    4  A    between atoms: C_8  and  N_9 
REMARK       I    between atoms: N_9  and  C_10 
REMARK    5  A    between atoms: C_10  and  C_11 
REMARK    6  A    between atoms: C_11  and  C_12 
ROOT
HETATM    1  N   UNL     1      41.455 -14.290   2.641  1.00  0.00    -0.358 N 
HETATM    2  C   UNL     1      40.172 -14.283   3.138  1.00  0.00     0.222 C 
HETATM    3  O   UNL     1      39.184 -14.078   2.440  1.00  0.00    -0.273 OA
HETATM    4  H   UNL     1      42.216 -14.584   3.240  1.00  0.00     0.162 HD
ENDROOT
BRANCH   1   5
HETATM    5  C   UNL     1      41.732 -14.150   1.218  1.00  0.00     0.159 C 
BRANCH   5   6
HETATM    6  C   UNL     1      41.584 -15.433   0.373  1.00  0.00     0.169 C 
BRANCH   6   7
HETATM    7  C   UNL     1      42.250 -16.647   0.989  1.00  0.00    -0.028 A 
HETATM    8  C   UNL     1      43.637 -16.663   1.186  1.00  0.00     0.010 A 
HETATM    9  C   UNL     1      44.266 -17.785   1.733  1.00  0.00     0.007 A 
HETATM   10  C   UNL     1      43.521 -18.914   2.088  1.00  0.00    -0.062 A 
HETATM   11  C   UNL     1      44.185 -20.120   2.682  1.00  0.00     0.048 C 
HETATM   12  C   UNL     1      42.133 -18.894   1.909  1.00  0.00     0.007 A 
HETATM   13  C   UNL     1      41.505 -17.774   1.362  1.00  0.00     0.010 A 
ENDBRANCH   6   7
BRANCH   6  14
HETATM   14  O   UNL     1      40.187 -15.715   0.204  1.00  0.00    -0.389 OA
HETATM   15  H   UNL     1      40.009 -15.648  -0.751  1.00  0.00     0.210 HD
ENDBRANCH   6  14
ENDBRANCH   5   6
ENDBRANCH   1   5
BRANCH   2  16
HETATM   16  C   UNL     1      40.066 -14.572   4.625  1.00  0.00     0.142 C 
BRANCH  16  17
HETATM   17  C   UNL     1      41.284 -15.232   5.217  1.00  0.00    -0.031 A 
HETATM   18  C   UNL     1      42.341 -14.510   5.758  1.00  0.00     0.125 A 
HETATM   19  N   UNL     1      43.468 -15.066   6.260  1.00  0.00    -0.260 NA
HETATM   20  C   UNL     1      43.595 -16.402   6.211  1.00  0.00     0.066 A 
HETATM   21  C   UNL     1      42.597 -17.231   5.661  1.00  0.00    -0.007 A 
HETATM   22  C   UNL     1      44.747 -16.998   6.707  1.00  0.00     0.032 A 
HETATM   23  C   UNL     1      41.436 -16.620   5.162  1.00  0.00     0.022 A 
HETATM   24  C   UNL     1      42.782 -18.625   5.617  1.00  0.00     0.014 A 
HETATM   25  C   UNL     1      43.951 -19.197   6.118  1.00  0.00     0.001 A 
HETATM   26  C   UNL     1      44.934 -18.382   6.665  1.00  0.00     0.002 A 
ENDBRANCH  16  17
ENDBRANCH   2  16
TORSDOF 6
ENDMDL
MODEL 6
REMARK VINA RESULT:      -7.4      2.664      5.048
REMARK  6 active torsions:
REMARK  status: ('A' for Active; 'I' for Inactive)
REMARK    1  A    between atoms: C_5  and  C_6 
REMARK    2  A    between atoms: C_6  and  O_7 
REMARK    3  A    between atoms: C_6  and  C_8 
REMARK    4  A    between atoms: C_8  and  N_9 
REMARK       I    between atoms: N_9  and  C_10 
REMARK    5  A    between atoms: C_10  and  C_11 
REMARK    6  A    between atoms: C_11  and  C_12 
ROOT
HETATM    1  N   UNL     1      44.767 -19.060   5.487  1.00  0.00    -0.358 N 
HETATM    2  C   UNL     1      44.105 -19.183   6.687  1.00  0.00     0.222 C 
HETATM    3  O   UNL     1      43.654 -20.248   7.098  1.00  0.00    -0.273 OA
HETATM    4  H   UNL     1      45.220 -18.184   5.260  1.00  0.00     0.162 HD
ENDROOT
BRANCH   1   5
HETATM    5  C   UNL     1      45.070 -20.213   4.651  1.00  0.00     0.159 C 
BRANCH   5   6
HETATM    6  C   UNL     1      44.202 -20.377   3.386  1.00  0.00     0.169 C 
BRANCH   6   7
HETATM    7  C   UNL     1      43.631 -19.071   2.868  1.00  0.00    -0.028 A 
HETATM    8  C   UNL     1      44.285 -18.378   1.840  1.00  0.00     0.010 A 
HETATM    9  C   UNL     1      43.781 -17.162   1.368  1.00  0.00     0.007 A 
HETATM   10  C   UNL     1      42.617 -16.615   1.919  1.00  0.00    -0.062 A 
HETATM   11  C   UNL     1      42.064 -15.315   1.416  1.00  0.00     0.048 C 
HETATM   12  C   UNL     1      41.953 -17.314   2.933  1.00  0.00     0.007 A 
HETATM   13  C   UNL     1      42.457 -18.528   3.405  1.00  0.00     0.010 A 
ENDBRANCH   6   7
BRANCH   6  14
HETATM   14  O   UNL     1      45.002 -20.968   2.352  1.00  0.00    -0.389 OA
HETATM   15  H   UNL     1      44.517 -20.830   1.519  1.00  0.00     0.210 HD
ENDBRANCH   6  14
ENDBRANCH   5   6
ENDBRANCH   1   5
BRANCH   2  16
HETATM   16  C   UNL     1      43.992 -17.896   7.484  1.00  0.00     0.142 C 
BRANCH  16  17
HETATM   17  C   UNL     1      43.088 -16.861   6.867  1.00  0.00    -0.031 A 
HETATM   18  C   UNL     1      41.702 -16.967   6.888  1.00  0.00     0.125 A 
HETATM   19  N   UNL     1      40.860 -16.080   6.309  1.00  0.00    -0.260 NA
HETATM   20  C   UNL     1      41.388 -15.040   5.644  1.00  0.00     0.066 A 
HETATM   21  C   UNL     1      42.780 -14.848   5.537  1.00  0.00    -0.007 A 
HETATM   22  C   UNL     1      40.547 -14.123   5.029  1.00  0.00     0.032 A 
HETATM   23  C   UNL     1      43.623 -15.780   6.162  1.00  0.00     0.022 A 
HETATM   24  C   UNL     1      43.287 -13.752   4.816  1.00  0.00     0.014 A 
HETATM   25  C   UNL     1      42.420 -12.847   4.205  1.00  0.00     0.001 A 
HETATM   26  C   UNL     1      41.047 -13.033   4.312  1.00  0.00     0.002 A 
ENDBRANCH  16  17
ENDBRANCH   2  16
TORSDOF 6
ENDMDL
MODEL 7
REMARK VINA RESULT:      -7.3      1.637      2.708
REMARK  6 active torsions:
REMARK  status: ('A' for Active; 'I' for Inactive)
REMARK    1  A    between atoms: C_5  and  C_6 
REMARK    2  A    between atoms: C_6  and  O_7 
REMARK    3  A    between atoms: C_6  and  C_8 
REMARK    4  A    between atoms: C_8  and  N_9 
REMARK       I    between atoms: N_9  and  C_10 
REMARK    5  A    between atoms: C_10  and  C_11 
REMARK    6  A    between atoms: C_11  and  C_12 
ROOT
HETATM    1  N   UNL     1      42.358 -14.843   6.421  1.00  0.00    -0.358 N 
HETATM    2  C   UNL     1      43.374 -15.644   6.892  1.00  0.00     0.222 C 
HETATM    3  O   UNL     1      44.551 -15.296   6.904  1.00  0.00    -0.273 OA
HETATM    4  H   UNL     1      41.398 -15.136   6.549  1.00  0.00     0.162 HD
ENDROOT
BRANCH   1   5
HETATM    5  C   UNL     1      42.594 -13.474   5.985  1.00  0.00     0.159 C 
BRANCH   5   6
HETATM    6  C   UNL     1      42.846 -13.280   4.475  1.00  0.00     0.169 C 
BRANCH   6   7
HETATM    7  C   UNL     1      42.337 -14.425   3.622  1.00  0.00    -0.028 A 
HETATM    8  C   UNL     1      43.219 -15.129   2.792  1.00  0.00     0.010 A 
HETATM    9  C   UNL     1      42.759 -16.173   1.984  1.00  0.00     0.007 A 
HETATM   10  C   UNL     1      41.405 -16.528   1.987  1.00  0.00    -0.062 A 
HETATM   11  C   UNL     1      40.902 -17.650   1.129  1.00  0.00     0.048 C 
HETATM   12  C   UNL     1      40.525 -15.837   2.827  1.00  0.00     0.007 A 
HETATM   13  C   UNL     1      40.985 -14.795   3.634  1.00  0.00     0.010 A 
ENDBRANCH   6   7
BRANCH   6  14
HETATM   14  O   UNL     1      42.199 -12.072   4.052  1.00  0.00    -0.389 OA
HETATM   15  H   UNL     1      41.552 -12.333   3.373  1.00  0.00     0.210 HD
ENDBRANCH   6  14
ENDBRANCH   5   6
ENDBRANCH   1   5
BRANCH   2  16
HETATM   16  C   UNL     1      42.924 -16.993   7.424  1.00  0.00     0.142 C 
BRANCH  16  17
HETATM   17  C   UNL     1      43.341 -18.164   6.575  1.00  0.00    -0.031 A 
HETATM   18  C   UNL     1      43.911 -19.314   7.109  1.00  0.00     0.125 A 
HETATM   19  N   UNL     1      44.336 -20.368   6.375  1.00  0.00    -0.260 NA
HETATM   20  C   UNL     1      44.230 -20.297   5.038  1.00  0.00     0.066 A 
HETATM   21  C   UNL     1      43.690 -19.169   4.387  1.00  0.00    -0.007 A 
HETATM   22  C   UNL     1      44.670 -21.359   4.260  1.00  0.00     0.032 A 
HETATM   23  C   UNL     1      43.247 -18.101   5.182  1.00  0.00     0.022 A 
HETATM   24  C   UNL     1      43.614 -19.135   2.983  1.00  0.00     0.014 A 
HETATM   25  C   UNL     1      44.067 -20.213   2.225  1.00  0.00     0.001 A 
HETATM   26  C   UNL     1      44.596 -21.328   2.865  1.00  0.00     0.002 A 
ENDBRANCH  16  17
ENDBRANCH   2  16
TORSDOF 6
ENDMDL
MODEL 8
REMARK VINA RESULT:      -7.2      2.491      5.153
REMARK  6 active torsions:
REMARK  status: ('A' for Active; 'I' for Inactive)
REMARK    1  A    between atoms: C_5  and  C_6 
REMARK    2  A    between atoms: C_6  and  O_7 
REMARK    3  A    between atoms: C_6  and  C_8 
REMARK    4  A    between atoms: C_8  and  N_9 
REMARK       I    between atoms: N_9  and  C_10 
REMARK    5  A    between atoms: C_10  and  C_11 
REMARK    6  A    between atoms: C_11  and  C_12 
ROOT
HETATM    1  N   UNL     1      44.552 -17.953   5.651  1.00  0.00    -0.358 N 
HETATM    2  C   UNL     1      43.876 -17.757   6.833  1.00  0.00     0.222 C 
HETATM    3  O   UNL     1      43.541 -18.676   7.574  1.00  0.00    -0.273 OA
HETATM    4  H   UNL     1      44.907 -17.152   5.146  1.00  0.00     0.162 HD
ENDROOT
BRANCH   1   5
HETATM    5  C   UNL     1      45.010 -19.271   5.234  1.00  0.00     0.159 C 
BRANCH   5   6
HETATM    6  C   UNL     1      44.226 -19.923   4.076  1.00  0.00     0.169 C 
BRANCH   6   7
HETATM    7  C   UNL     1      43.577 -18.921   3.142  1.00  0.00    -0.028 A 
HETATM    8  C   UNL     1      44.235 -18.524   1.970  1.00  0.00     0.010 A 
HETATM    9  C   UNL     1      43.657 -17.585   1.112  1.00  0.00     0.007 A 
HETATM   10  C   UNL     1      42.413 -17.020   1.412  1.00  0.00    -0.062 A 
HETATM   11  C   UNL     1      41.781 -16.016   0.494  1.00  0.00     0.048 C 
HETATM   12  C   UNL     1      41.746 -17.427   2.572  1.00  0.00     0.007 A 
HETATM   13  C   UNL     1      42.323 -18.365   3.431  1.00  0.00     0.010 A 
ENDBRANCH   6   7
BRANCH   6  14
HETATM   14  O   UNL     1      45.125 -20.742   3.315  1.00  0.00    -0.389 OA
HETATM   15  H   UNL     1      45.763 -21.111   3.951  1.00  0.00     0.210 HD
ENDBRANCH   6  14
ENDBRANCH   5   6
ENDBRANCH   1   5
BRANCH   2  16
HETATM   16  C   UNL     1      43.593 -16.304   7.168  1.00  0.00     0.142 C 
BRANCH  16  17
HETATM   17  C   UNL     1      42.691 -15.605   6.185  1.00  0.00    -0.031 A 
HETATM   18  C   UNL     1      41.312 -15.777   6.177  1.00  0.00     0.125 A 
HETATM   19  N   UNL     1      40.475 -15.199   5.283  1.00  0.00    -0.260 NA
HETATM   20  C   UNL     1      41.006 -14.429   4.319  1.00  0.00     0.066 A 
HETATM   21  C   UNL     1      42.394 -14.205   4.217  1.00  0.00    -0.007 A 
HETATM   22  C   UNL     1      40.172 -13.835   3.382  1.00  0.00     0.032 A 
HETATM   23  C   UNL     1      43.230 -14.810   5.169  1.00  0.00     0.022 A 
HETATM   24  C   UNL     1      42.905 -13.403   3.180  1.00  0.00     0.014 A 
HETATM   25  C   UNL     1      42.045 -12.822   2.249  1.00  0.00     0.001 A 
HETATM   26  C   UNL     1      40.676 -13.038   2.351  1.00  0.00     0.002 A 
ENDBRANCH  16  17
ENDBRANCH   2  16
TORSDOF 6
ENDMDL
MODEL 9
REMARK VINA RESULT:      -7.2      2.711      6.281
REMARK  6 active torsions:
REMARK  status: ('A' for Active; 'I' for Inactive)
REMARK    1  A    between atoms: C_5  and  C_6 
REMARK    2  A    between atoms: C_6  and  O_7 
REMARK    3  A    between atoms: C_6  and  C_8 
REMARK    4  A    between atoms: C_8  and  N_9 
REMARK       I    between atoms: N_9  and  C_10 
REMARK    5  A    between atoms: C_10  and  C_11 
REMARK    6  A    between atoms: C_11  and  C_12 
ROOT
HETATM    1  N   UNL     1      43.761 -19.318   4.897  1.00  0.00    -0.358 N 
HETATM    2  C   UNL     1      44.521 -20.010   3.982  1.00  0.00     0.222 C 
HETATM    3  O   UNL     1      45.517 -20.657   4.291  1.00  0.00    -0.273 OA
HETATM    4  H   UNL     1      42.886 -18.906   4.601  1.00  0.00     0.162 HD
ENDROOT
BRANCH   1   5
HETATM    5  C   UNL     1      44.028 -19.382   6.327  1.00  0.00     0.159 C 
BRANCH   5   6
HETATM    6  C   UNL     1      44.009 -18.033   7.077  1.00  0.00     0.169 C 
BRANCH   6   7
HETATM    7  C   UNL     1      43.001 -17.045   6.526  1.00  0.00    -0.028 A 
HETATM    8  C   UNL     1      41.640 -17.186   6.830  1.00  0.00     0.010 A 
HETATM    9  C   UNL     1      40.698 -16.294   6.310  1.00  0.00     0.007 A 
HETATM   10  C   UNL     1      41.098 -15.248   5.472  1.00  0.00    -0.062 A 
HETATM   11  C   UNL     1      40.095 -14.282   4.914  1.00  0.00     0.048 C 
HETATM   12  C   UNL     1      42.457 -15.095   5.180  1.00  0.00     0.007 A 
HETATM   13  C   UNL     1      43.399 -15.986   5.698  1.00  0.00     0.010 A 
ENDBRANCH   6   7
BRANCH   6  14
HETATM   14  O   UNL     1      43.702 -18.278   8.456  1.00  0.00    -0.389 OA
HETATM   15  H   UNL     1      43.734 -17.413   8.901  1.00  0.00     0.210 HD
ENDBRANCH   6  14
ENDBRANCH   5   6
ENDBRANCH   1   5
BRANCH   2  16
HETATM   16  C   UNL     1      44.019 -19.933   2.551  1.00  0.00     0.142 C 
BRANCH  16  17
HETATM   17  C   UNL     1      43.436 -18.597   2.170  1.00  0.00    -0.031 A 
HETATM   18  C   UNL     1      44.222 -17.514   1.797  1.00  0.00     0.125 A 
HETATM   19  N   UNL     1      43.737 -16.288   1.489  1.00  0.00    -0.260 NA
HETATM   20  C   UNL     1      42.412 -16.088   1.573  1.00  0.00     0.066 A 
HETATM   21  C   UNL     1      41.522 -17.109   1.965  1.00  0.00    -0.007 A 
HETATM   22  C   UNL     1      41.889 -14.837   1.275  1.00  0.00     0.032 A 
HETATM   23  C   UNL     1      42.060 -18.371   2.264  1.00  0.00     0.022 A 
HETATM   24  C   UNL     1      40.143 -16.847   2.053  1.00  0.00     0.014 A 
HETATM   25  C   UNL     1      39.644 -15.581   1.752  1.00  0.00     0.001 A 
HETATM   26  C   UNL     1      40.519 -14.574   1.362  1.00  0.00     0.002 A 
ENDBRANCH  16  17
ENDBRANCH   2  16
TORSDOF 6
ENDMDL
MODEL 10
REMARK VINA RESULT:      -7.1      2.126      4.368
REMARK  6 active torsions:
REMARK  status: ('A' for Active; 'I' for Inactive)
REMARK    1  A    between atoms: C_5  and  C_6 
REMARK    2  A    between atoms: C_6  and  O_7 
REMARK    3  A    between atoms: C_6  and  C_8 
REMARK    4  A    between atoms: C_8  and  N_9 
REMARK       I    between atoms: N_9  and  C_10 
REMARK    5  A    between atoms: C_10  and  C_11 
REMARK    6  A    between atoms: C_11  and  C_12 
ROOT
HETATM    1  N   UNL     1      42.733 -15.037   3.420  1.00  0.00    -0.358 N 
HETATM    2  C   UNL     1      42.469 -16.062   2.540  1.00  0.00     0.222 C 
HETATM    3  O   UNL     1      41.332 -16.433   2.265  1.00  0.00    -0.273 OA
HETATM    4  H   UNL     1      43.681 -14.697   3.514  1.00  0.00     0.162 HD
ENDROOT
BRANCH   1   5
HETATM    5  C   UNL     1      41.670 -14.245   4.022  1.00  0.00     0.159 C 
BRANCH   5   6
HETATM    6  C   UNL     1      41.008 -14.847   5.279  1.00  0.00     0.169 C 
BRANCH   6   7
HETATM    7  C   UNL     1      41.916 -15.779   6.057  1.00  0.00    -0.028 A 
HETATM    8  C   UNL     1      41.606 -17.142   6.155  1.00  0.00     0.010 A 
HETATM    9  C   UNL     1      42.423 -18.008   6.887  1.00  0.00     0.007 A 
HETATM   10  C   UNL     1      43.563 -17.526   7.539  1.00  0.00    -0.062 A 
HETATM   11  C   UNL     1      44.450 -18.448   8.321  1.00  0.00     0.048 C 
HETATM   12  C   UNL     1      43.885 -16.169   7.429  1.00  0.00     0.007 A 
HETATM   13  C   UNL     1      43.068 -15.304   6.698  1.00  0.00     0.010 A 
ENDBRANCH   6   7
BRANCH   6  14
HETATM   14  O   UNL     1      40.603 -13.777   6.144  1.00  0.00    -0.389 OA
HETATM   15  H   UNL     1      40.609 -12.969   5.601  1.00  0.00     0.210 HD
ENDBRANCH   6  14
ENDBRANCH   5   6
ENDBRANCH   1   5
BRANCH   2  16
HETATM   16  C   UNL     1      43.699 -16.690   1.912  1.00  0.00     0.142 C 
BRANCH  16  17
HETATM   17  C   UNL     1      43.896 -18.144   2.252  1.00  0.00    -0.031 A 
HETATM   18  C   UNL     1      43.667 -19.167   1.339  1.00  0.00     0.125 A 
HETATM   19  N   UNL     1      43.792 -20.485   1.621  1.00  0.00    -0.260 NA
HETATM   20  C   UNL     1      44.132 -20.839   2.871  1.00  0.00     0.066 A 
HETATM   21  C   UNL     1      44.364 -19.887   3.884  1.00  0.00    -0.007 A 
HETATM   22  C   UNL     1      44.255 -22.184   3.191  1.00  0.00     0.032 A 
HETATM   23  C   UNL     1      44.238 -18.529   3.552  1.00  0.00     0.022 A 
HETATM   24  C   UNL     1      44.702 -20.307   5.183  1.00  0.00     0.014 A 
HETATM   25  C   UNL     1      44.815 -21.665   5.479  1.00  0.00     0.001 A 
HETATM   26  C   UNL     1      44.591 -22.606   4.480  1.00  0.00     0.002 A 
ENDBRANCH  16  17
ENDBRANCH   2  16
TORSDOF 6
ENDMDL
