MODEL 1
REMARK VINA RESULT:      -8.1      0.000      0.000
REMARK  9 active torsions:
REMARK  status: ('A' for Active; 'I' for Inactive)
REMARK    1  A    between atoms: N_5  and  C_6 
REMARK    2  A    between atoms: C_6  and  C_7 
REMARK    3  A    between atoms: C_7  and  O_8 
REMARK    4  A    between atoms: C_7  and  C_9 
REMARK    5  A    between atoms: C_9  and  O_10 
REMARK    6  A    between atoms: O_10  and  C_11 
REMARK    7  A    between atoms: N_23  and  C_24 
REMARK    8  A    between atoms: C_24  and  C_25 
REMARK    9  A    between atoms: C_25  and  N_26 
ROOT
HETATM    1  C   UNL     1      43.029 -17.504   0.941  1.00  0.00     0.002 A 
HETATM    2  C   UNL     1      41.782 -16.874   0.980  1.00  0.00     0.032 A 
HETATM    3  C   UNL     1      41.603 -15.892   1.933  1.00  0.00     0.079 A 
HETATM    4  C   UNL     1      42.632 -15.513   2.831  1.00  0.00     0.079 A 
HETATM    5  N   UNL     1      42.142 -14.493   3.649  1.00  0.00    -0.179 N 
HETATM    6  C   UNL     1      40.807 -14.224   3.244  1.00  0.00     0.681 A 
HETATM    7  N   UNL     1      40.024 -13.264   3.777  1.00  0.00    -0.234 N 
HETATM    8  H   UNL     1      39.104 -13.030   3.432  1.00  0.00     0.174 HD
HETATM    9  H   UNL     1      40.354 -12.717   4.568  1.00  0.00     0.174 HD
HETATM   10  N   UNL     1      40.434 -15.083   2.200  1.00  0.00    -0.180 N 
HETATM   11  C   UNL     1      43.861 -16.133   2.790  1.00  0.00     0.032 A 
HETATM   12  C   UNL     1      44.052 -17.139   1.836  1.00  0.00     0.002 A 
ENDROOT
BRANCH   5  13
HETATM   13  C   UNL     1      43.012 -13.704   4.508  1.00  0.00     0.181 C 
BRANCH  13  14
HETATM   14  C   UNL     1      42.783 -13.957   6.014  1.00  0.00     0.161 C 
BRANCH  14  15
HETATM   15  O   UNL     1      42.603 -12.688   6.645  1.00  0.00    -0.392 OA
HETATM   16  H   UNL     1      42.557 -12.014   5.939  1.00  0.00     0.210 HD
ENDBRANCH  14  15
BRANCH  14  17
HETATM   17  C   UNL     1      43.980 -14.663   6.659  1.00  0.00     0.209 C 
BRANCH  17  18
HETATM   18  O   UNL     1      43.551 -15.877   7.277  1.00  0.00    -0.347 OA
BRANCH  18  19
HETATM   19  C   UNL     1      43.656 -16.996   6.487  1.00  0.00     0.090 A 
HETATM   20  C   UNL     1      42.621 -17.634   5.783  1.00  0.00     0.069 A 
HETATM   21 CL   UNL     1      40.968 -17.114   5.831  1.00  0.00    -0.081 Cl
HETATM   22  C   UNL     1      42.892 -18.775   5.020  1.00  0.00     0.050 A 
HETATM   23  C   UNL     1      44.185 -19.292   4.976  1.00  0.00     0.035 A 
HETATM   24 CL   UNL     1      44.510 -20.690   4.031  1.00  0.00    -0.084 Cl
HETATM   25  C   UNL     1      45.209 -18.690   5.699  1.00  0.00     0.026 A 
HETATM   26  C   UNL     1      44.943 -17.550   6.460  1.00  0.00     0.040 A 
ENDBRANCH  18  19
ENDBRANCH  17  18
ENDBRANCH  14  17
ENDBRANCH  13  14
ENDBRANCH   5  13
BRANCH  10  27
HETATM   27  C   UNL     1      39.209 -15.073   1.386  1.00  0.00     0.175 C 
BRANCH  27  28
HETATM   28  C   UNL     1      39.267 -14.065   0.218  1.00  0.00     0.256 C 
BRANCH  28  29
HETATM   29  N   UNL     1      39.473 -14.689  -1.147  1.00  0.00    -0.066 N 
HETATM   30  H   UNL     1      39.186 -15.676  -1.046  1.00  0.00     0.280 HD
HETATM   31  C   UNL     1      38.586 -14.130  -2.262  1.00  0.00     0.261 C 
HETATM   32  C   UNL     1      38.808 -14.930  -3.552  1.00  0.00     0.195 C 
HETATM   33  O   UNL     1      40.189 -14.901  -3.922  1.00  0.00    -0.388 OA
HETATM   34  C   UNL     1      41.022 -15.520  -2.936  1.00  0.00     0.195 C 
HETATM   35  C   UNL     1      40.935 -14.756  -1.609  1.00  0.00     0.261 C 
ENDBRANCH  28  29
ENDBRANCH  27  28
ENDBRANCH  10  27
TORSDOF 9
ENDMDL
MODEL 2
REMARK VINA RESULT:      -7.8      2.195      3.751
REMARK  9 active torsions:
REMARK  status: ('A' for Active; 'I' for Inactive)
REMARK    1  A    between atoms: N_5  and  C_6 
REMARK    2  A    between atoms: C_6  and  C_7 
REMARK    3  A    between atoms: C_7  and  O_8 
REMARK    4  A    between atoms: C_7  and  C_9 
REMARK    5  A    between atoms: C_9  and  O_10 
REMARK    6  A    between atoms: O_10  and  C_11 
REMARK    7  A    between atoms: N_23  and  C_24 
REMARK    8  A    between atoms: C_24  and  C_25 
REMARK    9  A    between atoms: C_25  and  N_26 
ROOT
HETATM    1  C   UNL     1      38.350 -10.597   3.354  1.00  0.00     0.002 A 
HETATM    2  C   UNL     1      38.039 -11.546   2.377  1.00  0.00     0.032 A 
HETATM    3  C   UNL     1      38.807 -12.693   2.346  1.00  0.00     0.079 A 
HETATM    4  C   UNL     1      39.859 -12.923   3.268  1.00  0.00     0.079 A 
HETATM    5  N   UNL     1      40.423 -14.167   2.984  1.00  0.00    -0.179 N 
HETATM    6  C   UNL     1      39.705 -14.722   1.890  1.00  0.00     0.681 A 
HETATM    7  N   UNL     1      39.935 -15.942   1.362  1.00  0.00    -0.234 N 
HETATM    8  H   UNL     1      39.371 -16.357   0.635  1.00  0.00     0.174 HD
HETATM    9  H   UNL     1      40.710 -16.506   1.702  1.00  0.00     0.174 HD
HETATM   10  N   UNL     1      38.712 -13.830   1.458  1.00  0.00    -0.180 N 
HETATM   11  C   UNL     1      40.162 -11.987   4.232  1.00  0.00     0.032 A 
HETATM   12  C   UNL     1      39.399 -10.815   4.266  1.00  0.00     0.002 A 
ENDROOT
BRANCH   5  13
HETATM   13  C   UNL     1      41.354 -14.822   3.890  1.00  0.00     0.181 C 
BRANCH  13  14
HETATM   14  C   UNL     1      40.737 -16.018   4.647  1.00  0.00     0.161 C 
BRANCH  14  15
HETATM   15  O   UNL     1      39.974 -15.496   5.737  1.00  0.00    -0.392 OA
HETATM   16  H   UNL     1      39.032 -15.530   5.477  1.00  0.00     0.210 HD
ENDBRANCH  14  15
BRANCH  14  17
HETATM   17  C   UNL     1      41.815 -16.954   5.205  1.00  0.00     0.209 C 
BRANCH  17  18
HETATM   18  O   UNL     1      42.984 -16.888   4.386  1.00  0.00    -0.347 OA
BRANCH  18  19
HETATM   19  C   UNL     1      43.404 -18.094   3.881  1.00  0.00     0.090 A 
HETATM   20  C   UNL     1      44.315 -18.987   4.471  1.00  0.00     0.069 A 
HETATM   21 CL   UNL     1      45.118 -18.680   5.977  1.00  0.00    -0.081 Cl
HETATM   22  C   UNL     1      44.644 -20.183   3.823  1.00  0.00     0.050 A 
HETATM   23  C   UNL     1      44.087 -20.477   2.581  1.00  0.00     0.035 A 
HETATM   24 CL   UNL     1      44.493 -21.950   1.795  1.00  0.00    -0.084 Cl
HETATM   25  C   UNL     1      43.214 -19.583   1.970  1.00  0.00     0.026 A 
HETATM   26  C   UNL     1      42.881 -18.390   2.616  1.00  0.00     0.040 A 
ENDBRANCH  18  19
ENDBRANCH  17  18
ENDBRANCH  14  17
ENDBRANCH  13  14
ENDBRANCH   5  13
BRANCH  10  27
HETATM   27  C   UNL     1      37.653 -14.036   0.459  1.00  0.00     0.175 C 
BRANCH  27  28
HETATM   28  C   UNL     1      38.038 -13.522  -0.945  1.00  0.00     0.256 C 
BRANCH  28  29
HETATM   29  N   UNL     1      38.619 -14.574  -1.867  1.00  0.00    -0.066 N 
HETATM   30  H   UNL     1      38.427 -15.479  -1.410  1.00  0.00     0.280 HD
HETATM   31  C   UNL     1      37.957 -14.675  -3.244  1.00  0.00     0.261 C 
HETATM   32  C   UNL     1      38.556 -15.853  -4.022  1.00  0.00     0.195 C 
HETATM   33  O   UNL     1      39.973 -15.702  -4.136  1.00  0.00    -0.388 OA
HETATM   34  C   UNL     1      40.620 -15.716  -2.860  1.00  0.00     0.195 C 
HETATM   35  C   UNL     1      40.147 -14.530  -2.011  1.00  0.00     0.261 C 
ENDBRANCH  28  29
ENDBRANCH  27  28
ENDBRANCH  10  27
TORSDOF 9
ENDMDL
MODEL 3
REMARK VINA RESULT:      -7.4      2.239      3.660
REMARK  9 active torsions:
REMARK  status: ('A' for Active; 'I' for Inactive)
REMARK    1  A    between atoms: N_5  and  C_6 
REMARK    2  A    between atoms: C_6  and  C_7 
REMARK    3  A    between atoms: C_7  and  O_8 
REMARK    4  A    between atoms: C_7  and  C_9 
REMARK    5  A    between atoms: C_9  and  O_10 
REMARK    6  A    between atoms: O_10  and  C_11 
REMARK    7  A    between atoms: N_23  and  C_24 
REMARK    8  A    between atoms: C_24  and  C_25 
REMARK    9  A    between atoms: C_25  and  N_26 
ROOT
HETATM    1  C   UNL     1      38.731 -11.103   2.914  1.00  0.00     0.002 A 
HETATM    2  C   UNL     1      39.717 -11.592   2.053  1.00  0.00     0.032 A 
HETATM    3  C   UNL     1      40.634 -12.477   2.585  1.00  0.00     0.079 A 
HETATM    4  C   UNL     1      40.583 -12.896   3.938  1.00  0.00     0.079 A 
HETATM    5  N   UNL     1      41.628 -13.795   4.155  1.00  0.00    -0.179 N 
HETATM    6  C   UNL     1      42.322 -13.949   2.924  1.00  0.00     0.681 A 
HETATM    7  N   UNL     1      43.369 -14.779   2.733  1.00  0.00    -0.234 N 
HETATM    8  H   UNL     1      43.806 -14.938   1.837  1.00  0.00     0.174 HD
HETATM    9  H   UNL     1      43.757 -15.298   3.516  1.00  0.00     0.174 HD
HETATM   10  N   UNL     1      41.747 -13.135   1.937  1.00  0.00    -0.180 N 
HETATM   11  C   UNL     1      39.609 -12.415   4.783  1.00  0.00     0.032 A 
HETATM   12  C   UNL     1      38.681 -11.508   4.261  1.00  0.00     0.002 A 
ENDROOT
BRANCH   5  13
HETATM   13  C   UNL     1      41.716 -14.607   5.359  1.00  0.00     0.181 C 
BRANCH  13  14
HETATM   14  C   UNL     1      40.993 -15.966   5.238  1.00  0.00     0.161 C 
BRANCH  14  15
HETATM   15  O   UNL     1      39.952 -15.993   6.215  1.00  0.00    -0.392 OA
HETATM   16  H   UNL     1      39.216 -15.446   5.874  1.00  0.00     0.210 HD
ENDBRANCH  14  15
BRANCH  14  17
HETATM   17  C   UNL     1      41.944 -17.140   5.500  1.00  0.00     0.209 C 
BRANCH  17  18
HETATM   18  O   UNL     1      43.088 -17.035   4.650  1.00  0.00    -0.347 OA
BRANCH  18  19
HETATM   19  C   UNL     1      43.348 -18.151   3.893  1.00  0.00     0.090 A 
HETATM   20  C   UNL     1      42.742 -18.507   2.676  1.00  0.00     0.069 A 
HETATM   21 CL   UNL     1      41.487 -17.577   1.923  1.00  0.00    -0.081 Cl
HETATM   22  C   UNL     1      43.118 -19.687   2.025  1.00  0.00     0.050 A 
HETATM   23  C   UNL     1      44.077 -20.521   2.595  1.00  0.00     0.035 A 
HETATM   24 CL   UNL     1      44.538 -21.964   1.784  1.00  0.00    -0.084 Cl
HETATM   25  C   UNL     1      44.656 -20.197   3.817  1.00  0.00     0.026 A 
HETATM   26  C   UNL     1      44.285 -19.018   4.468  1.00  0.00     0.040 A 
ENDBRANCH  18  19
ENDBRANCH  17  18
ENDBRANCH  14  17
ENDBRANCH  13  14
ENDBRANCH   5  13
BRANCH  10  27
HETATM   27  C   UNL     1      42.045 -13.073   0.498  1.00  0.00     0.175 C 
BRANCH  27  28
HETATM   28  C   UNL     1      41.651 -14.361  -0.256  1.00  0.00     0.256 C 
BRANCH  28  29
HETATM   29  N   UNL     1      40.597 -14.170  -1.327  1.00  0.00    -0.066 N 
HETATM   30  H   UNL     1      40.821 -13.269  -1.778  1.00  0.00     0.280 HD
HETATM   31  C   UNL     1      40.623 -15.199  -2.462  1.00  0.00     0.261 C 
HETATM   32  C   UNL     1      39.593 -14.817  -3.531  1.00  0.00     0.195 C 
HETATM   33  O   UNL     1      38.290 -14.715  -2.951  1.00  0.00    -0.388 OA
HETATM   34  C   UNL     1      38.221 -13.682  -1.964  1.00  0.00     0.195 C 
HETATM   35  C   UNL     1      39.167 -13.994  -0.799  1.00  0.00     0.261 C 
ENDBRANCH  28  29
ENDBRANCH  27  28
ENDBRANCH  10  27
TORSDOF 9
ENDMDL
MODEL 4
REMARK VINA RESULT:      -7.2      4.370      8.079
REMARK  9 active torsions:
REMARK  status: ('A' for Active; 'I' for Inactive)
REMARK    1  A    between atoms: N_5  and  C_6 
REMARK    2  A    between atoms: C_6  and  C_7 
REMARK    3  A    between atoms: C_7  and  O_8 
REMARK    4  A    between atoms: C_7  and  C_9 
REMARK    5  A    between atoms: C_9  and  O_10 
REMARK    6  A    between atoms: O_10  and  C_11 
REMARK    7  A    between atoms: N_23  and  C_24 
REMARK    8  A    between atoms: C_24  and  C_25 
REMARK    9  A    between atoms: C_25  and  N_26 
ROOT
HETATM    1  C   UNL     1      41.041 -17.050   5.831  1.00  0.00     0.002 A 
HETATM    2  C   UNL     1      41.469 -17.624   4.631  1.00  0.00     0.032 A 
HETATM    3  C   UNL     1      41.372 -16.849   3.492  1.00  0.00     0.079 A 
HETATM    4  C   UNL     1      40.878 -15.521   3.523  1.00  0.00     0.079 A 
HETATM    5  N   UNL     1      40.924 -15.011   2.224  1.00  0.00    -0.179 N 
HETATM    6  C   UNL     1      41.465 -16.022   1.386  1.00  0.00     0.681 A 
HETATM    7  N   UNL     1      41.705 -15.876   0.066  1.00  0.00    -0.234 N 
HETATM    8  H   UNL     1      42.160 -16.574  -0.505  1.00  0.00     0.174 HD
HETATM    9  H   UNL     1      41.432 -15.020  -0.410  1.00  0.00     0.174 HD
HETATM   10  N   UNL     1      41.736 -17.178   2.132  1.00  0.00    -0.180 N 
HETATM   11  C   UNL     1      40.460 -14.956   4.707  1.00  0.00     0.032 A 
HETATM   12  C   UNL     1      40.541 -15.735   5.866  1.00  0.00     0.002 A 
ENDROOT
BRANCH   5  13
HETATM   13  C   UNL     1      40.729 -13.597   1.940  1.00  0.00     0.181 C 
BRANCH  13  14
HETATM   14  C   UNL     1      42.042 -12.785   1.932  1.00  0.00     0.161 C 
BRANCH  14  15
HETATM   15  O   UNL     1      42.022 -11.916   3.066  1.00  0.00    -0.392 OA
HETATM   16  H   UNL     1      41.737 -11.034   2.754  1.00  0.00     0.210 HD
ENDBRANCH  14  15
BRANCH  14  17
HETATM   17  C   UNL     1      42.177 -11.935   0.663  1.00  0.00     0.209 C 
BRANCH  17  18
HETATM   18  O   UNL     1      42.176 -12.780  -0.488  1.00  0.00    -0.347 OA
BRANCH  18  19
HETATM   19  C   UNL     1      42.252 -12.119  -1.689  1.00  0.00     0.090 A 
HETATM   20  C   UNL     1      42.005 -12.653  -2.966  1.00  0.00     0.069 A 
HETATM   21 CL   UNL     1      41.583 -14.312  -3.244  1.00  0.00    -0.081 Cl
HETATM   22  C   UNL     1      42.130 -11.844  -4.100  1.00  0.00     0.050 A 
HETATM   23  C   UNL     1      42.522 -10.514  -3.967  1.00  0.00     0.035 A 
HETATM   24 CL   UNL     1      42.667  -9.526  -5.365  1.00  0.00    -0.084 Cl
HETATM   25  C   UNL     1      42.806  -9.986  -2.712  1.00  0.00     0.026 A 
HETATM   26  C   UNL     1      42.680 -10.790  -1.577  1.00  0.00     0.040 A 
ENDBRANCH  18  19
ENDBRANCH  17  18
ENDBRANCH  14  17
ENDBRANCH  13  14
ENDBRANCH   5  13
BRANCH  10  27
HETATM   27  C   UNL     1      42.421 -18.411   1.715  1.00  0.00     0.175 C 
BRANCH  27  28
HETATM   28  C   UNL     1      43.925 -18.414   2.063  1.00  0.00     0.256 C 
BRANCH  28  29
HETATM   29  N   UNL     1      44.443 -19.725   2.619  1.00  0.00    -0.066 N 
HETATM   30  H   UNL     1      45.436 -19.770   2.341  1.00  0.00     0.280 HD
HETATM   31  C   UNL     1      44.452 -19.830   4.146  1.00  0.00     0.261 C 
HETATM   32  C   UNL     1      45.111 -21.148   4.571  1.00  0.00     0.195 C 
HETATM   33  O   UNL     1      44.430 -22.257   3.977  1.00  0.00    -0.388 OA
HETATM   34  C   UNL     1      44.506 -22.231   2.548  1.00  0.00     0.195 C 
HETATM   35  C   UNL     1      43.811 -20.979   2.001  1.00  0.00     0.261 C 
ENDBRANCH  28  29
ENDBRANCH  27  28
ENDBRANCH  10  27
TORSDOF 9
ENDMDL
MODEL 5
REMARK VINA RESULT:      -7.2      3.992      7.731
REMARK  9 active torsions:
REMARK  status: ('A' for Active; 'I' for Inactive)
REMARK    1  A    between atoms: N_5  and  C_6 
REMARK    2  A    between atoms: C_6  and  C_7 
REMARK    3  A    between atoms: C_7  and  O_8 
REMARK    4  A    between atoms: C_7  and  C_9 
REMARK    5  A    between atoms: C_9  and  O_10 
REMARK    6  A    between atoms: O_10  and  C_11 
REMARK    7  A    between atoms: N_23  and  C_24 
REMARK    8  A    between atoms: C_24  and  C_25 
REMARK    9  A    between atoms: C_25  and  N_26 
ROOT
HETATM    1  C   UNL     1      44.513 -14.777   7.170  1.00  0.00     0.002 A 
HETATM    2  C   UNL     1      44.030 -15.967   6.619  1.00  0.00     0.032 A 
HETATM    3  C   UNL     1      43.014 -15.865   5.691  1.00  0.00     0.079 A 
HETATM    4  C   UNL     1      42.482 -14.615   5.288  1.00  0.00     0.079 A 
HETATM    5  N   UNL     1      41.490 -14.851   4.334  1.00  0.00    -0.179 N 
HETATM    6  C   UNL     1      41.418 -16.255   4.131  1.00  0.00     0.681 A 
HETATM    7  N   UNL     1      40.602 -16.860   3.244  1.00  0.00    -0.234 N 
HETATM    8  H   UNL     1      40.612 -17.852   3.053  1.00  0.00     0.174 HD
HETATM    9  H   UNL     1      39.932 -16.311   2.711  1.00  0.00     0.174 HD
HETATM   10  N   UNL     1      42.331 -16.915   4.967  1.00  0.00    -0.180 N 
HETATM   11  C   UNL     1      42.961 -13.442   5.829  1.00  0.00     0.032 A 
HETATM   12  C   UNL     1      43.982 -13.533   6.780  1.00  0.00     0.002 A 
ENDROOT
BRANCH   5  13
HETATM   13  C   UNL     1      40.918 -13.782   3.530  1.00  0.00     0.181 C 
BRANCH  13  14
HETATM   14  C   UNL     1      41.780 -13.404   2.306  1.00  0.00     0.161 C 
BRANCH  14  15
HETATM   15  O   UNL     1      42.165 -12.035   2.452  1.00  0.00    -0.392 OA
HETATM   16  H   UNL     1      42.205 -11.844   3.410  1.00  0.00     0.210 HD
ENDBRANCH  14  15
BRANCH  14  17
HETATM   17  C   UNL     1      41.003 -13.559   0.994  1.00  0.00     0.209 C 
BRANCH  17  18
HETATM   18  O   UNL     1      41.831 -14.185   0.012  1.00  0.00    -0.347 OA
BRANCH  18  19
HETATM   19  C   UNL     1      41.903 -13.523  -1.189  1.00  0.00     0.090 A 
HETATM   20  C   UNL     1      41.487 -14.001  -2.444  1.00  0.00     0.069 A 
HETATM   21 CL   UNL     1      40.825 -15.583  -2.694  1.00  0.00    -0.081 Cl
HETATM   22  C   UNL     1      41.632 -13.200  -3.582  1.00  0.00     0.050 A 
HETATM   23  C   UNL     1      42.210 -11.937  -3.475  1.00  0.00     0.035 A 
HETATM   24 CL   UNL     1      42.378 -10.958  -4.877  1.00  0.00    -0.084 Cl
HETATM   25  C   UNL     1      42.660 -11.470  -2.245  1.00  0.00     0.026 A 
HETATM   26  C   UNL     1      42.514 -12.265  -1.106  1.00  0.00     0.040 A 
ENDBRANCH  18  19
ENDBRANCH  17  18
ENDBRANCH  14  17
ENDBRANCH  13  14
ENDBRANCH   5  13
BRANCH  10  27
HETATM   27  C   UNL     1      42.697 -18.339   4.999  1.00  0.00     0.175 C 
BRANCH  27  28
HETATM   28  C   UNL     1      43.808 -18.700   3.991  1.00  0.00     0.256 C 
BRANCH  28  29
HETATM   29  N   UNL     1      43.794 -20.141   3.523  1.00  0.00    -0.066 N 
HETATM   30  H   UNL     1      42.894 -20.529   3.848  1.00  0.00     0.280 HD
HETATM   31  C   UNL     1      43.785 -20.336   2.004  1.00  0.00     0.261 C 
HETATM   32  C   UNL     1      43.646 -21.827   1.674  1.00  0.00     0.195 C 
HETATM   33  O   UNL     1      44.701 -22.572   2.288  1.00  0.00    -0.388 OA
HETATM   34  C   UNL     1      44.658 -22.488   3.716  1.00  0.00     0.195 C 
HETATM   35  C   UNL     1      44.858 -21.038   4.171  1.00  0.00     0.261 C 
ENDBRANCH  28  29
ENDBRANCH  27  28
ENDBRANCH  10  27
TORSDOF 9
ENDMDL
MODEL 6
REMARK VINA RESULT:      -7.2      2.829      6.705
REMARK  9 active torsions:
REMARK  status: ('A' for Active; 'I' for Inactive)
REMARK    1  A    between atoms: N_5  and  C_6 
REMARK    2  A    between atoms: C_6  and  C_7 
REMARK    3  A    between atoms: C_7  and  O_8 
REMARK    4  A    between atoms: C_7  and  C_9 
REMARK    5  A    between atoms: C_9  and  O_10 
REMARK    6  A    between atoms: O_10  and  C_11 
REMARK    7  A    between atoms: N_23  and  C_24 
REMARK    8  A    between atoms: C_24  and  C_25 
REMARK    9  A    between atoms: C_25  and  N_26 
ROOT
HETATM    1  C   UNL     1      37.906 -12.310   1.529  1.00  0.00     0.002 A 
HETATM    2  C   UNL     1      38.694 -12.110   2.666  1.00  0.00     0.032 A 
HETATM    3  C   UNL     1      39.554 -13.129   3.022  1.00  0.00     0.079 A 
HETATM    4  C   UNL     1      39.660 -14.326   2.271  1.00  0.00     0.079 A 
HETATM    5  N   UNL     1      40.619 -15.138   2.878  1.00  0.00    -0.179 N 
HETATM    6  C   UNL     1      41.124 -14.433   4.004  1.00  0.00     0.681 A 
HETATM    7  N   UNL     1      42.105 -14.884   4.814  1.00  0.00    -0.234 N 
HETATM    8  H   UNL     1      42.509 -14.344   5.565  1.00  0.00     0.174 HD
HETATM    9  H   UNL     1      42.488 -15.816   4.679  1.00  0.00     0.174 HD
HETATM   10  N   UNL     1      40.475 -13.197   4.135  1.00  0.00    -0.180 N 
HETATM   11  C   UNL     1      38.885 -14.519   1.149  1.00  0.00     0.032 A 
HETATM   12  C   UNL     1      38.000 -13.500   0.783  1.00  0.00     0.002 A 
ENDROOT
BRANCH   5  13
HETATM   13  C   UNL     1      41.156 -16.324   2.228  1.00  0.00     0.181 C 
BRANCH  13  14
HETATM   14  C   UNL     1      42.399 -16.039   1.359  1.00  0.00     0.161 C 
BRANCH  14  15
HETATM   15  O   UNL     1      42.125 -16.512   0.039  1.00  0.00    -0.392 OA
HETATM   16  H   UNL     1      42.322 -15.782  -0.580  1.00  0.00     0.210 HD
ENDBRANCH  14  15
BRANCH  14  17
HETATM   17  C   UNL     1      43.642 -16.761   1.892  1.00  0.00     0.209 C 
BRANCH  17  18
HETATM   18  O   UNL     1      43.558 -16.885   3.313  1.00  0.00    -0.347 OA
BRANCH  18  19
HETATM   19  C   UNL     1      43.948 -18.104   3.810  1.00  0.00     0.090 A 
HETATM   20  C   UNL     1      44.337 -18.395   5.129  1.00  0.00     0.069 A 
HETATM   21 CL   UNL     1      44.426 -17.203   6.385  1.00  0.00    -0.081 Cl
HETATM   22  C   UNL     1      44.712 -19.696   5.479  1.00  0.00     0.050 A 
HETATM   23  C   UNL     1      44.724 -20.700   4.513  1.00  0.00     0.035 A 
HETATM   24 CL   UNL     1      45.181 -22.297   4.953  1.00  0.00    -0.084 Cl
HETATM   25  C   UNL     1      44.379 -20.415   3.197  1.00  0.00     0.026 A 
HETATM   26  C   UNL     1      44.000 -19.118   2.845  1.00  0.00     0.040 A 
ENDBRANCH  18  19
ENDBRANCH  17  18
ENDBRANCH  14  17
ENDBRANCH  13  14
ENDBRANCH   5  13
BRANCH  10  27
HETATM   27  C   UNL     1      40.765 -12.091   5.060  1.00  0.00     0.175 C 
BRANCH  27  28
HETATM   28  C   UNL     1      39.783 -12.025   6.249  1.00  0.00     0.256 C 
BRANCH  28  29
HETATM   29  N   UNL     1      40.416 -11.644   7.572  1.00  0.00    -0.066 N 
HETATM   30  H   UNL     1      40.829 -12.514   7.943  1.00  0.00     0.280 HD
HETATM   31  C   UNL     1      41.585 -10.659   7.479  1.00  0.00     0.261 C 
HETATM   32  C   UNL     1      42.206 -10.459   8.866  1.00  0.00     0.195 C 
HETATM   33  O   UNL     1      41.215 -10.004   9.792  1.00  0.00    -0.388 OA
HETATM   34  C   UNL     1      40.169 -10.963   9.974  1.00  0.00     0.195 C 
HETATM   35  C   UNL     1      39.424 -11.194   8.653  1.00  0.00     0.261 C 
ENDBRANCH  28  29
ENDBRANCH  27  28
ENDBRANCH  10  27
TORSDOF 9
ENDMDL
MODEL 7
REMARK VINA RESULT:      -7.1      2.659      4.451
REMARK  9 active torsions:
REMARK  status: ('A' for Active; 'I' for Inactive)
REMARK    1  A    between atoms: N_5  and  C_6 
REMARK    2  A    between atoms: C_6  and  C_7 
REMARK    3  A    between atoms: C_7  and  O_8 
REMARK    4  A    between atoms: C_7  and  C_9 
REMARK    5  A    between atoms: C_9  and  O_10 
REMARK    6  A    between atoms: O_10  and  C_11 
REMARK    7  A    between atoms: N_23  and  C_24 
REMARK    8  A    between atoms: C_24  and  C_25 
REMARK    9  A    between atoms: C_25  and  N_26 
ROOT
HETATM    1  C   UNL     1      37.516 -12.280  -0.051  1.00  0.00     0.002 A 
HETATM    2  C   UNL     1      38.319 -13.000  -0.940  1.00  0.00     0.032 A 
HETATM    3  C   UNL     1      39.338 -13.756  -0.397  1.00  0.00     0.079 A 
HETATM    4  C   UNL     1      39.565 -13.826   1.001  1.00  0.00     0.079 A 
HETATM    5  N   UNL     1      40.647 -14.678   1.224  1.00  0.00    -0.179 N 
HETATM    6  C   UNL     1      41.084 -15.155  -0.041  1.00  0.00     0.681 A 
HETATM    7  N   UNL     1      42.085 -16.041  -0.223  1.00  0.00    -0.234 N 
HETATM    8  H   UNL     1      42.338 -16.431  -1.119  1.00  0.00     0.174 HD
HETATM    9  H   UNL     1      42.630 -16.363   0.573  1.00  0.00     0.174 HD
HETATM   10  N   UNL     1      40.311 -14.590  -1.067  1.00  0.00    -0.180 N 
HETATM   11  C   UNL     1      38.770 -13.118   1.875  1.00  0.00     0.032 A 
HETATM   12  C   UNL     1      37.742 -12.338   1.337  1.00  0.00     0.002 A 
ENDROOT
BRANCH   5  13
HETATM   13  C   UNL     1      40.986 -15.170   2.551  1.00  0.00     0.181 C 
BRANCH  13  14
HETATM   14  C   UNL     1      42.316 -14.607   3.094  1.00  0.00     0.161 C 
BRANCH  14  15
HETATM   15  O   UNL     1      42.751 -13.580   2.201  1.00  0.00    -0.392 OA
HETATM   16  H   UNL     1      43.031 -12.818   2.745  1.00  0.00     0.210 HD
ENDBRANCH  14  15
BRANCH  14  17
HETATM   17  C   UNL     1      43.402 -15.686   3.169  1.00  0.00     0.209 C 
BRANCH  17  18
HETATM   18  O   UNL     1      42.969 -16.751   4.017  1.00  0.00    -0.347 OA
BRANCH  18  19
HETATM   19  C   UNL     1      43.400 -18.000   3.642  1.00  0.00     0.090 A 
HETATM   20  C   UNL     1      44.282 -18.837   4.346  1.00  0.00     0.069 A 
HETATM   21 CL   UNL     1      45.031 -18.394   5.845  1.00  0.00    -0.081 Cl
HETATM   22  C   UNL     1      44.628 -20.088   3.823  1.00  0.00     0.050 A 
HETATM   23  C   UNL     1      44.116 -20.494   2.593  1.00  0.00     0.035 A 
HETATM   24 CL   UNL     1      44.541 -22.035   1.963  1.00  0.00    -0.084 Cl
HETATM   25  C   UNL     1      43.272 -19.658   1.870  1.00  0.00     0.026 A 
HETATM   26  C   UNL     1      42.922 -18.410   2.390  1.00  0.00     0.040 A 
ENDBRANCH  18  19
ENDBRANCH  17  18
ENDBRANCH  14  17
ENDBRANCH  13  14
ENDBRANCH   5  13
BRANCH  10  27
HETATM   27  C   UNL     1      40.314 -14.896  -2.505  1.00  0.00     0.175 C 
BRANCH  27  28
HETATM   28  C   UNL     1      41.477 -14.223  -3.263  1.00  0.00     0.256 C 
BRANCH  28  29
HETATM   29  N   UNL     1      41.712 -12.771  -2.900  1.00  0.00    -0.066 N 
HETATM   30  H   UNL     1      40.909 -12.499  -2.312  1.00  0.00     0.280 HD
HETATM   31  C   UNL     1      42.947 -12.504  -2.034  1.00  0.00     0.261 C 
HETATM   32  C   UNL     1      42.995 -11.023  -1.641  1.00  0.00     0.195 C 
HETATM   33  O   UNL     1      42.992 -10.199  -2.810  1.00  0.00    -0.388 OA
HETATM   34  C   UNL     1      41.792 -10.356  -3.575  1.00  0.00     0.195 C 
HETATM   35  C   UNL     1      41.671 -11.797  -4.086  1.00  0.00     0.261 C 
ENDBRANCH  28  29
ENDBRANCH  27  28
ENDBRANCH  10  27
TORSDOF 9
ENDMDL
MODEL 8
REMARK VINA RESULT:      -7.1      2.484      4.695
REMARK  9 active torsions:
REMARK  status: ('A' for Active; 'I' for Inactive)
REMARK    1  A    between atoms: N_5  and  C_6 
REMARK    2  A    between atoms: C_6  and  C_7 
REMARK    3  A    between atoms: C_7  and  O_8 
REMARK    4  A    between atoms: C_7  and  C_9 
REMARK    5  A    between atoms: C_9  and  O_10 
REMARK    6  A    between atoms: O_10  and  C_11 
REMARK    7  A    between atoms: N_23  and  C_24 
REMARK    8  A    between atoms: C_24  and  C_25 
REMARK    9  A    between atoms: C_25  and  N_26 
ROOT
HETATM    1  C   UNL     1      44.364 -19.513   2.568  1.00  0.00     0.002 A 
HETATM    2  C   UNL     1      43.481 -18.808   1.746  1.00  0.00     0.032 A 
HETATM    3  C   UNL     1      42.473 -18.099   2.368  1.00  0.00     0.079 A 
HETATM    4  C   UNL     1      42.334 -18.062   3.778  1.00  0.00     0.079 A 
HETATM    5  N   UNL     1      41.239 -17.253   4.086  1.00  0.00    -0.179 N 
HETATM    6  C   UNL     1      40.705 -16.771   2.861  1.00  0.00     0.681 A 
HETATM    7  N   UNL     1      39.664 -15.919   2.760  1.00  0.00    -0.234 N 
HETATM    8  H   UNL     1      39.341 -15.523   1.889  1.00  0.00     0.174 HD
HETATM    9  H   UNL     1      39.160 -15.630   3.595  1.00  0.00     0.174 HD
HETATM   10  N   UNL     1      41.431 -17.289   1.777  1.00  0.00    -0.180 N 
HETATM   11  C   UNL     1      43.207 -18.754   4.586  1.00  0.00     0.032 A 
HETATM   12  C   UNL     1      44.226 -19.487   3.969  1.00  0.00     0.002 A 
ENDROOT
BRANCH   5  13
HETATM   13  C   UNL     1      40.968 -16.797   5.441  1.00  0.00     0.181 C 
BRANCH  13  14
HETATM   14  C   UNL     1      41.635 -15.446   5.780  1.00  0.00     0.161 C 
BRANCH  14  15
HETATM   15  O   UNL     1      42.387 -15.623   6.982  1.00  0.00    -0.392 OA
HETATM   16  H   UNL     1      43.065 -14.919   7.009  1.00  0.00     0.210 HD
ENDBRANCH  14  15
BRANCH  14  17
HETATM   17  C   UNL     1      40.598 -14.341   6.006  1.00  0.00     0.209 C 
BRANCH  17  18
HETATM   18  O   UNL     1      41.116 -13.090   5.550  1.00  0.00    -0.347 OA
BRANCH  18  19
HETATM   19  C   UNL     1      40.809 -12.778   4.249  1.00  0.00     0.090 A 
HETATM   20  C   UNL     1      41.639 -12.932   3.124  1.00  0.00     0.069 A 
HETATM   21 CL   UNL     1      43.264 -13.529   3.208  1.00  0.00    -0.081 Cl
HETATM   22  C   UNL     1      41.177 -12.561   1.857  1.00  0.00     0.050 A 
HETATM   23  C   UNL     1      39.903 -12.016   1.712  1.00  0.00     0.035 A 
HETATM   24 CL   UNL     1      39.342 -11.569   0.151  1.00  0.00    -0.084 Cl
HETATM   25  C   UNL     1      39.088 -11.824   2.823  1.00  0.00     0.026 A 
HETATM   26  C   UNL     1      39.545 -12.197   4.089  1.00  0.00     0.040 A 
ENDBRANCH  18  19
ENDBRANCH  17  18
ENDBRANCH  14  17
ENDBRANCH  13  14
ENDBRANCH   5  13
BRANCH  10  27
HETATM   27  C   UNL     1      41.324 -16.958   0.348  1.00  0.00     0.175 C 
BRANCH  27  28
HETATM   28  C   UNL     1      41.897 -15.567   0.006  1.00  0.00     0.256 C 
BRANCH  28  29
HETATM   29  N   UNL     1      41.259 -14.899  -1.196  1.00  0.00    -0.066 N 
HETATM   30  H   UNL     1      40.328 -14.588  -0.878  1.00  0.00     0.280 HD
HETATM   31  C   UNL     1      41.958 -13.626  -1.684  1.00  0.00     0.261 C 
HETATM   32  C   UNL     1      41.143 -12.991  -2.818  1.00  0.00     0.195 C 
HETATM   33  O   UNL     1      40.963 -13.927  -3.884  1.00  0.00    -0.388 OA
HETATM   34  C   UNL     1      40.215 -15.075  -3.470  1.00  0.00     0.195 C 
HETATM   35  C   UNL     1      40.972 -15.837  -2.376  1.00  0.00     0.261 C 
ENDBRANCH  28  29
ENDBRANCH  27  28
ENDBRANCH  10  27
TORSDOF 9
ENDMDL
MODEL 9
REMARK VINA RESULT:      -7.0      4.201      7.195
REMARK  9 active torsions:
REMARK  status: ('A' for Active; 'I' for Inactive)
REMARK    1  A    between atoms: N_5  and  C_6 
REMARK    2  A    between atoms: C_6  and  C_7 
REMARK    3  A    between atoms: C_7  and  O_8 
REMARK    4  A    between atoms: C_7  and  C_9 
REMARK    5  A    between atoms: C_9  and  O_10 
REMARK    6  A    between atoms: O_10  and  C_11 
REMARK    7  A    between atoms: N_23  and  C_24 
REMARK    8  A    between atoms: C_24  and  C_25 
REMARK    9  A    between atoms: C_25  and  N_26 
ROOT
HETATM    1  C   UNL     1      39.589 -15.566   2.049  1.00  0.00     0.002 A 
HETATM    2  C   UNL     1      40.478 -16.094   2.989  1.00  0.00     0.032 A 
HETATM    3  C   UNL     1      41.074 -15.204   3.861  1.00  0.00     0.079 A 
HETATM    4  C   UNL     1      40.796 -13.815   3.829  1.00  0.00     0.079 A 
HETATM    5  N   UNL     1      41.538 -13.200   4.839  1.00  0.00    -0.179 N 
HETATM    6  C   UNL     1      42.268 -14.215   5.512  1.00  0.00     0.681 A 
HETATM    7  N   UNL     1      43.065 -14.006   6.580  1.00  0.00    -0.234 N 
HETATM    8  H   UNL     1      43.519 -14.745   7.098  1.00  0.00     0.174 HD
HETATM    9  H   UNL     1      43.230 -13.061   6.915  1.00  0.00     0.174 HD
HETATM   10  N   UNL     1      42.021 -15.464   4.922  1.00  0.00    -0.180 N 
HETATM   11  C   UNL     1      39.917 -13.297   2.904  1.00  0.00     0.032 A 
HETATM   12  C   UNL     1      39.316 -14.186   2.007  1.00  0.00     0.002 A 
ENDROOT
BRANCH   5  13
HETATM   13  C   UNL     1      41.299 -11.824   5.248  1.00  0.00     0.181 C 
BRANCH  13  14
HETATM   14  C   UNL     1      40.477 -11.703   6.549  1.00  0.00     0.161 C 
BRANCH  14  15
HETATM   15  O   UNL     1      39.172 -11.239   6.197  1.00  0.00    -0.392 OA
HETATM   16  H   UNL     1      38.536 -11.673   6.800  1.00  0.00     0.210 HD
ENDBRANCH  14  15
BRANCH  14  17
HETATM   17  C   UNL     1      41.107 -10.705   7.528  1.00  0.00     0.209 C 
BRANCH  17  18
HETATM   18  O   UNL     1      42.410 -11.153   7.904  1.00  0.00    -0.347 OA
BRANCH  18  19
HETATM   19  C   UNL     1      42.798 -10.799   9.173  1.00  0.00     0.090 A 
HETATM   20  C   UNL     1      44.068 -10.975   9.749  1.00  0.00     0.069 A 
HETATM   21 CL   UNL     1      45.394 -11.733   8.930  1.00  0.00    -0.081 Cl
HETATM   22  C   UNL     1      44.304 -10.560  11.064  1.00  0.00     0.050 A 
HETATM   23  C   UNL     1      43.274  -9.995  11.812  1.00  0.00     0.035 A 
HETATM   24 CL   UNL     1      43.575  -9.484  13.424  1.00  0.00    -0.084 Cl
HETATM   25  C   UNL     1      42.003  -9.851  11.264  1.00  0.00     0.026 A 
HETATM   26  C   UNL     1      41.765 -10.261   9.950  1.00  0.00     0.040 A 
ENDBRANCH  18  19
ENDBRANCH  17  18
ENDBRANCH  14  17
ENDBRANCH  13  14
ENDBRANCH   5  13
BRANCH  10  27
HETATM   27  C   UNL     1      42.446 -16.799   5.367  1.00  0.00     0.175 C 
BRANCH  27  28
HETATM   28  C   UNL     1      43.804 -17.230   4.774  1.00  0.00     0.256 C 
BRANCH  28  29
HETATM   29  N   UNL     1      43.829 -18.633   4.202  1.00  0.00    -0.066 N 
HETATM   30  H   UNL     1      42.935 -19.064   4.488  1.00  0.00     0.280 HD
HETATM   31  C   UNL     1      43.840 -18.717   2.673  1.00  0.00     0.261 C 
HETATM   32  C   UNL     1      43.740 -20.182   2.234  1.00  0.00     0.195 C 
HETATM   33  O   UNL     1      44.806 -20.946   2.805  1.00  0.00    -0.388 OA
HETATM   34  C   UNL     1      44.746 -20.968   4.234  1.00  0.00     0.195 C 
HETATM   35  C   UNL     1      44.908 -19.550   4.796  1.00  0.00     0.261 C 
ENDBRANCH  28  29
ENDBRANCH  27  28
ENDBRANCH  10  27
TORSDOF 9
ENDMDL
MODEL 10
REMARK VINA RESULT:      -7.0      3.591      7.731
REMARK  9 active torsions:
REMARK  status: ('A' for Active; 'I' for Inactive)
REMARK    1  A    between atoms: N_5  and  C_6 
REMARK    2  A    between atoms: C_6  and  C_7 
REMARK    3  A    between atoms: C_7  and  O_8 
REMARK    4  A    between atoms: C_7  and  C_9 
REMARK    5  A    between atoms: C_9  and  O_10 
REMARK    6  A    between atoms: O_10  and  C_11 
REMARK    7  A    between atoms: N_23  and  C_24 
REMARK    8  A    between atoms: C_24  and  C_25 
REMARK    9  A    between atoms: C_25  and  N_26 
ROOT
HETATM    1  C   UNL     1      44.451 -14.626   7.300  1.00  0.00     0.002 A 
HETATM    2  C   UNL     1      44.074 -15.893   6.848  1.00  0.00     0.032 A 
HETATM    3  C   UNL     1      43.191 -15.946   5.788  1.00  0.00     0.079 A 
HETATM    4  C   UNL     1      42.692 -14.777   5.161  1.00  0.00     0.079 A 
HETATM    5  N   UNL     1      41.844 -15.168   4.123  1.00  0.00    -0.179 N 
HETATM    6  C   UNL     1      41.831 -16.589   4.095  1.00  0.00     0.681 A 
HETATM    7  N   UNL     1      41.156 -17.331   3.192  1.00  0.00    -0.234 N 
HETATM    8  H   UNL     1      41.213 -18.337   3.134  1.00  0.00     0.174 HD
HETATM    9  H   UNL     1      40.553 -16.878   2.510  1.00  0.00     0.174 HD
HETATM   10  N   UNL     1      42.636 -17.103   5.122  1.00  0.00    -0.180 N 
HETATM   11  C   UNL     1      43.068 -13.529   5.606  1.00  0.00     0.032 A 
HETATM   12  C   UNL     1      43.952 -13.461   6.687  1.00  0.00     0.002 A 
ENDROOT
BRANCH   5  13
HETATM   13  C   UNL     1      41.364 -14.231   3.120  1.00  0.00     0.181 C 
BRANCH  13  14
HETATM   14  C   UNL     1      42.368 -13.991   1.972  1.00  0.00     0.161 C 
BRANCH  14  15
HETATM   15  O   UNL     1      42.594 -12.583   1.880  1.00  0.00    -0.392 OA
HETATM   16  H   UNL     1      43.527 -12.454   1.618  1.00  0.00     0.210 HD
ENDBRANCH  14  15
BRANCH  14  17
HETATM   17  C   UNL     1      41.824 -14.490   0.628  1.00  0.00     0.209 C 
BRANCH  17  18
HETATM   18  O   UNL     1      41.325 -13.389  -0.132  1.00  0.00    -0.347 OA
BRANCH  18  19
HETATM   19  C   UNL     1      40.305 -13.700  -0.997  1.00  0.00     0.090 A 
HETATM   20  C   UNL     1      38.928 -13.706  -0.715  1.00  0.00     0.069 A 
HETATM   21 CL   UNL     1      38.270 -13.345   0.848  1.00  0.00    -0.081 Cl
HETATM   22  C   UNL     1      38.010 -14.052  -1.712  1.00  0.00     0.050 A 
HETATM   23  C   UNL     1      38.461 -14.413  -2.979  1.00  0.00     0.035 A 
HETATM   24 CL   UNL     1      37.325 -14.830  -4.199  1.00  0.00    -0.084 Cl
HETATM   25  C   UNL     1      39.823 -14.447  -3.259  1.00  0.00     0.026 A 
HETATM   26  C   UNL     1      40.743 -14.099  -2.267  1.00  0.00     0.040 A 
ENDBRANCH  18  19
ENDBRANCH  17  18
ENDBRANCH  14  17
ENDBRANCH  13  14
ENDBRANCH   5  13
BRANCH  10  27
HETATM   27  C   UNL     1      43.024 -18.497   5.384  1.00  0.00     0.175 C 
BRANCH  27  28
HETATM   28  C   UNL     1      44.231 -18.958   4.539  1.00  0.00     0.256 C 
BRANCH  28  29
HETATM   29  N   UNL     1      44.053 -20.301   3.861  1.00  0.00    -0.066 N 
HETATM   30  H   UNL     1      43.108 -20.622   4.127  1.00  0.00     0.280 HD
HETATM   31  C   UNL     1      44.044 -20.265   2.330  1.00  0.00     0.261 C 
HETATM   32  C   UNL     1      43.734 -21.663   1.781  1.00  0.00     0.195 C 
HETATM   33  O   UNL     1      44.684 -22.612   2.274  1.00  0.00    -0.388 OA
HETATM   34  C   UNL     1      44.629 -22.737   3.698  1.00  0.00     0.195 C 
HETATM   35  C   UNL     1      44.993 -21.405   4.365  1.00  0.00     0.261 C 
ENDBRANCH  28  29
ENDBRANCH  27  28
ENDBRANCH  10  27
TORSDOF 9
ENDMDL
