MODEL 1
REMARK VINA RESULT:      -9.7      0.000      0.000
REMARK  8 active torsions:
REMARK  status: ('A' for Active; 'I' for Inactive)
REMARK    1  A    between atoms: C_5  and  N_6 
REMARK       I    between atoms: N_6  and  C_7 
REMARK    2  A    between atoms: C_7  and  C_8 
REMARK    3  A    between atoms: C_8  and  N_9 
REMARK    4  A    between atoms: N_12  and  C_13 
REMARK    5  A    between atoms: C_13  and  C_14 
REMARK    6  A    between atoms: C_17  and  C_18 
REMARK       I    between atoms: C_18  and  N_19 
REMARK    7  A    between atoms: N_19  and  C_20 
REMARK    8  A    between atoms: C_20  and  C_21 
ROOT
HETATM    1  N   UNL     1      39.965 -12.798  -0.807  1.00  0.00    -0.290 N 
HETATM    2  C   UNL     1      39.124 -12.761   0.299  1.00  0.00     0.332 C 
HETATM    3  O   UNL     1      38.092 -13.434   0.322  1.00  0.00    -0.246 OA
HETATM    4  N   UNL     1      39.516 -11.963   1.363  1.00  0.00    -0.261 N 
HETATM    5  C   UNL     1      40.649 -11.159   1.362  1.00  0.00     0.264 C 
HETATM    6  O   UNL     1      41.098 -10.594   2.357  1.00  0.00    -0.267 OA
HETATM    7  C   UNL     1      41.372 -11.033   0.088  1.00  0.00     0.059 A 
HETATM    8  C   UNL     1      41.045 -11.888  -0.963  1.00  0.00     0.055 A 
HETATM    9  C   UNL     1      42.425 -10.113  -0.023  1.00  0.00     0.019 A 
HETATM   10  C   UNL     1      43.163 -10.040  -1.201  1.00  0.00     0.001 A 
HETATM   11  C   UNL     1      42.854 -10.889  -2.258  1.00  0.00     0.002 A 
HETATM   12  C   UNL     1      41.805 -11.810  -2.140  1.00  0.00     0.031 A 
ENDROOT
BRANCH   4  13
HETATM   13  C   UNL     1      38.851 -12.171   2.644  1.00  0.00     0.175 C 
BRANCH  13  14
HETATM   14  C   UNL     1      39.571 -13.106   3.590  1.00  0.00    -0.040 A 
HETATM   15  C   UNL     1      39.794 -12.756   4.929  1.00  0.00     0.010 A 
HETATM   16  C   UNL     1      40.366 -13.675   5.820  1.00  0.00     0.017 A 
HETATM   17  C   UNL     1      40.737 -14.952   5.377  1.00  0.00     0.032 A 
HETATM   18  C   UNL     1      40.537 -15.293   4.035  1.00  0.00     0.017 A 
HETATM   19  C   UNL     1      39.966 -14.378   3.151  1.00  0.00     0.010 A 
BRANCH  17  20
HETATM   20  C   UNL     1      41.277 -16.006   6.285  1.00  0.00     0.251 C 
HETATM   21  N   UNL     1      42.508 -15.774   6.856  1.00  0.00    -0.353 N 
HETATM   22  H   UNL     1      43.073 -14.994   6.559  1.00  0.00     0.163 HD
HETATM   23  O   UNL     1      40.631 -17.030   6.480  1.00  0.00    -0.268 OA
BRANCH  21  24
HETATM   24  C   UNL     1      43.118 -16.732   7.754  1.00  0.00     0.161 C 
BRANCH  24  25
HETATM   25  C   UNL     1      43.709 -17.894   6.996  1.00  0.00    -0.038 A 
HETATM   26  C   UNL     1      43.371 -19.212   7.340  1.00  0.00     0.048 A 
HETATM   27  C   UNL     1      43.919 -20.239   6.601  1.00  0.00     0.105 A 
HETATM   28  C   UNL     1      44.777 -20.002   5.553  1.00  0.00     0.105 A 
HETATM   29  O   UNL     1      43.693 -21.565   6.797  1.00  0.00    -0.323 OA
HETATM   30  O   UNL     1      45.200 -21.149   4.959  1.00  0.00    -0.323 OA
HETATM   31  C   UNL     1      45.133 -18.724   5.183  1.00  0.00     0.040 A 
HETATM   32  C   UNL     1      44.495 -22.135   5.741  1.00  0.00     0.352 A 
HETATM   33  C   UNL     1      44.587 -17.662   5.911  1.00  0.00     0.012 A 
ENDBRANCH  24  25
ENDBRANCH  21  24
ENDBRANCH  17  20
ENDBRANCH  13  14
ENDBRANCH   4  13
BRANCH   1  34
HETATM   34  C   UNL     1      39.814 -13.918  -1.745  1.00  0.00     0.237 C 
BRANCH  34  35
HETATM   35  C   UNL     1      40.580 -15.201  -1.428  1.00  0.00     0.240 C 
HETATM   36  N   UNL     1      40.710 -15.472  -0.080  1.00  0.00    -0.326 N 
HETATM   37  H   UNL     1      40.281 -14.809   0.555  1.00  0.00     0.169 HD
HETATM   38  O   UNL     1      41.106 -15.826  -2.347  1.00  0.00    -0.271 OA
BRANCH  36  39
HETATM   39  C   UNL     1      41.421 -16.541   0.507  1.00  0.00     0.034 A 
HETATM   40  C   UNL     1      40.815 -17.655   1.091  1.00  0.00     0.030 A 
HETATM   41  C   UNL     1      41.586 -18.686   1.641  1.00  0.00     0.009 A 
HETATM   42  C   UNL     1      42.981 -18.623   1.613  1.00  0.00    -0.062 A 
HETATM   43  C   UNL     1      43.809 -19.717   2.218  1.00  0.00     0.048 C 
HETATM   44  C   UNL     1      43.592 -17.500   1.047  1.00  0.00     0.009 A 
HETATM   45  C   UNL     1      42.819 -16.471   0.495  1.00  0.00     0.030 A 
ENDBRANCH  36  39
ENDBRANCH  34  35
ENDBRANCH   1  34
TORSDOF 8
ENDMDL
MODEL 2
REMARK VINA RESULT:      -9.5      4.967      8.401
REMARK  8 active torsions:
REMARK  status: ('A' for Active; 'I' for Inactive)
REMARK    1  A    between atoms: C_5  and  N_6 
REMARK       I    between atoms: N_6  and  C_7 
REMARK    2  A    between atoms: C_7  and  C_8 
REMARK    3  A    between atoms: C_8  and  N_9 
REMARK    4  A    between atoms: N_12  and  C_13 
REMARK    5  A    between atoms: C_13  and  C_14 
REMARK    6  A    between atoms: C_17  and  C_18 
REMARK       I    between atoms: C_18  and  N_19 
REMARK    7  A    between atoms: N_19  and  C_20 
REMARK    8  A    between atoms: C_20  and  C_21 
ROOT
HETATM    1  N   UNL     1      42.670 -16.496   2.759  1.00  0.00    -0.290 N 
HETATM    2  C   UNL     1      41.842 -15.471   3.201  1.00  0.00     0.332 C 
HETATM    3  O   UNL     1      41.639 -14.482   2.495  1.00  0.00    -0.246 OA
HETATM    4  N   UNL     1      41.248 -15.632   4.444  1.00  0.00    -0.261 N 
HETATM    5  C   UNL     1      41.480 -16.710   5.289  1.00  0.00     0.264 C 
HETATM    6  O   UNL     1      40.828 -16.950   6.302  1.00  0.00    -0.267 OA
HETATM    7  C   UNL     1      42.548 -17.642   4.896  1.00  0.00     0.059 A 
HETATM    8  C   UNL     1      43.095 -17.546   3.618  1.00  0.00     0.055 A 
HETATM    9  C   UNL     1      42.942 -18.657   5.781  1.00  0.00     0.019 A 
HETATM   10  C   UNL     1      43.899 -19.587   5.389  1.00  0.00     0.001 A 
HETATM   11  C   UNL     1      44.451 -19.509   4.115  1.00  0.00     0.002 A 
HETATM   12  C   UNL     1      44.050 -18.498   3.233  1.00  0.00     0.031 A 
ENDROOT
BRANCH   4  13
HETATM   13  C   UNL     1      40.128 -14.760   4.775  1.00  0.00     0.175 C 
BRANCH  13  14
HETATM   14  C   UNL     1      40.485 -13.559   5.623  1.00  0.00    -0.040 A 
HETATM   15  C   UNL     1      41.815 -13.140   5.766  1.00  0.00     0.010 A 
HETATM   16  C   UNL     1      42.119 -11.963   6.466  1.00  0.00     0.017 A 
HETATM   17  C   UNL     1      41.096 -11.200   7.046  1.00  0.00     0.032 A 
HETATM   18  C   UNL     1      39.771 -11.632   6.923  1.00  0.00     0.017 A 
HETATM   19  C   UNL     1      39.470 -12.801   6.225  1.00  0.00     0.010 A 
BRANCH  17  20
HETATM   20  C   UNL     1      41.339  -9.900   7.736  1.00  0.00     0.251 C 
HETATM   21  N   UNL     1      40.764  -9.728   8.975  1.00  0.00    -0.353 N 
HETATM   22  H   UNL     1      40.098 -10.397   9.329  1.00  0.00     0.163 HD
HETATM   23  O   UNL     1      42.014  -9.036   7.186  1.00  0.00    -0.268 OA
BRANCH  21  24
HETATM   24  C   UNL     1      40.942  -8.505   9.728  1.00  0.00     0.161 C 
BRANCH  24  25
HETATM   25  C   UNL     1      41.536  -8.778  11.086  1.00  0.00    -0.038 A 
HETATM   26  C   UNL     1      40.875  -8.352  12.249  1.00  0.00     0.048 A 
HETATM   27  C   UNL     1      41.447  -8.649  13.469  1.00  0.00     0.105 A 
HETATM   28  C   UNL     1      42.632  -9.339  13.566  1.00  0.00     0.105 A 
HETATM   29  O   UNL     1      40.938  -8.315  14.685  1.00  0.00    -0.323 OA
HETATM   30  O   UNL     1      43.018  -9.527  14.857  1.00  0.00    -0.323 OA
HETATM   31  C   UNL     1      43.310  -9.776  12.450  1.00  0.00     0.040 A 
HETATM   32  C   UNL     1      41.930  -8.891  15.560  1.00  0.00     0.352 A 
HETATM   33  C   UNL     1      42.751  -9.495  11.200  1.00  0.00     0.012 A 
ENDBRANCH  24  25
ENDBRANCH  21  24
ENDBRANCH  17  20
ENDBRANCH  13  14
ENDBRANCH   4  13
BRANCH   1  34
HETATM   34  C   UNL     1      42.967 -16.563   1.323  1.00  0.00     0.237 C 
BRANCH  34  35
HETATM   35  C   UNL     1      41.776 -16.592   0.365  1.00  0.00     0.240 C 
HETATM   36  N   UNL     1      41.718 -15.523  -0.507  1.00  0.00    -0.326 N 
HETATM   37  H   UNL     1      42.465 -14.842  -0.435  1.00  0.00     0.169 HD
HETATM   38  O   UNL     1      40.923 -17.466   0.499  1.00  0.00    -0.271 OA
BRANCH  36  39
HETATM   39  C   UNL     1      40.702 -15.250  -1.450  1.00  0.00     0.034 A 
HETATM   40  C   UNL     1      40.639 -15.828  -2.719  1.00  0.00     0.030 A 
HETATM   41  C   UNL     1      39.591 -15.521  -3.595  1.00  0.00     0.009 A 
HETATM   42  C   UNL     1      38.584 -14.631  -3.216  1.00  0.00    -0.062 A 
HETATM   43  C   UNL     1      37.472 -14.287  -4.160  1.00  0.00     0.048 C 
HETATM   44  C   UNL     1      38.655 -14.035  -1.953  1.00  0.00     0.009 A 
HETATM   45  C   UNL     1      39.702 -14.346  -1.077  1.00  0.00     0.030 A 
ENDBRANCH  36  39
ENDBRANCH  34  35
ENDBRANCH   1  34
TORSDOF 8
ENDMDL
MODEL 3
REMARK VINA RESULT:      -9.4      4.939      8.916
REMARK  8 active torsions:
REMARK  status: ('A' for Active; 'I' for Inactive)
REMARK    1  A    between atoms: C_5  and  N_6 
REMARK       I    between atoms: N_6  and  C_7 
REMARK    2  A    between atoms: C_7  and  C_8 
REMARK    3  A    between atoms: C_8  and  N_9 
REMARK    4  A    between atoms: N_12  and  C_13 
REMARK    5  A    between atoms: C_13  and  C_14 
REMARK    6  A    between atoms: C_17  and  C_18 
REMARK       I    between atoms: C_18  and  N_19 
REMARK    7  A    between atoms: N_19  and  C_20 
REMARK    8  A    between atoms: C_20  and  C_21 
ROOT
HETATM    1  N   UNL     1      41.953 -17.375   5.609  1.00  0.00    -0.290 N 
HETATM    2  C   UNL     1      40.971 -16.422   5.365  1.00  0.00     0.332 C 
HETATM    3  O   UNL     1      40.211 -16.061   6.265  1.00  0.00    -0.246 OA
HETATM    4  N   UNL     1      40.913 -15.891   4.085  1.00  0.00    -0.261 N 
HETATM    5  C   UNL     1      41.722 -16.297   3.032  1.00  0.00     0.264 C 
HETATM    6  O   UNL     1      41.801 -15.713   1.953  1.00  0.00    -0.267 OA
HETATM    7  C   UNL     1      42.570 -17.476   3.264  1.00  0.00     0.059 A 
HETATM    8  C   UNL     1      42.705 -17.968   4.560  1.00  0.00     0.055 A 
HETATM    9  C   UNL     1      43.287 -18.035   2.195  1.00  0.00     0.019 A 
HETATM   10  C   UNL     1      44.149 -19.104   2.420  1.00  0.00     0.001 A 
HETATM   11  C   UNL     1      44.300 -19.604   3.709  1.00  0.00     0.002 A 
HETATM   12  C   UNL     1      43.586 -19.039   4.773  1.00  0.00     0.031 A 
ENDROOT
BRANCH   4  13
HETATM   13  C   UNL     1      40.143 -14.667   3.896  1.00  0.00     0.175 C 
BRANCH  13  14
HETATM   14  C   UNL     1      40.497 -13.540   4.842  1.00  0.00    -0.040 A 
HETATM   15  C   UNL     1      41.798 -13.023   4.901  1.00  0.00     0.010 A 
HETATM   16  C   UNL     1      42.085 -11.909   5.703  1.00  0.00     0.017 A 
HETATM   17  C   UNL     1      41.075 -11.309   6.468  1.00  0.00     0.032 A 
HETATM   18  C   UNL     1      39.782 -11.841   6.426  1.00  0.00     0.017 A 
HETATM   19  C   UNL     1      39.498 -12.947   5.627  1.00  0.00     0.010 A 
BRANCH  17  20
HETATM   20  C   UNL     1      41.291 -10.076   7.281  1.00  0.00     0.251 C 
HETATM   21  N   UNL     1      40.651 -10.006   8.498  1.00  0.00    -0.353 N 
HETATM   22  H   UNL     1      39.961 -10.694   8.756  1.00  0.00     0.163 HD
HETATM   23  O   UNL     1      42.002  -9.177   6.846  1.00  0.00    -0.268 OA
BRANCH  21  24
HETATM   24  C   UNL     1      40.797  -8.855   9.363  1.00  0.00     0.161 C 
BRANCH  24  25
HETATM   25  C   UNL     1      41.390  -9.241  10.695  1.00  0.00    -0.038 A 
HETATM   26  C   UNL     1      40.722  -8.926  11.888  1.00  0.00     0.048 A 
HETATM   27  C   UNL     1      41.293  -9.324  13.079  1.00  0.00     0.105 A 
HETATM   28  C   UNL     1      42.485 -10.008  13.119  1.00  0.00     0.105 A 
HETATM   29  O   UNL     1      40.777  -9.105  14.317  1.00  0.00    -0.323 OA
HETATM   30  O   UNL     1      42.869 -10.305  14.390  1.00  0.00    -0.323 OA
HETATM   31  C   UNL     1      43.171 -10.338  11.971  1.00  0.00     0.040 A 
HETATM   32  C   UNL     1      41.773  -9.746  15.142  1.00  0.00     0.352 A 
HETATM   33  C   UNL     1      42.612  -9.953  10.749  1.00  0.00     0.012 A 
ENDBRANCH  24  25
ENDBRANCH  21  24
ENDBRANCH  17  20
ENDBRANCH  13  14
ENDBRANCH   4  13
BRANCH   1  34
HETATM   34  C   UNL     1      42.315 -17.640   7.008  1.00  0.00     0.237 C 
BRANCH  34  35
HETATM   35  C   UNL     1      43.314 -16.685   7.661  1.00  0.00     0.240 C 
HETATM   36  N   UNL     1      43.471 -15.482   7.003  1.00  0.00    -0.326 N 
HETATM   37  H   UNL     1      42.908 -15.348   6.171  1.00  0.00     0.169 HD
HETATM   38  O   UNL     1      43.969 -17.075   8.626  1.00  0.00    -0.271 OA
BRANCH  36  39
HETATM   39  C   UNL     1      44.368 -14.443   7.334  1.00  0.00     0.034 A 
HETATM   40  C   UNL     1      45.509 -14.130   6.593  1.00  0.00     0.030 A 
HETATM   41  C   UNL     1      46.345 -13.075   6.974  1.00  0.00     0.009 A 
HETATM   42  C   UNL     1      46.052 -12.308   8.104  1.00  0.00    -0.062 A 
HETATM   43  C   UNL     1      46.957 -11.189   8.524  1.00  0.00     0.048 C 
HETATM   44  C   UNL     1      44.921 -12.630   8.860  1.00  0.00     0.009 A 
HETATM   45  C   UNL     1      44.084 -13.685   8.475  1.00  0.00     0.030 A 
ENDBRANCH  36  39
ENDBRANCH  34  35
ENDBRANCH   1  34
TORSDOF 8
ENDMDL
MODEL 4
REMARK VINA RESULT:      -9.2      3.875      7.701
REMARK  8 active torsions:
REMARK  status: ('A' for Active; 'I' for Inactive)
REMARK    1  A    between atoms: C_5  and  N_6 
REMARK       I    between atoms: N_6  and  C_7 
REMARK    2  A    between atoms: C_7  and  C_8 
REMARK    3  A    between atoms: C_8  and  N_9 
REMARK    4  A    between atoms: N_12  and  C_13 
REMARK    5  A    between atoms: C_13  and  C_14 
REMARK    6  A    between atoms: C_17  and  C_18 
REMARK       I    between atoms: C_18  and  N_19 
REMARK    7  A    between atoms: N_19  and  C_20 
REMARK    8  A    between atoms: C_20  and  C_21 
ROOT
HETATM    1  N   UNL     1      42.668 -10.737   9.143  1.00  0.00    -0.290 N 
HETATM    2  C   UNL     1      41.895 -10.304   8.073  1.00  0.00     0.332 C 
HETATM    3  O   UNL     1      42.428  -9.940   7.023  1.00  0.00    -0.246 OA
HETATM    4  N   UNL     1      40.519 -10.330   8.238  1.00  0.00    -0.261 N 
HETATM    5  C   UNL     1      39.879 -10.693   9.416  1.00  0.00     0.264 C 
HETATM    6  O   UNL     1      38.670 -10.891   9.515  1.00  0.00    -0.267 OA
HETATM    7  C   UNL     1      40.731 -10.901  10.596  1.00  0.00     0.059 A 
HETATM    8  C   UNL     1      42.113 -10.963  10.431  1.00  0.00     0.055 A 
HETATM    9  C   UNL     1      40.138 -11.111  11.851  1.00  0.00     0.019 A 
HETATM   10  C   UNL     1      40.934 -11.381  12.959  1.00  0.00     0.001 A 
HETATM   11  C   UNL     1      42.315 -11.453  12.811  1.00  0.00     0.002 A 
HETATM   12  C   UNL     1      42.902 -11.249  11.556  1.00  0.00     0.031 A 
ENDROOT
BRANCH   4  13
HETATM   13  C   UNL     1      39.692 -10.218   7.042  1.00  0.00     0.175 C 
BRANCH  13  14
HETATM   14  C   UNL     1      39.881 -11.328   6.032  1.00  0.00    -0.040 A 
HETATM   15  C   UNL     1      39.667 -12.669   6.379  1.00  0.00     0.010 A 
HETATM   16  C   UNL     1      39.741 -13.677   5.405  1.00  0.00     0.017 A 
HETATM   17  C   UNL     1      40.045 -13.354   4.075  1.00  0.00     0.032 A 
HETATM   18  C   UNL     1      40.282 -12.018   3.735  1.00  0.00     0.017 A 
HETATM   19  C   UNL     1      40.206 -11.017   4.704  1.00  0.00     0.010 A 
BRANCH  17  20
HETATM   20  C   UNL     1      40.062 -14.362   2.975  1.00  0.00     0.251 C 
HETATM   21  N   UNL     1      41.106 -14.297   2.079  1.00  0.00    -0.353 N 
HETATM   22  H   UNL     1      41.744 -13.517   2.090  1.00  0.00     0.163 HD
HETATM   23  O   UNL     1      39.161 -15.189   2.893  1.00  0.00    -0.268 OA
BRANCH  21  24
HETATM   24  C   UNL     1      41.216 -15.230   0.979  1.00  0.00     0.161 C 
BRANCH  24  25
HETATM   25  C   UNL     1      42.161 -16.358   1.308  1.00  0.00    -0.038 A 
HETATM   26  C   UNL     1      41.682 -17.671   1.437  1.00  0.00     0.048 A 
HETATM   27  C   UNL     1      42.590 -18.671   1.714  1.00  0.00     0.105 A 
HETATM   28  C   UNL     1      43.931 -18.412   1.867  1.00  0.00     0.105 A 
HETATM   29  O   UNL     1      42.295 -19.990   1.864  1.00  0.00    -0.323 OA
HETATM   30  O   UNL     1      44.650 -19.536   2.134  1.00  0.00    -0.323 OA
HETATM   31  C   UNL     1      44.442 -17.139   1.747  1.00  0.00     0.040 A 
HETATM   32  C   UNL     1      43.608 -20.534   2.112  1.00  0.00     0.352 A 
HETATM   33  C   UNL     1      43.545 -16.105   1.460  1.00  0.00     0.012 A 
ENDBRANCH  24  25
ENDBRANCH  21  24
ENDBRANCH  17  20
ENDBRANCH  13  14
ENDBRANCH   4  13
BRANCH   1  34
HETATM   34  C   UNL     1      44.060 -11.119   8.871  1.00  0.00     0.237 C 
BRANCH  34  35
HETATM   35  C   UNL     1      44.316 -12.566   8.449  1.00  0.00     0.240 C 
HETATM   36  N   UNL     1      43.607 -12.971   7.336  1.00  0.00    -0.326 N 
HETATM   37  H   UNL     1      43.006 -12.276   6.908  1.00  0.00     0.169 HD
HETATM   38  O   UNL     1      45.020 -13.280   9.161  1.00  0.00    -0.271 OA
BRANCH  36  39
HETATM   39  C   UNL     1      43.590 -14.261   6.763  1.00  0.00     0.034 A 
HETATM   40  C   UNL     1      43.231 -14.524   5.440  1.00  0.00     0.030 A 
HETATM   41  C   UNL     1      43.253 -15.830   4.936  1.00  0.00     0.009 A 
HETATM   42  C   UNL     1      43.639 -16.898   5.748  1.00  0.00    -0.062 A 
HETATM   43  C   UNL     1      43.644 -18.300   5.215  1.00  0.00     0.048 C 
HETATM   44  C   UNL     1      43.980 -16.642   7.079  1.00  0.00     0.009 A 
HETATM   45  C   UNL     1      43.961 -15.335   7.580  1.00  0.00     0.030 A 
ENDBRANCH  36  39
ENDBRANCH  34  35
ENDBRANCH   1  34
TORSDOF 8
ENDMDL
MODEL 5
REMARK VINA RESULT:      -8.9      3.216      5.463
REMARK  8 active torsions:
REMARK  status: ('A' for Active; 'I' for Inactive)
REMARK    1  A    between atoms: C_5  and  N_6 
REMARK       I    between atoms: N_6  and  C_7 
REMARK    2  A    between atoms: C_7  and  C_8 
REMARK    3  A    between atoms: C_8  and  N_9 
REMARK    4  A    between atoms: N_12  and  C_13 
REMARK    5  A    between atoms: C_13  and  C_14 
REMARK    6  A    between atoms: C_17  and  C_18 
REMARK       I    between atoms: C_18  and  N_19 
REMARK    7  A    between atoms: N_19  and  C_20 
REMARK    8  A    between atoms: C_20  and  C_21 
ROOT
HETATM    1  N   UNL     1      39.427 -13.474  -1.991  1.00  0.00    -0.290 N 
HETATM    2  C   UNL     1      38.686 -13.402  -0.817  1.00  0.00     0.332 C 
HETATM    3  O   UNL     1      37.603 -13.982  -0.724  1.00  0.00    -0.246 OA
HETATM    4  N   UNL     1      39.235 -12.679   0.231  1.00  0.00    -0.261 N 
HETATM    5  C   UNL     1      40.431 -11.977   0.156  1.00  0.00     0.264 C 
HETATM    6  O   UNL     1      41.010 -11.488   1.124  1.00  0.00    -0.267 OA
HETATM    7  C   UNL     1      41.055 -11.871  -1.171  1.00  0.00     0.059 A 
HETATM    8  C   UNL     1      40.568 -12.657  -2.213  1.00  0.00     0.055 A 
HETATM    9  C   UNL     1      42.175 -11.044  -1.346  1.00  0.00     0.019 A 
HETATM   10  C   UNL     1      42.816 -10.994  -2.580  1.00  0.00     0.001 A 
HETATM   11  C   UNL     1      42.346 -11.777  -3.629  1.00  0.00     0.002 A 
HETATM   12  C   UNL     1      41.232 -12.605  -3.448  1.00  0.00     0.031 A 
ENDROOT
BRANCH   4  13
HETATM   13  C   UNL     1      38.661 -12.872   1.558  1.00  0.00     0.175 C 
BRANCH  13  14
HETATM   14  C   UNL     1      39.368 -13.900   2.414  1.00  0.00    -0.040 A 
HETATM   15  C   UNL     1      39.719 -15.156   1.899  1.00  0.00     0.010 A 
HETATM   16  C   UNL     1      40.468 -16.057   2.670  1.00  0.00     0.017 A 
HETATM   17  C   UNL     1      40.861 -15.717   3.972  1.00  0.00     0.032 A 
HETATM   18  C   UNL     1      40.489 -14.473   4.494  1.00  0.00     0.017 A 
HETATM   19  C   UNL     1      39.746 -13.577   3.725  1.00  0.00     0.010 A 
BRANCH  17  20
HETATM   20  C   UNL     1      41.723 -16.592   4.819  1.00  0.00     0.251 C 
HETATM   21  N   UNL     1      43.054 -16.681   4.480  1.00  0.00    -0.353 N 
HETATM   22  H   UNL     1      43.392 -16.284   3.617  1.00  0.00     0.163 HD
HETATM   23  O   UNL     1      41.230 -17.204   5.760  1.00  0.00    -0.268 OA
BRANCH  21  24
HETATM   24  C   UNL     1      43.975 -17.500   5.239  1.00  0.00     0.161 C 
BRANCH  24  25
HETATM   25  C   UNL     1      44.152 -18.858   4.606  1.00  0.00    -0.038 A 
HETATM   26  C   UNL     1      43.767 -19.075   3.274  1.00  0.00     0.048 A 
HETATM   27  C   UNL     1      43.973 -20.327   2.733  1.00  0.00     0.105 A 
HETATM   28  C   UNL     1      44.536 -21.349   3.461  1.00  0.00     0.105 A 
HETATM   29  O   UNL     1      43.663 -20.703   1.464  1.00  0.00    -0.323 OA
HETATM   30  O   UNL     1      44.651 -22.497   2.740  1.00  0.00    -0.323 OA
HETATM   31  C   UNL     1      44.929 -21.176   4.770  1.00  0.00     0.040 A 
HETATM   32  C   UNL     1      44.113 -22.074   1.470  1.00  0.00     0.352 A 
HETATM   33  C   UNL     1      44.738 -19.915   5.342  1.00  0.00     0.012 A 
ENDBRANCH  24  25
ENDBRANCH  21  24
ENDBRANCH  17  20
ENDBRANCH  13  14
ENDBRANCH   4  13
BRANCH   1  34
HETATM   34  C   UNL     1      39.099 -14.544  -2.942  1.00  0.00     0.237 C 
BRANCH  34  35
HETATM   35  C   UNL     1      37.766 -14.432  -3.683  1.00  0.00     0.240 C 
HETATM   36  N   UNL     1      37.390 -13.140  -3.992  1.00  0.00    -0.326 N 
HETATM   37  H   UNL     1      38.029 -12.406  -3.712  1.00  0.00     0.169 HD
HETATM   38  O   UNL     1      37.090 -15.445  -3.852  1.00  0.00    -0.271 OA
BRANCH  36  39
HETATM   39  C   UNL     1      36.187 -12.731  -4.608  1.00  0.00     0.034 A 
HETATM   40  C   UNL     1      35.811 -13.088  -5.904  1.00  0.00     0.030 A 
HETATM   41  C   UNL     1      34.594 -12.655  -6.443  1.00  0.00     0.009 A 
HETATM   42  C   UNL     1      33.727 -11.860  -5.692  1.00  0.00    -0.062 A 
HETATM   43  C   UNL     1      32.431 -11.380  -6.275  1.00  0.00     0.048 C 
HETATM   44  C   UNL     1      34.108 -11.483  -4.400  1.00  0.00     0.009 A 
HETATM   45  C   UNL     1      35.325 -11.919  -3.862  1.00  0.00     0.030 A 
ENDBRANCH  36  39
ENDBRANCH  34  35
ENDBRANCH   1  34
TORSDOF 8
ENDMDL
MODEL 6
REMARK VINA RESULT:      -8.8      3.969      9.007
REMARK  8 active torsions:
REMARK  status: ('A' for Active; 'I' for Inactive)
REMARK    1  A    between atoms: C_5  and  N_6 
REMARK       I    between atoms: N_6  and  C_7 
REMARK    2  A    between atoms: C_7  and  C_8 
REMARK    3  A    between atoms: C_8  and  N_9 
REMARK    4  A    between atoms: N_12  and  C_13 
REMARK    5  A    between atoms: C_13  and  C_14 
REMARK    6  A    between atoms: C_17  and  C_18 
REMARK       I    between atoms: C_18  and  N_19 
REMARK    7  A    between atoms: N_19  and  C_20 
REMARK    8  A    between atoms: C_20  and  C_21 
ROOT
HETATM    1  N   UNL     1      42.565 -10.619   9.300  1.00  0.00    -0.290 N 
HETATM    2  C   UNL     1      41.796 -10.124   8.253  1.00  0.00     0.332 C 
HETATM    3  O   UNL     1      42.330  -9.735   7.213  1.00  0.00    -0.246 OA
HETATM    4  N   UNL     1      40.420 -10.117   8.431  1.00  0.00    -0.261 N 
HETATM    5  C   UNL     1      39.780 -10.508   9.600  1.00  0.00     0.264 C 
HETATM    6  O   UNL     1      38.567 -10.675   9.703  1.00  0.00    -0.267 OA
HETATM    7  C   UNL     1      40.636 -10.784  10.764  1.00  0.00     0.059 A 
HETATM    8  C   UNL     1      42.015 -10.879  10.583  1.00  0.00     0.055 A 
HETATM    9  C   UNL     1      40.048 -11.025  12.015  1.00  0.00     0.019 A 
HETATM   10  C   UNL     1      40.845 -11.360  13.104  1.00  0.00     0.001 A 
HETATM   11  C   UNL     1      42.223 -11.464  12.940  1.00  0.00     0.002 A 
HETATM   12  C   UNL     1      42.804 -11.229  11.689  1.00  0.00     0.031 A 
ENDROOT
BRANCH   4  13
HETATM   13  C   UNL     1      39.588  -9.936   7.248  1.00  0.00     0.175 C 
BRANCH  13  14
HETATM   14  C   UNL     1      39.686 -11.046   6.224  1.00  0.00    -0.040 A 
HETATM   15  C   UNL     1      39.918 -10.767   4.870  1.00  0.00     0.010 A 
HETATM   16  C   UNL     1      40.114 -11.809   3.952  1.00  0.00     0.017 A 
HETATM   17  C   UNL     1      40.065 -13.144   4.376  1.00  0.00     0.032 A 
HETATM   18  C   UNL     1      39.810 -13.422   5.724  1.00  0.00     0.017 A 
HETATM   19  C   UNL     1      39.617 -12.385   6.636  1.00  0.00     0.010 A 
BRANCH  17  20
HETATM   20  C   UNL     1      40.342 -14.299   3.472  1.00  0.00     0.251 C 
HETATM   21  N   UNL     1      41.001 -14.031   2.294  1.00  0.00    -0.353 N 
HETATM   22  H   UNL     1      41.159 -13.080   1.999  1.00  0.00     0.163 HD
HETATM   23  O   UNL     1      39.970 -15.423   3.791  1.00  0.00    -0.268 OA
BRANCH  21  24
HETATM   24  C   UNL     1      41.319 -15.081   1.350  1.00  0.00     0.161 C 
BRANCH  24  25
HETATM   25  C   UNL     1      40.640 -14.851   0.024  1.00  0.00    -0.038 A 
HETATM   26  C   UNL     1      39.508 -14.024  -0.061  1.00  0.00     0.048 A 
HETATM   27  C   UNL     1      38.939 -13.826  -1.301  1.00  0.00     0.105 A 
HETATM   28  C   UNL     1      39.447 -14.413  -2.436  1.00  0.00     0.105 A 
HETATM   29  O   UNL     1      37.849 -13.055  -1.558  1.00  0.00    -0.323 OA
HETATM   30  O   UNL     1      38.739 -14.085  -3.550  1.00  0.00    -0.323 OA
HETATM   31  C   UNL     1      40.556 -15.229  -2.396  1.00  0.00     0.040 A 
HETATM   32  C   UNL     1      37.739 -13.210  -2.989  1.00  0.00     0.352 A 
HETATM   33  C   UNL     1      41.158 -15.443  -1.153  1.00  0.00     0.012 A 
ENDBRANCH  24  25
ENDBRANCH  21  24
ENDBRANCH  17  20
ENDBRANCH  13  14
ENDBRANCH   4  13
BRANCH   1  34
HETATM   34  C   UNL     1      43.943 -11.029   9.000  1.00  0.00     0.237 C 
BRANCH  34  35
HETATM   35  C   UNL     1      44.166 -12.490   8.610  1.00  0.00     0.240 C 
HETATM   36  N   UNL     1      43.763 -12.808   7.329  1.00  0.00    -0.326 N 
HETATM   37  H   UNL     1      43.375 -12.051   6.778  1.00  0.00     0.169 HD
HETATM   38  O   UNL     1      44.570 -13.280   9.461  1.00  0.00    -0.271 OA
BRANCH  36  39
HETATM   39  C   UNL     1      43.783 -14.084   6.724  1.00  0.00     0.034 A 
HETATM   40  C   UNL     1      44.143 -15.258   7.388  1.00  0.00     0.030 A 
HETATM   41  C   UNL     1      44.124 -16.491   6.727  1.00  0.00     0.009 A 
HETATM   42  C   UNL     1      43.740 -16.574   5.387  1.00  0.00    -0.062 A 
HETATM   43  C   UNL     1      43.737 -17.892   4.672  1.00  0.00     0.048 C 
HETATM   44  C   UNL     1      43.397 -15.398   4.712  1.00  0.00     0.009 A 
HETATM   45  C   UNL     1      43.413 -14.166   5.377  1.00  0.00     0.030 A 
ENDBRANCH  36  39
ENDBRANCH  34  35
ENDBRANCH   1  34
TORSDOF 8
ENDMDL
MODEL 7
REMARK VINA RESULT:      -8.7      4.608      6.345
REMARK  8 active torsions:
REMARK  status: ('A' for Active; 'I' for Inactive)
REMARK    1  A    between atoms: C_5  and  N_6 
REMARK       I    between atoms: N_6  and  C_7 
REMARK    2  A    between atoms: C_7  and  C_8 
REMARK    3  A    between atoms: C_8  and  N_9 
REMARK    4  A    between atoms: N_12  and  C_13 
REMARK    5  A    between atoms: C_13  and  C_14 
REMARK    6  A    between atoms: C_17  and  C_18 
REMARK       I    between atoms: C_18  and  N_19 
REMARK    7  A    between atoms: N_19  and  C_20 
REMARK    8  A    between atoms: C_20  and  C_21 
ROOT
HETATM    1  N   UNL     1      40.736 -14.257   0.523  1.00  0.00    -0.290 N 
HETATM    2  C   UNL     1      39.948 -13.923   1.617  1.00  0.00     0.332 C 
HETATM    3  O   UNL     1      39.256 -14.778   2.174  1.00  0.00    -0.246 OA
HETATM    4  N   UNL     1      40.001 -12.609   2.056  1.00  0.00    -0.261 N 
HETATM    5  C   UNL     1      40.735 -11.606   1.434  1.00  0.00     0.264 C 
HETATM    6  O   UNL     1      40.931 -10.492   1.915  1.00  0.00    -0.267 OA
HETATM    7  C   UNL     1      41.351 -11.940   0.142  1.00  0.00     0.059 A 
HETATM    8  C   UNL     1      41.380 -13.271  -0.272  1.00  0.00     0.055 A 
HETATM    9  C   UNL     1      41.967 -10.930  -0.614  1.00  0.00     0.019 A 
HETATM   10  C   UNL     1      42.617 -11.250  -1.802  1.00  0.00     0.001 A 
HETATM   11  C   UNL     1      42.660 -12.574  -2.226  1.00  0.00     0.002 A 
HETATM   12  C   UNL     1      42.049 -13.579  -1.466  1.00  0.00     0.031 A 
ENDROOT
BRANCH   4  13
HETATM   13  C   UNL     1      39.470 -12.317   3.381  1.00  0.00     0.175 C 
BRANCH  13  14
HETATM   14  C   UNL     1      40.511 -12.206   4.474  1.00  0.00    -0.040 A 
HETATM   15  C   UNL     1      40.485 -11.151   5.397  1.00  0.00     0.010 A 
HETATM   16  C   UNL     1      41.391 -11.120   6.467  1.00  0.00     0.017 A 
HETATM   17  C   UNL     1      42.343 -12.138   6.618  1.00  0.00     0.032 A 
HETATM   18  C   UNL     1      42.384 -13.177   5.683  1.00  0.00     0.017 A 
HETATM   19  C   UNL     1      41.481 -13.208   4.620  1.00  0.00     0.010 A 
BRANCH  17  20
HETATM   20  C   UNL     1      43.284 -12.211   7.774  1.00  0.00     0.251 C 
HETATM   21  N   UNL     1      43.026 -11.390   8.848  1.00  0.00    -0.353 N 
HETATM   22  H   UNL     1      42.316 -10.676   8.790  1.00  0.00     0.163 HD
HETATM   23  O   UNL     1      44.246 -12.970   7.728  1.00  0.00    -0.268 OA
BRANCH  21  24
HETATM   24  C   UNL     1      43.876 -11.387  10.020  1.00  0.00     0.161 C 
BRANCH  24  25
HETATM   25  C   UNL     1      43.114 -10.959  11.249  1.00  0.00    -0.038 A 
HETATM   26  C   UNL     1      43.754 -10.225  12.260  1.00  0.00     0.048 A 
HETATM   27  C   UNL     1      43.007  -9.835  13.353  1.00  0.00     0.105 A 
HETATM   28  C   UNL     1      41.674 -10.149  13.470  1.00  0.00     0.105 A 
HETATM   29  O   UNL     1      43.468  -9.118  14.412  1.00  0.00    -0.323 OA
HETATM   30  O   UNL     1      41.128  -9.669  14.620  1.00  0.00    -0.323 OA
HETATM   31  C   UNL     1      41.010 -10.866  12.500  1.00  0.00     0.040 A 
HETATM   32  C   UNL     1      42.266  -9.002  15.202  1.00  0.00     0.352 A 
HETATM   33  C   UNL     1      41.739 -11.269  11.378  1.00  0.00     0.012 A 
ENDBRANCH  24  25
ENDBRANCH  21  24
ENDBRANCH  17  20
ENDBRANCH  13  14
ENDBRANCH   4  13
BRANCH   1  34
HETATM   34  C   UNL     1      41.029 -15.679   0.299  1.00  0.00     0.237 C 
BRANCH  34  35
HETATM   35  C   UNL     1      42.136 -16.304   1.146  1.00  0.00     0.240 C 
HETATM   36  N   UNL     1      41.882 -17.598   1.557  1.00  0.00    -0.326 N 
HETATM   37  H   UNL     1      41.004 -18.002   1.251  1.00  0.00     0.169 HD
HETATM   38  O   UNL     1      43.092 -15.610   1.487  1.00  0.00    -0.271 OA
BRANCH  36  39
HETATM   39  C   UNL     1      42.686 -18.395   2.400  1.00  0.00     0.034 A 
HETATM   40  C   UNL     1      42.843 -18.173   3.769  1.00  0.00     0.030 A 
HETATM   41  C   UNL     1      43.646 -19.016   4.546  1.00  0.00     0.009 A 
HETATM   42  C   UNL     1      44.305 -20.102   3.966  1.00  0.00    -0.062 A 
HETATM   43  C   UNL     1      45.182 -20.995   4.793  1.00  0.00     0.048 C 
HETATM   44  C   UNL     1      44.167 -20.317   2.591  1.00  0.00     0.009 A 
HETATM   45  C   UNL     1      43.361 -19.473   1.817  1.00  0.00     0.030 A 
ENDBRANCH  36  39
ENDBRANCH  34  35
ENDBRANCH   1  34
TORSDOF 8
ENDMDL
MODEL 8
REMARK VINA RESULT:      -8.7      4.552      7.926
REMARK  8 active torsions:
REMARK  status: ('A' for Active; 'I' for Inactive)
REMARK    1  A    between atoms: C_5  and  N_6 
REMARK       I    between atoms: N_6  and  C_7 
REMARK    2  A    between atoms: C_7  and  C_8 
REMARK    3  A    between atoms: C_8  and  N_9 
REMARK    4  A    between atoms: N_12  and  C_13 
REMARK    5  A    between atoms: C_13  and  C_14 
REMARK    6  A    between atoms: C_17  and  C_18 
REMARK       I    between atoms: C_18  and  N_19 
REMARK    7  A    between atoms: N_19  and  C_20 
REMARK    8  A    between atoms: C_20  and  C_21 
ROOT
HETATM    1  N   UNL     1      41.406 -15.955   1.137  1.00  0.00    -0.290 N 
HETATM    2  C   UNL     1      40.666 -14.987   1.806  1.00  0.00     0.332 C 
HETATM    3  O   UNL     1      40.030 -14.140   1.177  1.00  0.00    -0.246 OA
HETATM    4  N   UNL     1      40.661 -15.043   3.192  1.00  0.00    -0.261 N 
HETATM    5  C   UNL     1      41.394 -15.954   3.940  1.00  0.00     0.264 C 
HETATM    6  O   UNL     1      41.258 -16.127   5.150  1.00  0.00    -0.267 OA
HETATM    7  C   UNL     1      42.354 -16.794   3.208  1.00  0.00     0.059 A 
HETATM    8  C   UNL     1      42.313 -16.813   1.815  1.00  0.00     0.055 A 
HETATM    9  C   UNL     1      43.239 -17.618   3.921  1.00  0.00     0.019 A 
HETATM   10  C   UNL     1      44.099 -18.470   3.236  1.00  0.00     0.001 A 
HETATM   11  C   UNL     1      44.067 -18.506   1.846  1.00  0.00     0.002 A 
HETATM   12  C   UNL     1      43.178 -17.686   1.139  1.00  0.00     0.031 A 
ENDROOT
BRANCH   4  13
HETATM   13  C   UNL     1      39.640 -14.276   3.895  1.00  0.00     0.175 C 
BRANCH  13  14
HETATM   14  C   UNL     1      40.167 -13.137   4.739  1.00  0.00    -0.040 A 
HETATM   15  C   UNL     1      41.052 -12.188   4.209  1.00  0.00     0.010 A 
HETATM   16  C   UNL     1      41.447 -11.079   4.971  1.00  0.00     0.017 A 
HETATM   17  C   UNL     1      40.973 -10.915   6.280  1.00  0.00     0.032 A 
HETATM   18  C   UNL     1      40.109 -11.875   6.817  1.00  0.00     0.017 A 
HETATM   19  C   UNL     1      39.715 -12.977   6.057  1.00  0.00     0.010 A 
BRANCH  17  20
HETATM   20  C   UNL     1      41.289  -9.722   7.118  1.00  0.00     0.251 C 
HETATM   21  N   UNL     1      40.779  -9.699   8.397  1.00  0.00    -0.353 N 
HETATM   22  H   UNL     1      40.109 -10.391   8.695  1.00  0.00     0.163 HD
HETATM   23  O   UNL     1      41.964  -8.812   6.651  1.00  0.00    -0.268 OA
BRANCH  21  24
HETATM   24  C   UNL     1      41.029  -8.589   9.291  1.00  0.00     0.161 C 
BRANCH  24  25
HETATM   25  C   UNL     1      41.526  -9.066  10.632  1.00  0.00    -0.038 A 
HETATM   26  C   UNL     1      40.792  -8.796  11.798  1.00  0.00     0.048 A 
HETATM   27  C   UNL     1      41.275  -9.276  12.997  1.00  0.00     0.105 A 
HETATM   28  C   UNL     1      42.442  -9.999  13.073  1.00  0.00     0.105 A 
HETATM   29  O   UNL     1      40.688  -9.109  14.212  1.00  0.00    -0.323 OA
HETATM   30  O   UNL     1      42.736 -10.378  14.345  1.00  0.00    -0.323 OA
HETATM   31  C   UNL     1      43.190 -10.287  11.953  1.00  0.00     0.040 A 
HETATM   32  C   UNL     1      41.611  -9.826  15.059  1.00  0.00     0.352 A 
HETATM   33  C   UNL     1      42.721  -9.819  10.722  1.00  0.00     0.012 A 
ENDBRANCH  24  25
ENDBRANCH  21  24
ENDBRANCH  17  20
ENDBRANCH  13  14
ENDBRANCH   4  13
BRANCH   1  34
HETATM   34  C   UNL     1      41.104 -16.187  -0.281  1.00  0.00     0.237 C 
BRANCH  34  35
HETATM   35  C   UNL     1      41.002 -14.957  -1.182  1.00  0.00     0.240 C 
HETATM   36  N   UNL     1      42.099 -14.121  -1.136  1.00  0.00    -0.326 N 
HETATM   37  H   UNL     1      42.857 -14.406  -0.527  1.00  0.00     0.169 HD
HETATM   38  O   UNL     1      39.950 -14.741  -1.781  1.00  0.00    -0.271 OA
BRANCH  36  39
HETATM   39  C   UNL     1      42.255 -12.886  -1.803  1.00  0.00     0.034 A 
HETATM   40  C   UNL     1      42.228 -12.738  -3.190  1.00  0.00     0.030 A 
HETATM   41  C   UNL     1      42.374 -11.478  -3.781  1.00  0.00     0.009 A 
HETATM   42  C   UNL     1      42.546 -10.338  -2.992  1.00  0.00    -0.062 A 
HETATM   43  C   UNL     1      42.722  -8.990  -3.624  1.00  0.00     0.048 C 
HETATM   44  C   UNL     1      42.594 -10.484  -1.602  1.00  0.00     0.009 A 
HETATM   45  C   UNL     1      42.445 -11.746  -1.013  1.00  0.00     0.030 A 
ENDBRANCH  36  39
ENDBRANCH  34  35
ENDBRANCH   1  34
TORSDOF 8
ENDMDL
MODEL 9
REMARK VINA RESULT:      -8.6      2.148      8.585
REMARK  8 active torsions:
REMARK  status: ('A' for Active; 'I' for Inactive)
REMARK    1  A    between atoms: C_5  and  N_6 
REMARK       I    between atoms: N_6  and  C_7 
REMARK    2  A    between atoms: C_7  and  C_8 
REMARK    3  A    between atoms: C_8  and  N_9 
REMARK    4  A    between atoms: N_12  and  C_13 
REMARK    5  A    between atoms: C_13  and  C_14 
REMARK    6  A    between atoms: C_17  and  C_18 
REMARK       I    between atoms: C_18  and  N_19 
REMARK    7  A    between atoms: N_19  and  C_20 
REMARK    8  A    between atoms: C_20  and  C_21 
ROOT
HETATM    1  N   UNL     1      43.415 -18.522   3.231  1.00  0.00    -0.290 N 
HETATM    2  C   UNL     1      43.547 -17.503   4.167  1.00  0.00     0.332 C 
HETATM    3  O   UNL     1      43.316 -16.334   3.855  1.00  0.00    -0.246 OA
HETATM    4  N   UNL     1      43.920 -17.871   5.451  1.00  0.00    -0.261 N 
HETATM    5  C   UNL     1      44.229 -19.170   5.834  1.00  0.00     0.264 C 
HETATM    6  O   UNL     1      44.382 -19.531   6.999  1.00  0.00    -0.267 OA
HETATM    7  C   UNL     1      44.321 -20.173   4.763  1.00  0.00     0.059 A 
HETATM    8  C   UNL     1      43.870 -19.844   3.486  1.00  0.00     0.055 A 
HETATM    9  C   UNL     1      44.786 -21.463   5.059  1.00  0.00     0.019 A 
HETATM   10  C   UNL     1      44.806 -22.440   4.068  1.00  0.00     0.001 A 
HETATM   11  C   UNL     1      44.354 -22.130   2.790  1.00  0.00     0.002 A 
HETATM   12  C   UNL     1      43.886 -20.842   2.500  1.00  0.00     0.031 A 
ENDROOT
BRANCH   4  13
HETATM   13  C   UNL     1      43.731 -16.893   6.515  1.00  0.00     0.175 C 
BRANCH  13  14
HETATM   14  C   UNL     1      42.671 -15.849   6.239  1.00  0.00    -0.040 A 
HETATM   15  C   UNL     1      43.013 -14.505   6.032  1.00  0.00     0.010 A 
HETATM   16  C   UNL     1      42.032 -13.569   5.671  1.00  0.00     0.017 A 
HETATM   17  C   UNL     1      40.695 -13.965   5.528  1.00  0.00     0.032 A 
HETATM   18  C   UNL     1      40.351 -15.302   5.759  1.00  0.00     0.017 A 
HETATM   19  C   UNL     1      41.328 -16.231   6.116  1.00  0.00     0.010 A 
BRANCH  17  20
HETATM   20  C   UNL     1      39.615 -13.042   5.072  1.00  0.00     0.251 C 
HETATM   21  N   UNL     1      39.611 -12.688   3.742  1.00  0.00    -0.353 N 
HETATM   22  H   UNL     1      40.385 -12.931   3.143  1.00  0.00     0.163 HD
HETATM   23  O   UNL     1      38.791 -12.625   5.878  1.00  0.00    -0.268 OA
BRANCH  21  24
HETATM   24  C   UNL     1      38.604 -11.801   3.198  1.00  0.00     0.161 C 
BRANCH  24  25
HETATM   25  C   UNL     1      38.316 -12.118   1.752  1.00  0.00    -0.038 A 
HETATM   26  C   UNL     1      38.233 -11.088   0.803  1.00  0.00     0.048 A 
HETATM   27  C   UNL     1      37.992 -11.432  -0.511  1.00  0.00     0.105 A 
HETATM   28  C   UNL     1      37.834 -12.741  -0.902  1.00  0.00     0.105 A 
HETATM   29  O   UNL     1      37.887 -10.563  -1.552  1.00  0.00    -0.323 OA
HETATM   30  O   UNL     1      37.608 -12.860  -2.238  1.00  0.00    -0.323 OA
HETATM   31  C   UNL     1      37.911 -13.780  -0.002  1.00  0.00     0.040 A 
HETATM   32  C   UNL     1      37.662 -11.477  -2.646  1.00  0.00     0.352 A 
HETATM   33  C   UNL     1      38.160 -13.462   1.337  1.00  0.00     0.012 A 
ENDBRANCH  24  25
ENDBRANCH  21  24
ENDBRANCH  17  20
ENDBRANCH  13  14
ENDBRANCH   4  13
BRANCH   1  34
HETATM   34  C   UNL     1      42.636 -18.240   2.018  1.00  0.00     0.237 C 
BRANCH  34  35
HETATM   35  C   UNL     1      42.901 -16.910   1.313  1.00  0.00     0.240 C 
HETATM   36  N   UNL     1      41.801 -16.079   1.226  1.00  0.00    -0.326 N 
HETATM   37  H   UNL     1      40.944 -16.424   1.641  1.00  0.00     0.169 HD
HETATM   38  O   UNL     1      43.999 -16.718   0.794  1.00  0.00    -0.271 OA
BRANCH  36  39
HETATM   39  C   UNL     1      41.731 -14.829   0.574  1.00  0.00     0.034 A 
HETATM   40  C   UNL     1      41.960 -13.605   1.206  1.00  0.00     0.030 A 
HETATM   41  C   UNL     1      41.887 -12.404   0.491  1.00  0.00     0.009 A 
HETATM   42  C   UNL     1      41.588 -12.406  -0.873  1.00  0.00    -0.062 A 
HETATM   43  C   UNL     1      41.492 -11.119  -1.637  1.00  0.00     0.048 C 
HETATM   44  C   UNL     1      41.339 -13.628  -1.506  1.00  0.00     0.009 A 
HETATM   45  C   UNL     1      41.415 -14.828  -0.789  1.00  0.00     0.030 A 
ENDBRANCH  36  39
ENDBRANCH  34  35
ENDBRANCH   1  34
TORSDOF 8
ENDMDL
MODEL 10
REMARK VINA RESULT:      -8.5      3.265      6.478
REMARK  8 active torsions:
REMARK  status: ('A' for Active; 'I' for Inactive)
REMARK    1  A    between atoms: C_5  and  N_6 
REMARK       I    between atoms: N_6  and  C_7 
REMARK    2  A    between atoms: C_7  and  C_8 
REMARK    3  A    between atoms: C_8  and  N_9 
REMARK    4  A    between atoms: N_12  and  C_13 
REMARK    5  A    between atoms: C_13  and  C_14 
REMARK    6  A    between atoms: C_17  and  C_18 
REMARK       I    between atoms: C_18  and  N_19 
REMARK    7  A    between atoms: N_19  and  C_20 
REMARK    8  A    between atoms: C_20  and  C_21 
ROOT
HETATM    1  N   UNL     1      36.849  -9.105   2.912  1.00  0.00    -0.290 N 
HETATM    2  C   UNL     1      37.208  -9.344   1.591  1.00  0.00     0.332 C 
HETATM    3  O   UNL     1      38.358  -9.125   1.206  1.00  0.00    -0.246 OA
HETATM    4  N   UNL     1      36.229  -9.856   0.754  1.00  0.00    -0.261 N 
HETATM    5  C   UNL     1      34.912 -10.080   1.136  1.00  0.00     0.264 C 
HETATM    6  O   UNL     1      34.090 -10.697   0.461  1.00  0.00    -0.267 OA
HETATM    7  C   UNL     1      34.512  -9.582   2.460  1.00  0.00     0.059 A 
HETATM    8  C   UNL     1      35.496  -9.144   3.344  1.00  0.00     0.055 A 
HETATM    9  C   UNL     1      33.162  -9.630   2.840  1.00  0.00     0.019 A 
HETATM   10  C   UNL     1      32.785  -9.231   4.118  1.00  0.00     0.001 A 
HETATM   11  C   UNL     1      33.755  -8.795   5.015  1.00  0.00     0.002 A 
HETATM   12  C   UNL     1      35.102  -8.755   4.633  1.00  0.00     0.031 A 
ENDROOT
BRANCH   4  13
HETATM   13  C   UNL     1      36.658 -10.432  -0.515  1.00  0.00     0.175 C 
BRANCH  13  14
HETATM   14  C   UNL     1      37.662 -11.558  -0.396  1.00  0.00    -0.040 A 
HETATM   15  C   UNL     1      37.379 -12.707   0.354  1.00  0.00     0.010 A 
HETATM   16  C   UNL     1      38.275 -13.787   0.367  1.00  0.00     0.017 A 
HETATM   17  C   UNL     1      39.472 -13.721  -0.359  1.00  0.00     0.032 A 
HETATM   18  C   UNL     1      39.765 -12.564  -1.088  1.00  0.00     0.017 A 
HETATM   19  C   UNL     1      38.873 -11.492  -1.101  1.00  0.00     0.010 A 
BRANCH  17  20
HETATM   20  C   UNL     1      40.433 -14.860  -0.454  1.00  0.00     0.251 C 
HETATM   21  N   UNL     1      40.445 -15.760   0.587  1.00  0.00    -0.353 N 
HETATM   22  H   UNL     1      39.929 -15.575   1.433  1.00  0.00     0.163 HD
HETATM   23  O   UNL     1      41.175 -14.949  -1.425  1.00  0.00    -0.268 OA
BRANCH  21  24
HETATM   24  C   UNL     1      41.337 -16.900   0.589  1.00  0.00     0.161 C 
BRANCH  24  25
HETATM   25  C   UNL     1      41.673 -17.331   1.995  1.00  0.00    -0.038 A 
HETATM   26  C   UNL     1      42.759 -18.188   2.234  1.00  0.00     0.048 A 
HETATM   27  C   UNL     1      43.041 -18.532   3.540  1.00  0.00     0.105 A 
HETATM   28  C   UNL     1      42.290 -18.064   4.592  1.00  0.00     0.105 A 
HETATM   29  O   UNL     1      44.054 -19.343   3.944  1.00  0.00    -0.323 OA
HETATM   30  O   UNL     1      42.737 -18.522   5.792  1.00  0.00    -0.323 OA
HETATM   31  C   UNL     1      41.218 -17.221   4.400  1.00  0.00     0.040 A 
HETATM   32  C   UNL     1      43.866 -19.317   5.375  1.00  0.00     0.352 A 
HETATM   33  C   UNL     1      40.913 -16.849   3.087  1.00  0.00     0.012 A 
ENDBRANCH  24  25
ENDBRANCH  21  24
ENDBRANCH  17  20
ENDBRANCH  13  14
ENDBRANCH   4  13
BRANCH   1  34
HETATM   34  C   UNL     1      37.927  -8.973   3.901  1.00  0.00     0.237 C 
BRANCH  34  35
HETATM   35  C   UNL     1      38.765 -10.219   4.189  1.00  0.00     0.240 C 
HETATM   36  N   UNL     1      39.965 -10.271   3.508  1.00  0.00    -0.326 N 
HETATM   37  H   UNL     1      40.173  -9.486   2.902  1.00  0.00     0.169 HD
HETATM   38  O   UNL     1      38.290 -11.109   4.892  1.00  0.00    -0.271 OA
BRANCH  36  39
HETATM   39  C   UNL     1      40.905 -11.325   3.523  1.00  0.00     0.034 A 
HETATM   40  C   UNL     1      41.519 -11.807   4.680  1.00  0.00     0.030 A 
HETATM   41  C   UNL     1      42.432 -12.867   4.619  1.00  0.00     0.009 A 
HETATM   42  C   UNL     1      42.743 -13.468   3.398  1.00  0.00    -0.062 A 
HETATM   43  C   UNL     1      43.735 -14.591   3.329  1.00  0.00     0.048 C 
HETATM   44  C   UNL     1      42.145 -12.975   2.234  1.00  0.00     0.009 A 
HETATM   45  C   UNL     1      41.231 -11.917   2.297  1.00  0.00     0.030 A 
ENDBRANCH  36  39
ENDBRANCH  34  35
ENDBRANCH   1  34
TORSDOF 8
ENDMDL
