MODEL 1
REMARK VINA RESULT:      -8.7      0.000      0.000
REMARK  4 active torsions:
REMARK  status: ('A' for Active; 'I' for Inactive)
REMARK    1  A    between atoms: C_5  and  C_6 
REMARK    2  A    between atoms: C_14  and  C_15 
REMARK       I    between atoms: C_15  and  N_16 
REMARK    3  A    between atoms: N_16  and  C_17 
REMARK    4  A    between atoms: C_23  and  N_24 
ROOT
HETATM    1  C   UNL     1      42.529 -13.832   2.554  1.00  0.00     0.262 C 
HETATM    2  N   UNL     1      41.808 -14.999   2.459  1.00  0.00    -0.301 N 
HETATM    3  O   UNL     1      43.694 -13.736   2.916  1.00  0.00    -0.267 OA
HETATM    4  H   UNL     1      40.812 -14.987   2.318  1.00  0.00     0.171 HD
ENDROOT
BRANCH   1   5
HETATM    5  C   UNL     1      41.759 -12.642   2.226  1.00  0.00     0.095 A 
HETATM    6  C   UNL     1      41.323 -11.710   3.147  1.00  0.00     0.093 A 
HETATM    7  C   UNL     1      41.437 -11.584   4.614  1.00  0.00     0.080 C 
HETATM    8  O   UNL     1      40.641 -10.724   2.512  1.00  0.00    -0.217 OA
HETATM    9  N   UNL     1      40.627 -10.971   1.155  1.00  0.00    -0.127 NA
HETATM   10  C   UNL     1      41.314 -12.108   0.978  1.00  0.00     0.116 A 
BRANCH  10  11
HETATM   11  C   UNL     1      41.537 -12.614  -0.372  1.00  0.00     0.039 A 
HETATM   12  C   UNL     1      40.774 -13.680  -0.877  1.00  0.00     0.048 A 
HETATM   13 CL   UNL     1      39.530 -14.446   0.048  1.00  0.00    -0.083 Cl
HETATM   14  C   UNL     1      40.987 -14.154  -2.178  1.00  0.00     0.025 A 
HETATM   15  C   UNL     1      41.961 -13.574  -2.987  1.00  0.00     0.003 A 
HETATM   16  C   UNL     1      42.721 -12.513  -2.501  1.00  0.00     0.025 A 
HETATM   17  C   UNL     1      42.512 -12.034  -1.203  1.00  0.00     0.048 A 
HETATM   18 CL   UNL     1      43.438 -10.656  -0.713  1.00  0.00    -0.083 Cl
ENDBRANCH  10  11
ENDBRANCH   1   5
BRANCH   2  19
HETATM   19  C   UNL     1      42.370 -16.228   2.653  1.00  0.00     0.174 A 
HETATM   20  S   UNL     1      42.084 -17.318   1.374  1.00  0.00    -0.050 SA
HETATM   21  C   UNL     1      42.984 -18.524   2.215  1.00  0.00     0.039 A 
HETATM   22  C   UNL     1      43.446 -17.982   3.418  1.00  0.00     0.077 A 
HETATM   23  C   UNL     1      43.257 -19.850   1.835  1.00  0.00     0.057 A 
HETATM   24  N   UNL     1      43.092 -16.666   3.646  1.00  0.00    -0.223 NA
HETATM   25  C   UNL     1      44.211 -18.794   4.280  1.00  0.00     0.035 A 
HETATM   26  C   UNL     1      44.494 -20.119   3.928  1.00  0.00     0.038 A 
HETATM   27  C   UNL     1      44.019 -20.634   2.719  1.00  0.00     0.104 A 
BRANCH  27  28
HETATM   28  N   UNL     1      44.318 -22.029   2.357  1.00  0.00    -0.116 N 
HETATM   29  O   UNL     1      44.238 -22.342   1.162  1.00  0.00    -0.532 OA
HETATM   30  O   UNL     1      44.632 -22.805   3.271  1.00  0.00    -0.532 OA
ENDBRANCH  27  28
ENDBRANCH   2  19
TORSDOF 4
ENDMDL
MODEL 2
REMARK VINA RESULT:      -8.6      0.684      1.848
REMARK  4 active torsions:
REMARK  status: ('A' for Active; 'I' for Inactive)
REMARK    1  A    between atoms: C_5  and  C_6 
REMARK    2  A    between atoms: C_14  and  C_15 
REMARK       I    between atoms: C_15  and  N_16 
REMARK    3  A    between atoms: N_16  and  C_17 
REMARK    4  A    between atoms: C_23  and  N_24 
ROOT
HETATM    1  C   UNL     1      42.370 -13.955   2.880  1.00  0.00     0.262 C 
HETATM    2  N   UNL     1      41.668 -15.123   3.063  1.00  0.00    -0.301 N 
HETATM    3  O   UNL     1      43.590 -13.845   2.868  1.00  0.00    -0.267 OA
HETATM    4  H   UNL     1      40.676 -15.114   3.229  1.00  0.00     0.171 HD
ENDROOT
BRANCH   1   5
HETATM    5  C   UNL     1      41.524 -12.779   2.743  1.00  0.00     0.095 A 
HETATM    6  C   UNL     1      41.269 -11.873   3.753  1.00  0.00     0.093 A 
HETATM    7  C   UNL     1      41.684 -11.767   5.166  1.00  0.00     0.080 C 
HETATM    8  O   UNL     1      40.449 -10.895   3.292  1.00  0.00    -0.217 OA
HETATM    9  N   UNL     1      40.159 -11.122   1.964  1.00  0.00    -0.127 NA
HETATM   10  C   UNL     1      40.818 -12.239   1.625  1.00  0.00     0.116 A 
BRANCH  10  11
HETATM   11  C   UNL     1      40.766 -12.718   0.248  1.00  0.00     0.039 A 
HETATM   12  C   UNL     1      41.633 -12.199  -0.729  1.00  0.00     0.048 A 
HETATM   13 CL   UNL     1      42.811 -10.985  -0.368  1.00  0.00    -0.083 Cl
HETATM   14  C   UNL     1      41.584 -12.670  -2.046  1.00  0.00     0.025 A 
HETATM   15  C   UNL     1      40.671 -13.659  -2.406  1.00  0.00     0.003 A 
HETATM   16  C   UNL     1      39.809 -14.185  -1.447  1.00  0.00     0.025 A 
HETATM   17  C   UNL     1      39.855 -13.721  -0.128  1.00  0.00     0.048 A 
HETATM   18 CL   UNL     1      38.811 -14.492   1.017  1.00  0.00    -0.083 Cl
ENDBRANCH  10  11
ENDBRANCH   1   5
BRANCH   2  19
HETATM   19  C   UNL     1      42.276 -16.342   3.137  1.00  0.00     0.174 A 
HETATM   20  S   UNL     1      41.908 -17.368   1.827  1.00  0.00    -0.050 SA
HETATM   21  C   UNL     1      42.909 -18.591   2.517  1.00  0.00     0.039 A 
HETATM   22  C   UNL     1      43.460 -18.102   3.705  1.00  0.00     0.077 A 
HETATM   23  C   UNL     1      43.182 -19.885   2.039  1.00  0.00     0.057 A 
HETATM   24  N   UNL     1      43.094 -16.812   4.038  1.00  0.00    -0.223 NA
HETATM   25  C   UNL     1      44.319 -18.936   4.451  1.00  0.00     0.035 A 
HETATM   26  C   UNL     1      44.604 -20.231   4.000  1.00  0.00     0.038 A 
HETATM   27  C   UNL     1      44.038 -20.693   2.808  1.00  0.00     0.104 A 
BRANCH  27  28
HETATM   28  N   UNL     1      44.341 -22.056   2.343  1.00  0.00    -0.116 N 
HETATM   29  O   UNL     1      44.239 -22.284   1.130  1.00  0.00    -0.532 OA
HETATM   30  O   UNL     1      44.678 -22.892   3.193  1.00  0.00    -0.532 OA
ENDBRANCH  27  28
ENDBRANCH   2  19
TORSDOF 4
ENDMDL
MODEL 3
REMARK VINA RESULT:      -8.2      3.409      7.919
REMARK  4 active torsions:
REMARK  status: ('A' for Active; 'I' for Inactive)
REMARK    1  A    between atoms: C_5  and  C_6 
REMARK    2  A    between atoms: C_14  and  C_15 
REMARK       I    between atoms: C_15  and  N_16 
REMARK    3  A    between atoms: N_16  and  C_17 
REMARK    4  A    between atoms: C_23  and  N_24 
ROOT
HETATM    1  C   UNL     1      42.339 -14.719   3.172  1.00  0.00     0.262 C 
HETATM    2  N   UNL     1      41.398 -14.296   2.264  1.00  0.00    -0.301 N 
HETATM    3  O   UNL     1      43.539 -14.475   3.129  1.00  0.00    -0.267 OA
HETATM    4  H   UNL     1      40.465 -14.671   2.266  1.00  0.00     0.171 HD
ENDROOT
BRANCH   1   5
HETATM    5  C   UNL     1      41.798 -15.568   4.222  1.00  0.00     0.095 A 
HETATM    6  C   UNL     1      40.912 -15.147   5.194  1.00  0.00     0.093 A 
HETATM    7  C   UNL     1      40.274 -13.854   5.511  1.00  0.00     0.080 C 
HETATM    8  O   UNL     1      40.603 -16.186   6.010  1.00  0.00    -0.217 OA
HETATM    9  N   UNL     1      41.261 -17.320   5.585  1.00  0.00    -0.127 NA
HETATM   10  C   UNL     1      41.962 -16.960   4.501  1.00  0.00     0.116 A 
BRANCH  10  11
HETATM   11  C   UNL     1      42.728 -17.963   3.770  1.00  0.00     0.039 A 
HETATM   12  C   UNL     1      42.354 -18.351   2.473  1.00  0.00     0.048 A 
HETATM   13 CL   UNL     1      40.989 -17.666   1.661  1.00  0.00    -0.083 Cl
HETATM   14  C   UNL     1      43.099 -19.307   1.773  1.00  0.00     0.025 A 
HETATM   15  C   UNL     1      44.221 -19.890   2.358  1.00  0.00     0.003 A 
HETATM   16  C   UNL     1      44.606 -19.512   3.642  1.00  0.00     0.025 A 
HETATM   17  C   UNL     1      43.867 -18.554   4.345  1.00  0.00     0.048 A 
HETATM   18 CL   UNL     1      44.467 -18.078   5.897  1.00  0.00    -0.083 Cl
ENDBRANCH  10  11
ENDBRANCH   1   5
BRANCH   2  19
HETATM   19  C   UNL     1      41.693 -13.432   1.248  1.00  0.00     0.174 A 
HETATM   20  S   UNL     1      41.296 -14.036  -0.296  1.00  0.00    -0.050 SA
HETATM   21  C   UNL     1      41.882 -12.577  -1.005  1.00  0.00     0.039 A 
HETATM   22  C   UNL     1      42.330 -11.731   0.015  1.00  0.00     0.077 A 
HETATM   23  C   UNL     1      41.941 -12.214  -2.362  1.00  0.00     0.057 A 
HETATM   24  N   UNL     1      42.205 -12.234   1.295  1.00  0.00    -0.223 NA
HETATM   25  C   UNL     1      42.858 -10.470  -0.331  1.00  0.00     0.035 A 
HETATM   26  C   UNL     1      42.932 -10.085  -1.675  1.00  0.00     0.038 A 
HETATM   27  C   UNL     1      42.477 -10.952  -2.673  1.00  0.00     0.104 A 
BRANCH  27  28
HETATM   28  N   UNL     1      42.561 -10.541  -4.083  1.00  0.00    -0.116 N 
HETATM   29  O   UNL     1      42.474 -11.426  -4.946  1.00  0.00    -0.532 OA
HETATM   30  O   UNL     1      42.714  -9.335  -4.323  1.00  0.00    -0.532 OA
ENDBRANCH  27  28
ENDBRANCH   2  19
TORSDOF 4
ENDMDL
MODEL 4
REMARK VINA RESULT:      -8.1      1.490      1.809
REMARK  4 active torsions:
REMARK  status: ('A' for Active; 'I' for Inactive)
REMARK    1  A    between atoms: C_5  and  C_6 
REMARK    2  A    between atoms: C_14  and  C_15 
REMARK       I    between atoms: C_15  and  N_16 
REMARK    3  A    between atoms: N_16  and  C_17 
REMARK    4  A    between atoms: C_23  and  N_24 
ROOT
HETATM    1  C   UNL     1      42.022 -13.442   2.140  1.00  0.00     0.262 C 
HETATM    2  N   UNL     1      41.383 -14.659   2.178  1.00  0.00    -0.301 N 
HETATM    3  O   UNL     1      43.168 -13.222   2.511  1.00  0.00    -0.267 OA
HETATM    4  H   UNL     1      40.393 -14.733   2.016  1.00  0.00     0.171 HD
ENDROOT
BRANCH   1   5
HETATM    5  C   UNL     1      41.186 -12.358   1.649  1.00  0.00     0.095 A 
HETATM    6  C   UNL     1      40.718 -11.314   2.422  1.00  0.00     0.093 A 
HETATM    7  C   UNL     1      40.852 -10.952   3.847  1.00  0.00     0.080 C 
HETATM    8  O   UNL     1      39.975 -10.476   1.657  1.00  0.00    -0.217 OA
HETATM    9  N   UNL     1      39.950 -10.935   0.357  1.00  0.00    -0.127 NA
HETATM   10  C   UNL     1      40.692 -12.052   0.343  1.00  0.00     0.116 A 
BRANCH  10  11
HETATM   11  C   UNL     1      40.917 -12.754  -0.916  1.00  0.00     0.039 A 
HETATM   12  C   UNL     1      39.996 -13.706  -1.384  1.00  0.00     0.048 A 
HETATM   13 CL   UNL     1      38.549 -14.095  -0.521  1.00  0.00    -0.083 Cl
HETATM   14  C   UNL     1      40.214 -14.368  -2.598  1.00  0.00     0.025 A 
HETATM   15  C   UNL     1      41.349 -14.094  -3.356  1.00  0.00     0.003 A 
HETATM   16  C   UNL     1      42.269 -13.149  -2.905  1.00  0.00     0.025 A 
HETATM   17  C   UNL     1      42.055 -12.481  -1.695  1.00  0.00     0.048 A 
HETATM   18 CL   UNL     1      43.201 -11.260  -1.255  1.00  0.00    -0.083 Cl
ENDBRANCH  10  11
ENDBRANCH   1   5
BRANCH   2  19
HETATM   19  C   UNL     1      42.018 -15.812   2.537  1.00  0.00     0.174 A 
HETATM   20  S   UNL     1      41.835 -16.206   4.186  1.00  0.00    -0.050 SA
HETATM   21  C   UNL     1      42.795 -17.618   3.944  1.00  0.00     0.039 A 
HETATM   22  C   UNL     1      43.173 -17.678   2.599  1.00  0.00     0.077 A 
HETATM   23  C   UNL     1      43.183 -18.595   4.878  1.00  0.00     0.057 A 
HETATM   24  N   UNL     1      42.712 -16.643   1.810  1.00  0.00    -0.223 NA
HETATM   25  C   UNL     1      43.972 -18.757   2.165  1.00  0.00     0.035 A 
HETATM   26  C   UNL     1      44.375 -19.741   3.075  1.00  0.00     0.038 A 
HETATM   27  C   UNL     1      43.982 -19.655   4.414  1.00  0.00     0.104 A 
BRANCH  27  28
HETATM   28  N   UNL     1      44.413 -20.691   5.364  1.00  0.00    -0.116 N 
HETATM   29  O   UNL     1      45.191 -21.563   4.951  1.00  0.00    -0.532 OA
HETATM   30  O   UNL     1      43.971 -20.631   6.521  1.00  0.00    -0.532 OA
ENDBRANCH  27  28
ENDBRANCH   2  19
TORSDOF 4
ENDMDL
MODEL 5
REMARK VINA RESULT:      -8.1      1.387      2.408
REMARK  4 active torsions:
REMARK  status: ('A' for Active; 'I' for Inactive)
REMARK    1  A    between atoms: C_5  and  C_6 
REMARK    2  A    between atoms: C_14  and  C_15 
REMARK       I    between atoms: C_15  and  N_16 
REMARK    3  A    between atoms: N_16  and  C_17 
REMARK    4  A    between atoms: C_23  and  N_24 
ROOT
HETATM    1  C   UNL     1      42.171 -13.415   2.266  1.00  0.00     0.262 C 
HETATM    2  N   UNL     1      41.518 -14.624   2.239  1.00  0.00    -0.301 N 
HETATM    3  O   UNL     1      43.307 -13.222   2.679  1.00  0.00    -0.267 OA
HETATM    4  H   UNL     1      40.532 -14.681   2.045  1.00  0.00     0.171 HD
ENDROOT
BRANCH   1   5
HETATM    5  C   UNL     1      41.360 -12.303   1.793  1.00  0.00     0.095 A 
HETATM    6  C   UNL     1      40.876 -11.287   2.593  1.00  0.00     0.093 A 
HETATM    7  C   UNL     1      40.965 -10.985   4.035  1.00  0.00     0.080 C 
HETATM    8  O   UNL     1      40.166 -10.411   1.839  1.00  0.00    -0.217 OA
HETATM    9  N   UNL     1      40.181 -10.816   0.521  1.00  0.00    -0.127 NA
HETATM   10  C   UNL     1      40.913 -11.939   0.486  1.00  0.00     0.116 A 
BRANCH  10  11
HETATM   11  C   UNL     1      41.174 -12.590  -0.793  1.00  0.00     0.039 A 
HETATM   12  C   UNL     1      42.261 -12.198  -1.593  1.00  0.00     0.048 A 
HETATM   13 CL   UNL     1      43.353 -10.944  -1.118  1.00  0.00    -0.083 Cl
HETATM   14  C   UNL     1      42.511 -12.834  -2.815  1.00  0.00     0.025 A 
HETATM   15  C   UNL     1      41.682 -13.864  -3.254  1.00  0.00     0.003 A 
HETATM   16  C   UNL     1      40.604 -14.266  -2.469  1.00  0.00     0.025 A 
HETATM   17  C   UNL     1      40.350 -13.636  -1.246  1.00  0.00     0.048 A 
HETATM   18 CL   UNL     1      39.045 -14.258  -0.294  1.00  0.00    -0.083 Cl
ENDBRANCH  10  11
ENDBRANCH   1   5
BRANCH   2  19
HETATM   19  C   UNL     1      42.131 -15.798   2.572  1.00  0.00     0.174 A 
HETATM   20  S   UNL     1      41.974 -16.205   4.220  1.00  0.00    -0.050 SA
HETATM   21  C   UNL     1      42.891 -17.639   3.942  1.00  0.00     0.039 A 
HETATM   22  C   UNL     1      43.236 -17.695   2.588  1.00  0.00     0.077 A 
HETATM   23  C   UNL     1      43.273 -18.636   4.856  1.00  0.00     0.057 A 
HETATM   24  N   UNL     1      42.785 -16.639   1.820  1.00  0.00    -0.223 NA
HETATM   25  C   UNL     1      43.996 -18.789   2.125  1.00  0.00     0.035 A 
HETATM   26  C   UNL     1      44.394 -19.793   3.015  1.00  0.00     0.038 A 
HETATM   27  C   UNL     1      44.034 -19.711   4.363  1.00  0.00     0.104 A 
BRANCH  27  28
HETATM   28  N   UNL     1      44.458 -20.769   5.293  1.00  0.00    -0.116 N 
HETATM   29  O   UNL     1      45.242 -21.628   4.867  1.00  0.00    -0.532 OA
HETATM   30  O   UNL     1      44.005 -20.737   6.446  1.00  0.00    -0.532 OA
ENDBRANCH  27  28
ENDBRANCH   2  19
TORSDOF 4
ENDMDL
MODEL 6
REMARK VINA RESULT:      -7.8      2.662      3.487
REMARK  4 active torsions:
REMARK  status: ('A' for Active; 'I' for Inactive)
REMARK    1  A    between atoms: C_5  and  C_6 
REMARK    2  A    between atoms: C_14  and  C_15 
REMARK       I    between atoms: C_15  and  N_16 
REMARK    3  A    between atoms: N_16  and  C_17 
REMARK    4  A    between atoms: C_23  and  N_24 
ROOT
HETATM    1  C   UNL     1      40.464 -14.093   0.374  1.00  0.00     0.262 C 
HETATM    2  N   UNL     1      40.148 -15.402   0.651  1.00  0.00    -0.301 N 
HETATM    3  O   UNL     1      41.496 -13.520   0.700  1.00  0.00    -0.267 OA
HETATM    4  H   UNL     1      39.218 -15.757   0.503  1.00  0.00     0.171 HD
ENDROOT
BRANCH   1   5
HETATM    5  C   UNL     1      39.411 -13.373  -0.326  1.00  0.00     0.095 A 
HETATM    6  C   UNL     1      38.063 -13.487  -0.050  1.00  0.00     0.093 A 
HETATM    7  C   UNL     1      37.276 -14.281   0.914  1.00  0.00     0.080 C 
HETATM    8  O   UNL     1      37.357 -12.679  -0.880  1.00  0.00    -0.217 OA
HETATM    9  N   UNL     1      38.223 -11.997  -1.710  1.00  0.00    -0.127 NA
HETATM   10  C   UNL     1      39.456 -12.395  -1.367  1.00  0.00     0.116 A 
BRANCH  10  11
HETATM   11  C   UNL     1      40.615 -11.803  -2.027  1.00  0.00     0.039 A 
HETATM   12  C   UNL     1      41.170 -10.599  -1.563  1.00  0.00     0.048 A 
HETATM   13 CL   UNL     1      40.537  -9.756  -0.191  1.00  0.00    -0.083 Cl
HETATM   14  C   UNL     1      42.288 -10.041  -2.195  1.00  0.00     0.025 A 
HETATM   15  C   UNL     1      42.863 -10.673  -3.295  1.00  0.00     0.003 A 
HETATM   16  C   UNL     1      42.324 -11.870  -3.763  1.00  0.00     0.025 A 
HETATM   17  C   UNL     1      41.209 -12.434  -3.134  1.00  0.00     0.048 A 
HETATM   18 CL   UNL     1      40.662 -13.966  -3.724  1.00  0.00    -0.083 Cl
ENDBRANCH  10  11
ENDBRANCH   1   5
BRANCH   2  19
HETATM   19  C   UNL     1      41.030 -16.264   1.235  1.00  0.00     0.174 A 
HETATM   20  S   UNL     1      40.899 -16.325   2.934  1.00  0.00    -0.050 SA
HETATM   21  C   UNL     1      42.176 -17.483   2.980  1.00  0.00     0.039 A 
HETATM   22  C   UNL     1      42.596 -17.740   1.671  1.00  0.00     0.077 A 
HETATM   23  C   UNL     1      42.759 -18.114   4.093  1.00  0.00     0.057 A 
HETATM   24  N   UNL     1      41.923 -17.041   0.688  1.00  0.00    -0.223 NA
HETATM   25  C   UNL     1      43.642 -18.663   1.461  1.00  0.00     0.035 A 
HETATM   26  C   UNL     1      44.243 -19.302   2.552  1.00  0.00     0.038 A 
HETATM   27  C   UNL     1      43.802 -19.025   3.849  1.00  0.00     0.104 A 
BRANCH  27  28
HETATM   28  N   UNL     1      44.441 -19.698   4.991  1.00  0.00    -0.116 N 
HETATM   29  O   UNL     1      44.514 -19.074   6.059  1.00  0.00    -0.532 OA
HETATM   30  O   UNL     1      44.869 -20.848   4.815  1.00  0.00    -0.532 OA
ENDBRANCH  27  28
ENDBRANCH   2  19
TORSDOF 4
ENDMDL
MODEL 7
REMARK VINA RESULT:      -7.6      3.687      7.915
REMARK  4 active torsions:
REMARK  status: ('A' for Active; 'I' for Inactive)
REMARK    1  A    between atoms: C_5  and  C_6 
REMARK    2  A    between atoms: C_14  and  C_15 
REMARK       I    between atoms: C_15  and  N_16 
REMARK    3  A    between atoms: N_16  and  C_17 
REMARK    4  A    between atoms: C_23  and  N_24 
ROOT
HETATM    1  C   UNL     1      41.718 -17.001   2.071  1.00  0.00     0.262 C 
HETATM    2  N   UNL     1      41.921 -15.798   1.437  1.00  0.00    -0.301 N 
HETATM    3  O   UNL     1      40.858 -17.825   1.787  1.00  0.00    -0.267 OA
HETATM    4  H   UNL     1      42.531 -15.099   1.827  1.00  0.00     0.171 HD
ENDROOT
BRANCH   1   5
HETATM    5  C   UNL     1      42.610 -17.225   3.198  1.00  0.00     0.095 A 
HETATM    6  C   UNL     1      43.558 -18.227   3.263  1.00  0.00     0.093 A 
HETATM    7  C   UNL     1      43.967 -19.314   2.352  1.00  0.00     0.080 C 
HETATM    8  O   UNL     1      44.221 -18.152   4.444  1.00  0.00    -0.217 OA
HETATM    9  N   UNL     1      43.740 -17.088   5.179  1.00  0.00    -0.127 NA
HETATM   10  C   UNL     1      42.789 -16.517   4.426  1.00  0.00     0.116 A 
BRANCH  10  11
HETATM   11  C   UNL     1      42.120 -15.311   4.902  1.00  0.00     0.039 A 
HETATM   12  C   UNL     1      41.013 -15.394   5.763  1.00  0.00     0.048 A 
HETATM   13 CL   UNL     1      40.385 -16.907   6.319  1.00  0.00    -0.083 Cl
HETATM   14  C   UNL     1      40.381 -14.232   6.223  1.00  0.00     0.025 A 
HETATM   15  C   UNL     1      40.842 -12.978   5.830  1.00  0.00     0.003 A 
HETATM   16  C   UNL     1      41.942 -12.882   4.980  1.00  0.00     0.025 A 
HETATM   17  C   UNL     1      42.579 -14.039   4.519  1.00  0.00     0.048 A 
HETATM   18 CL   UNL     1      43.991 -13.825   3.541  1.00  0.00    -0.083 Cl
ENDBRANCH  10  11
ENDBRANCH   1   5
BRANCH   2  19
HETATM   19  C   UNL     1      41.236 -15.434   0.314  1.00  0.00     0.174 A 
HETATM   20  S   UNL     1      40.013 -14.282   0.603  1.00  0.00    -0.050 SA
HETATM   21  C   UNL     1      39.616 -14.299  -1.075  1.00  0.00     0.039 A 
HETATM   22  C   UNL     1      40.472 -15.189  -1.730  1.00  0.00     0.077 A 
HETATM   23  C   UNL     1      38.620 -13.577  -1.755  1.00  0.00     0.057 A 
HETATM   24  N   UNL     1      41.397 -15.821  -0.921  1.00  0.00    -0.223 NA
HETATM   25  C   UNL     1      40.331 -15.369  -3.122  1.00  0.00     0.035 A 
HETATM   26  C   UNL     1      39.344 -14.666  -3.823  1.00  0.00     0.038 A 
HETATM   27  C   UNL     1      38.502 -13.783  -3.141  1.00  0.00     0.104 A 
BRANCH  27  28
HETATM   28  N   UNL     1      37.465 -13.050  -3.885  1.00  0.00    -0.116 N 
HETATM   29  O   UNL     1      37.576 -11.818  -3.961  1.00  0.00    -0.532 OA
HETATM   30  O   UNL     1      36.544 -13.708  -4.389  1.00  0.00    -0.532 OA
ENDBRANCH  27  28
ENDBRANCH   2  19
TORSDOF 4
ENDMDL
MODEL 8
REMARK VINA RESULT:      -7.6      2.995      4.257
REMARK  4 active torsions:
REMARK  status: ('A' for Active; 'I' for Inactive)
REMARK    1  A    between atoms: C_5  and  C_6 
REMARK    2  A    between atoms: C_14  and  C_15 
REMARK       I    between atoms: C_15  and  N_16 
REMARK    3  A    between atoms: N_16  and  C_17 
REMARK    4  A    between atoms: C_23  and  N_24 
ROOT
HETATM    1  C   UNL     1      40.767 -14.486  -0.171  1.00  0.00     0.262 C 
HETATM    2  N   UNL     1      40.325 -15.691   0.321  1.00  0.00    -0.301 N 
HETATM    3  O   UNL     1      41.666 -13.803   0.304  1.00  0.00    -0.267 OA
HETATM    4  H   UNL     1      39.477 -16.113  -0.016  1.00  0.00     0.171 HD
ENDROOT
BRANCH   1   5
HETATM    5  C   UNL     1      40.024 -14.022  -1.332  1.00  0.00     0.095 A 
HETATM    6  C   UNL     1      40.045 -14.628  -2.573  1.00  0.00     0.093 A 
HETATM    7  C   UNL     1      40.741 -15.804  -3.129  1.00  0.00     0.080 C 
HETATM    8  O   UNL     1      39.239 -13.947  -3.427  1.00  0.00    -0.217 OA
HETATM    9  N   UNL     1      38.653 -12.888  -2.766  1.00  0.00    -0.127 NA
HETATM   10  C   UNL     1      39.104 -12.942  -1.505  1.00  0.00     0.116 A 
BRANCH  10  11
HETATM   11  C   UNL     1      38.615 -11.981  -0.522  1.00  0.00     0.039 A 
HETATM   12  C   UNL     1      37.738 -12.380   0.500  1.00  0.00     0.048 A 
HETATM   13 CL   UNL     1      37.196 -14.013   0.669  1.00  0.00    -0.083 Cl
HETATM   14  C   UNL     1      37.280 -11.454   1.446  1.00  0.00     0.025 A 
HETATM   15  C   UNL     1      37.688 -10.124   1.382  1.00  0.00     0.003 A 
HETATM   16  C   UNL     1      38.561  -9.716   0.377  1.00  0.00     0.025 A 
HETATM   17  C   UNL     1      39.024 -10.636  -0.569  1.00  0.00     0.048 A 
HETATM   18 CL   UNL     1      40.175 -10.065  -1.729  1.00  0.00    -0.083 Cl
ENDBRANCH  10  11
ENDBRANCH   1   5
BRANCH   2  19
HETATM   19  C   UNL     1      40.939 -16.331   1.360  1.00  0.00     0.174 A 
HETATM   20  S   UNL     1      42.454 -16.997   0.949  1.00  0.00    -0.050 SA
HETATM   21  C   UNL     1      42.621 -17.583   2.563  1.00  0.00     0.039 A 
HETATM   22  C   UNL     1      41.492 -17.204   3.296  1.00  0.00     0.077 A 
HETATM   23  C   UNL     1      43.673 -18.322   3.132  1.00  0.00     0.057 A 
HETATM   24  N   UNL     1      40.547 -16.482   2.594  1.00  0.00    -0.223 NA
HETATM   25  C   UNL     1      41.406 -17.578   4.653  1.00  0.00     0.035 A 
HETATM   26  C   UNL     1      42.438 -18.318   5.243  1.00  0.00     0.038 A 
HETATM   27  C   UNL     1      43.554 -18.682   4.485  1.00  0.00     0.104 A 
BRANCH  27  28
HETATM   28  N   UNL     1      44.633 -19.462   5.112  1.00  0.00    -0.116 N 
HETATM   29  O   UNL     1      45.426 -18.858   5.848  1.00  0.00    -0.532 OA
HETATM   30  O   UNL     1      44.684 -20.675   4.865  1.00  0.00    -0.532 OA
ENDBRANCH  27  28
ENDBRANCH   2  19
TORSDOF 4
ENDMDL
MODEL 9
REMARK VINA RESULT:      -7.5      5.219      7.521
REMARK  4 active torsions:
REMARK  status: ('A' for Active; 'I' for Inactive)
REMARK    1  A    between atoms: C_5  and  C_6 
REMARK    2  A    between atoms: C_14  and  C_15 
REMARK       I    between atoms: C_15  and  N_16 
REMARK    3  A    between atoms: N_16  and  C_17 
REMARK    4  A    between atoms: C_23  and  N_24 
ROOT
HETATM    1  C   UNL     1      41.406 -12.087   6.621  1.00  0.00     0.262 C 
HETATM    2  N   UNL     1      42.590 -12.683   6.253  1.00  0.00    -0.301 N 
HETATM    3  O   UNL     1      40.311 -12.633   6.665  1.00  0.00    -0.267 OA
HETATM    4  H   UNL     1      43.416 -12.137   6.077  1.00  0.00     0.171 HD
ENDROOT
BRANCH   1   5
HETATM    5  C   UNL     1      41.535 -10.670   6.924  1.00  0.00     0.095 A 
HETATM    6  C   UNL     1      41.541  -9.662   5.980  1.00  0.00     0.093 A 
HETATM    7  C   UNL     1      41.448  -9.634   4.507  1.00  0.00     0.080 C 
HETATM    8  O   UNL     1      41.671  -8.460   6.597  1.00  0.00    -0.217 OA
HETATM    9  N   UNL     1      41.734  -8.645   7.962  1.00  0.00    -0.127 NA
HETATM   10  C   UNL     1      41.632  -9.966   8.163  1.00  0.00     0.116 A 
BRANCH  10  11
HETATM   11  C   UNL     1      41.602 -10.488   9.525  1.00  0.00     0.039 A 
HETATM   12  C   UNL     1      40.386 -10.645  10.210  1.00  0.00     0.048 A 
HETATM   13 CL   UNL     1      38.863 -10.249   9.492  1.00  0.00    -0.083 Cl
HETATM   14  C   UNL     1      40.364 -11.156  11.513  1.00  0.00     0.025 A 
HETATM   15  C   UNL     1      41.551 -11.512  12.149  1.00  0.00     0.003 A 
HETATM   16  C   UNL     1      42.764 -11.366  11.480  1.00  0.00     0.025 A 
HETATM   17  C   UNL     1      42.792 -10.859  10.177  1.00  0.00     0.048 A 
HETATM   18 CL   UNL     1      44.332 -10.795   9.388  1.00  0.00    -0.083 Cl
ENDBRANCH  10  11
ENDBRANCH   1   5
BRANCH   2  19
HETATM   19  C   UNL     1      42.692 -14.021   6.001  1.00  0.00     0.174 A 
HETATM   20  S   UNL     1      44.002 -14.765   6.798  1.00  0.00    -0.050 SA
HETATM   21  C   UNL     1      43.559 -16.275   6.093  1.00  0.00     0.039 A 
HETATM   22  C   UNL     1      42.421 -16.084   5.303  1.00  0.00     0.077 A 
HETATM   23  C   UNL     1      44.176 -17.531   6.230  1.00  0.00     0.057 A 
HETATM   24  N   UNL     1      41.936 -14.791   5.271  1.00  0.00    -0.223 NA
HETATM   25  C   UNL     1      41.874 -17.190   4.620  1.00  0.00     0.035 A 
HETATM   26  C   UNL     1      42.471 -18.451   4.736  1.00  0.00     0.038 A 
HETATM   27  C   UNL     1      43.608 -18.612   5.533  1.00  0.00     0.104 A 
BRANCH  27  28
HETATM   28  N   UNL     1      44.231 -19.940   5.648  1.00  0.00    -0.116 N 
HETATM   29  O   UNL     1      45.105 -20.238   4.821  1.00  0.00    -0.532 OA
HETATM   30  O   UNL     1      43.844 -20.680   6.563  1.00  0.00    -0.532 OA
ENDBRANCH  27  28
ENDBRANCH   2  19
TORSDOF 4
ENDMDL
MODEL 10
REMARK VINA RESULT:      -7.4      1.960      4.143
REMARK  4 active torsions:
REMARK  status: ('A' for Active; 'I' for Inactive)
REMARK    1  A    between atoms: C_5  and  C_6 
REMARK    2  A    between atoms: C_14  and  C_15 
REMARK       I    between atoms: C_15  and  N_16 
REMARK    3  A    between atoms: N_16  and  C_17 
REMARK    4  A    between atoms: C_23  and  N_24 
ROOT
HETATM    1  C   UNL     1      41.514 -14.674   1.942  1.00  0.00     0.262 C 
HETATM    2  N   UNL     1      42.827 -15.071   2.046  1.00  0.00    -0.301 N 
HETATM    3  O   UNL     1      40.534 -15.395   2.083  1.00  0.00    -0.267 OA
HETATM    4  H   UNL     1      43.578 -14.469   1.753  1.00  0.00     0.171 HD
ENDROOT
BRANCH   1   5
HETATM    5  C   UNL     1      41.354 -13.274   1.581  1.00  0.00     0.095 A 
HETATM    6  C   UNL     1      41.590 -12.754   0.324  1.00  0.00     0.093 A 
HETATM    7  C   UNL     1      42.047 -13.330  -0.956  1.00  0.00     0.080 C 
HETATM    8  O   UNL     1      41.339 -11.421   0.327  1.00  0.00    -0.217 OA
HETATM    9  N   UNL     1      40.913 -11.033   1.580  1.00  0.00    -0.127 NA
HETATM   10  C   UNL     1      40.900 -12.144   2.329  1.00  0.00     0.116 A 
BRANCH  10  11
HETATM   11  C   UNL     1      40.430 -12.079   3.708  1.00  0.00     0.039 A 
HETATM   12  C   UNL     1      41.282 -12.410   4.776  1.00  0.00     0.048 A 
HETATM   13 CL   UNL     1      42.923 -12.896   4.532  1.00  0.00    -0.083 Cl
HETATM   14  C   UNL     1      40.826 -12.336   6.098  1.00  0.00     0.025 A 
HETATM   15  C   UNL     1      39.521 -11.936   6.371  1.00  0.00     0.003 A 
HETATM   16  C   UNL     1      38.667 -11.601   5.322  1.00  0.00     0.025 A 
HETATM   17  C   UNL     1      39.117 -11.670   4.000  1.00  0.00     0.048 A 
HETATM   18 CL   UNL     1      38.020 -11.150   2.765  1.00  0.00    -0.083 Cl
ENDBRANCH  10  11
ENDBRANCH   1   5
BRANCH   2  19
HETATM   19  C   UNL     1      43.187 -16.325   2.447  1.00  0.00     0.174 A 
HETATM   20  S   UNL     1      43.185 -17.470   1.184  1.00  0.00    -0.050 SA
HETATM   21  C   UNL     1      43.679 -18.687   2.302  1.00  0.00     0.039 A 
HETATM   22  C   UNL     1      43.817 -18.105   3.566  1.00  0.00     0.077 A 
HETATM   23  C   UNL     1      43.923 -20.053   2.073  1.00  0.00     0.057 A 
HETATM   24  N   UNL     1      43.541 -16.753   3.626  1.00  0.00    -0.223 NA
HETATM   25  C   UNL     1      44.215 -18.917   4.648  1.00  0.00     0.035 A 
HETATM   26  C   UNL     1      44.461 -20.281   4.449  1.00  0.00     0.038 A 
HETATM   27  C   UNL     1      44.313 -20.835   3.174  1.00  0.00     0.104 A 
BRANCH  27  28
HETATM   28  N   UNL     1      44.570 -22.270   2.973  1.00  0.00    -0.116 N 
HETATM   29  O   UNL     1      44.740 -22.970   3.981  1.00  0.00    -0.532 OA
HETATM   30  O   UNL     1      44.602 -22.691   1.808  1.00  0.00    -0.532 OA
ENDBRANCH  27  28
ENDBRANCH   2  19
TORSDOF 4
ENDMDL
