MODEL 1
REMARK VINA RESULT:      -8.3      0.000      0.000
REMARK  4 active torsions:
REMARK  status: ('A' for Active; 'I' for Inactive)
REMARK    1  A    between atoms: O_2  and  C_3 
REMARK    2  A    between atoms: C_4  and  N_5 
REMARK    3  A    between atoms: N_8  and  C_9 
REMARK    4  A    between atoms: C_9  and  C_10 
ROOT
HETATM    1  N   UNL     1      43.320 -17.950   3.094  1.00  0.00    -0.375 N 
HETATM    2  C   UNL     1      41.887 -17.645   3.253  1.00  0.00     0.153 C 
HETATM    3  C   UNL     1      41.677 -16.115   3.395  1.00  0.00     0.292 C 
HETATM    4  N   UNL     1      42.256 -15.284   2.307  1.00  0.00     0.095 N 
HETATM    5  C   UNL     1      43.680 -15.680   2.144  1.00  0.00     0.292 C 
HETATM    6  C   UNL     1      43.949 -17.196   1.985  1.00  0.00     0.153 C 
ENDROOT
BRANCH   4   7
HETATM    7  C   UNL     1      41.491 -15.451   1.054  1.00  0.00     0.313 C 
BRANCH   7   8
HETATM    8  C   UNL     1      41.599 -14.263   0.120  1.00  0.00    -0.001 A 
HETATM    9  C   UNL     1      41.525 -14.353  -1.281  1.00  0.00     0.070 A 
HETATM   10  C   UNL     1      41.657 -13.271  -2.139  1.00  0.00     0.012 A 
HETATM   11  N   UNL     1      41.298 -15.433  -2.098  1.00  0.00    -0.277 N 
HETATM   12  C   UNL     1      41.501 -13.821  -3.432  1.00  0.00     0.152 A 
HETATM   13  C   UNL     1      41.890 -11.994  -1.603  1.00  0.00     0.015 A 
HETATM   14  N   UNL     1      41.283 -15.140  -3.412  1.00  0.00    -0.186 NA
HETATM   15  C   UNL     1      41.987 -11.862  -0.212  1.00  0.00     0.002 A 
HETATM   16  C   UNL     1      41.851 -12.972   0.626  1.00  0.00     0.011 A 
HETATM   17  H   UNL     1      41.118 -16.385  -1.793  1.00  0.00     0.189 HD
ENDBRANCH   7   8
ENDBRANCH   4   7
BRANCH   1  18
HETATM   18  C   UNL     1      43.768 -19.280   3.205  1.00  0.00     0.064 A 
HETATM   19  C   UNL     1      44.471 -19.836   4.303  1.00  0.00     0.097 A 
HETATM   20  C   UNL     1      44.839 -21.191   4.304  1.00  0.00     0.081 A 
HETATM   21  C   UNL     1      44.565 -21.988   3.203  1.00  0.00     0.119 A 
HETATM   22  C   UNL     1      43.922 -21.470   2.094  1.00  0.00     0.044 A 
HETATM   23  F   UNL     1      44.927 -23.278   3.216  1.00  0.00    -0.206 F 
HETATM   24  C   UNL     1      43.531 -20.130   2.101  1.00  0.00     0.035 A 
BRANCH  19  25
HETATM   25  O   UNL     1      44.704 -19.066   5.417  1.00  0.00    -0.354 OA
HETATM   26  C   UNL     1      43.948 -19.458   6.561  1.00  0.00     0.210 C 
ENDBRANCH  19  25
ENDBRANCH   1  18
TORSDOF 4
ENDMDL
MODEL 2
REMARK VINA RESULT:      -8.1      3.050      3.880
REMARK  4 active torsions:
REMARK  status: ('A' for Active; 'I' for Inactive)
REMARK    1  A    between atoms: O_2  and  C_3 
REMARK    2  A    between atoms: C_4  and  N_5 
REMARK    3  A    between atoms: N_8  and  C_9 
REMARK    4  A    between atoms: C_9  and  C_10 
ROOT
HETATM    1  N   UNL     1      43.356 -17.952   4.792  1.00  0.00    -0.375 N 
HETATM    2  C   UNL     1      42.546 -18.139   6.007  1.00  0.00     0.153 C 
HETATM    3  C   UNL     1      42.595 -16.863   6.887  1.00  0.00     0.292 C 
HETATM    4  N   UNL     1      42.208 -15.599   6.207  1.00  0.00     0.095 N 
HETATM    5  C   UNL     1      43.005 -15.496   4.955  1.00  0.00     0.292 C 
HETATM    6  C   UNL     1      42.982 -16.738   4.031  1.00  0.00     0.153 C 
ENDROOT
BRANCH   4   7
HETATM    7  C   UNL     1      40.756 -15.571   5.938  1.00  0.00     0.313 C 
BRANCH   7   8
HETATM    8  C   UNL     1      40.305 -14.332   5.191  1.00  0.00    -0.001 A 
HETATM    9  C   UNL     1      39.840 -14.337   3.865  1.00  0.00     0.070 A 
HETATM   10  C   UNL     1      39.459 -13.199   3.169  1.00  0.00     0.012 A 
HETATM   11  N   UNL     1      39.634 -15.378   2.992  1.00  0.00    -0.277 N 
HETATM   12  C   UNL     1      39.055 -13.677   1.901  1.00  0.00     0.152 A 
HETATM   13  C   UNL     1      39.542 -11.949   3.800  1.00  0.00     0.015 A 
HETATM   14  N   UNL     1      39.162 -15.004   1.788  1.00  0.00    -0.186 NA
HETATM   15  C   UNL     1      40.016 -11.895   5.117  1.00  0.00     0.002 A 
HETATM   16  C   UNL     1      40.394 -13.061   5.791  1.00  0.00     0.011 A 
HETATM   17  H   UNL     1      39.776 -16.363   3.194  1.00  0.00     0.189 HD
ENDBRANCH   7   8
ENDBRANCH   4   7
BRANCH   1  18
HETATM   18  C   UNL     1      43.664 -19.060   3.978  1.00  0.00     0.064 A 
HETATM   19  C   UNL     1      44.391 -20.210   4.374  1.00  0.00     0.097 A 
HETATM   20  C   UNL     1      44.608 -21.265   3.472  1.00  0.00     0.081 A 
HETATM   21  C   UNL     1      44.155 -21.167   2.165  1.00  0.00     0.119 A 
HETATM   22  C   UNL     1      43.481 -20.041   1.730  1.00  0.00     0.044 A 
HETATM   23  F   UNL     1      44.373 -22.178   1.314  1.00  0.00    -0.206 F 
HETATM   24  C   UNL     1      43.242 -19.002   2.630  1.00  0.00     0.035 A 
BRANCH  19  25
HETATM   25  O   UNL     1      44.801 -20.336   5.680  1.00  0.00    -0.354 OA
HETATM   26  C   UNL     1      44.107 -21.345   6.411  1.00  0.00     0.210 C 
ENDBRANCH  19  25
ENDBRANCH   1  18
TORSDOF 4
ENDMDL
MODEL 3
REMARK VINA RESULT:      -8.0      2.732      2.901
REMARK  4 active torsions:
REMARK  status: ('A' for Active; 'I' for Inactive)
REMARK    1  A    between atoms: O_2  and  C_3 
REMARK    2  A    between atoms: C_4  and  N_5 
REMARK    3  A    between atoms: N_8  and  C_9 
REMARK    4  A    between atoms: C_9  and  C_10 
ROOT
HETATM    1  N   UNL     1      42.969 -17.792   3.731  1.00  0.00    -0.375 N 
HETATM    2  C   UNL     1      41.667 -17.681   4.411  1.00  0.00     0.153 C 
HETATM    3  C   UNL     1      41.418 -16.217   4.858  1.00  0.00     0.292 C 
HETATM    4  N   UNL     1      41.521 -15.192   3.786  1.00  0.00     0.095 N 
HETATM    5  C   UNL     1      42.820 -15.394   3.090  1.00  0.00     0.292 C 
HETATM    6  C   UNL     1      43.116 -16.836   2.610  1.00  0.00     0.153 C 
ENDROOT
BRANCH   4   7
HETATM    7  C   UNL     1      40.378 -15.288   2.856  1.00  0.00     0.313 C 
BRANCH   7   8
HETATM    8  C   UNL     1      39.597 -13.997   2.725  1.00  0.00    -0.001 A 
HETATM    9  C   UNL     1      38.793 -13.670   1.620  1.00  0.00     0.070 A 
HETATM   10  C   UNL     1      38.104 -12.473   1.484  1.00  0.00     0.012 A 
HETATM   11  N   UNL     1      38.483 -14.392   0.494  1.00  0.00    -0.277 N 
HETATM   12  C   UNL     1      37.431 -12.589   0.246  1.00  0.00     0.152 A 
HETATM   13  C   UNL     1      38.206 -11.504   2.495  1.00  0.00     0.015 A 
HETATM   14  N   UNL     1      37.660 -13.757  -0.362  1.00  0.00    -0.186 NA
HETATM   15  C   UNL     1      39.010 -11.782   3.607  1.00  0.00     0.002 A 
HETATM   16  C   UNL     1      39.693 -12.997   3.714  1.00  0.00     0.011 A 
HETATM   17  H   UNL     1      38.790 -15.338   0.287  1.00  0.00     0.189 HD
ENDBRANCH   7   8
ENDBRANCH   4   7
BRANCH   1  18
HETATM   18  C   UNL     1      43.515 -19.063   3.470  1.00  0.00     0.064 A 
HETATM   19  C   UNL     1      44.378 -19.793   4.325  1.00  0.00     0.097 A 
HETATM   20  C   UNL     1      44.834 -21.070   3.960  1.00  0.00     0.081 A 
HETATM   21  C   UNL     1      44.485 -21.610   2.731  1.00  0.00     0.119 A 
HETATM   22  C   UNL     1      43.682 -20.908   1.851  1.00  0.00     0.044 A 
HETATM   23  F   UNL     1      44.931 -22.827   2.394  1.00  0.00    -0.206 F 
HETATM   24  C   UNL     1      43.206 -19.650   2.221  1.00  0.00     0.035 A 
BRANCH  19  25
HETATM   25  O   UNL     1      44.690 -19.287   5.565  1.00  0.00    -0.354 OA
HETATM   26  C   UNL     1      43.857 -19.774   6.616  1.00  0.00     0.210 C 
ENDBRANCH  19  25
ENDBRANCH   1  18
TORSDOF 4
ENDMDL
MODEL 4
REMARK VINA RESULT:      -7.9      2.399      3.376
REMARK  4 active torsions:
REMARK  status: ('A' for Active; 'I' for Inactive)
REMARK    1  A    between atoms: O_2  and  C_3 
REMARK    2  A    between atoms: C_4  and  N_5 
REMARK    3  A    between atoms: N_8  and  C_9 
REMARK    4  A    between atoms: C_9  and  C_10 
ROOT
HETATM    1  N   UNL     1      42.772 -17.705   3.418  1.00  0.00    -0.375 N 
HETATM    2  C   UNL     1      43.765 -17.097   2.515  1.00  0.00     0.153 C 
HETATM    3  C   UNL     1      43.364 -17.335   1.037  1.00  0.00     0.292 C 
HETATM    4  N   UNL     1      41.996 -16.888   0.663  1.00  0.00     0.095 N 
HETATM    5  C   UNL     1      41.044 -17.474   1.645  1.00  0.00     0.292 C 
HETATM    6  C   UNL     1      41.389 -17.256   3.138  1.00  0.00     0.153 C 
ENDROOT
BRANCH   4   7
HETATM    7  C   UNL     1      41.916 -15.414   0.632  1.00  0.00     0.313 C 
BRANCH   7   8
HETATM    8  C   UNL     1      40.713 -14.892  -0.128  1.00  0.00    -0.001 A 
HETATM    9  C   UNL     1      40.617 -14.866  -1.530  1.00  0.00     0.070 A 
HETATM   10  C   UNL     1      39.531 -14.358  -2.228  1.00  0.00     0.012 A 
HETATM   11  N   UNL     1      41.483 -15.318  -2.496  1.00  0.00    -0.277 N 
HETATM   12  C   UNL     1      39.860 -14.551  -3.589  1.00  0.00     0.152 A 
HETATM   13  C   UNL     1      38.448 -13.820  -1.514  1.00  0.00     0.015 A 
HETATM   14  N   UNL     1      41.051 -15.134  -3.757  1.00  0.00    -0.186 NA
HETATM   15  C   UNL     1      38.509 -13.811  -0.115  1.00  0.00     0.002 A 
HETATM   16  C   UNL     1      39.619 -14.329   0.559  1.00  0.00     0.011 A 
HETATM   17  H   UNL     1      42.369 -15.787  -2.331  1.00  0.00     0.189 HD
ENDBRANCH   7   8
ENDBRANCH   4   7
BRANCH   1  18
HETATM   18  C   UNL     1      43.061 -17.836   4.790  1.00  0.00     0.064 A 
HETATM   19  C   UNL     1      43.840 -18.859   5.386  1.00  0.00     0.097 A 
HETATM   20  C   UNL     1      44.080 -18.862   6.769  1.00  0.00     0.081 A 
HETATM   21  C   UNL     1      43.510 -17.888   7.577  1.00  0.00     0.119 A 
HETATM   22  C   UNL     1      42.707 -16.900   7.038  1.00  0.00     0.044 A 
HETATM   23  F   UNL     1      43.743 -17.906   8.896  1.00  0.00    -0.206 F 
HETATM   24  C   UNL     1      42.488 -16.880   5.659  1.00  0.00     0.035 A 
BRANCH  19  25
HETATM   25  O   UNL     1      44.447 -19.799   4.587  1.00  0.00    -0.354 OA
HETATM   26  C   UNL     1      44.688 -21.045   5.240  1.00  0.00     0.210 C 
ENDBRANCH  19  25
ENDBRANCH   1  18
TORSDOF 4
ENDMDL
MODEL 5
REMARK VINA RESULT:      -7.9      3.821      5.066
REMARK  4 active torsions:
REMARK  status: ('A' for Active; 'I' for Inactive)
REMARK    1  A    between atoms: O_2  and  C_3 
REMARK    2  A    between atoms: C_4  and  N_5 
REMARK    3  A    between atoms: N_8  and  C_9 
REMARK    4  A    between atoms: C_9  and  C_10 
ROOT
HETATM    1  N   UNL     1      43.186 -17.888   4.773  1.00  0.00    -0.375 N 
HETATM    2  C   UNL     1      42.235 -18.081   5.881  1.00  0.00     0.153 C 
HETATM    3  C   UNL     1      42.181 -16.811   6.769  1.00  0.00     0.292 C 
HETATM    4  N   UNL     1      41.879 -15.542   6.057  1.00  0.00     0.095 N 
HETATM    5  C   UNL     1      42.821 -15.431   4.911  1.00  0.00     0.292 C 
HETATM    6  C   UNL     1      42.907 -16.667   3.982  1.00  0.00     0.153 C 
ENDROOT
BRANCH   4   7
HETATM    7  C   UNL     1      40.470 -15.509   5.616  1.00  0.00     0.313 C 
BRANCH   7   8
HETATM    8  C   UNL     1      40.054 -14.176   5.027  1.00  0.00    -0.001 A 
HETATM    9  C   UNL     1      39.717 -13.047   5.793  1.00  0.00     0.070 A 
HETATM   10  C   UNL     1      39.304 -11.836   5.255  1.00  0.00     0.012 A 
HETATM   11  N   UNL     1      39.730 -12.850   7.152  1.00  0.00    -0.277 N 
HETATM   12  C   UNL     1      39.093 -11.003   6.378  1.00  0.00     0.152 A 
HETATM   13  C   UNL     1      39.197 -11.706   3.861  1.00  0.00     0.015 A 
HETATM   14  N   UNL     1      39.349 -11.617   7.536  1.00  0.00    -0.186 NA
HETATM   15  C   UNL     1      39.508 -12.812   3.061  1.00  0.00     0.002 A 
HETATM   16  C   UNL     1      39.920 -14.019   3.634  1.00  0.00     0.011 A 
HETATM   17  H   UNL     1      40.023 -13.527   7.851  1.00  0.00     0.189 HD
ENDBRANCH   7   8
ENDBRANCH   4   7
BRANCH   1  18
HETATM   18  C   UNL     1      43.588 -18.990   3.995  1.00  0.00     0.064 A 
HETATM   19  C   UNL     1      44.362 -20.090   4.441  1.00  0.00     0.097 A 
HETATM   20  C   UNL     1      44.673 -21.146   3.570  1.00  0.00     0.081 A 
HETATM   21  C   UNL     1      44.268 -21.098   2.244  1.00  0.00     0.119 A 
HETATM   22  C   UNL     1      43.551 -20.020   1.761  1.00  0.00     0.044 A 
HETATM   23  F   UNL     1      44.577 -22.110   1.423  1.00  0.00    -0.206 F 
HETATM   24  C   UNL     1      43.217 -18.980   2.630  1.00  0.00     0.035 A 
BRANCH  19  25
HETATM   25  O   UNL     1      44.726 -20.169   5.765  1.00  0.00    -0.354 OA
HETATM   26  C   UNL     1      44.059 -21.202   6.488  1.00  0.00     0.210 C 
ENDBRANCH  19  25
ENDBRANCH   1  18
TORSDOF 4
ENDMDL
MODEL 6
REMARK VINA RESULT:      -7.9      1.686      2.000
REMARK  4 active torsions:
REMARK  status: ('A' for Active; 'I' for Inactive)
REMARK    1  A    between atoms: O_2  and  C_3 
REMARK    2  A    between atoms: C_4  and  N_5 
REMARK    3  A    between atoms: N_8  and  C_9 
REMARK    4  A    between atoms: C_9  and  C_10 
ROOT
HETATM    1  N   UNL     1      42.466 -17.214   3.607  1.00  0.00    -0.375 N 
HETATM    2  C   UNL     1      41.325 -17.415   2.698  1.00  0.00     0.153 C 
HETATM    3  C   UNL     1      40.458 -16.132   2.632  1.00  0.00     0.292 C 
HETATM    4  N   UNL     1      41.182 -14.885   2.269  1.00  0.00     0.095 N 
HETATM    5  C   UNL     1      42.360 -14.768   3.171  1.00  0.00     0.292 C 
HETATM    6  C   UNL     1      43.269 -16.017   3.265  1.00  0.00     0.153 C 
ENDROOT
BRANCH   4   7
HETATM    7  C   UNL     1      41.578 -14.903   0.847  1.00  0.00     0.313 C 
BRANCH   7   8
HETATM    8  C   UNL     1      40.439 -14.580  -0.099  1.00  0.00    -0.001 A 
HETATM    9  C   UNL     1      40.507 -14.728  -1.495  1.00  0.00     0.070 A 
HETATM   10  C   UNL     1      39.477 -14.401  -2.365  1.00  0.00     0.012 A 
HETATM   11  N   UNL     1      41.511 -15.216  -2.296  1.00  0.00    -0.277 N 
HETATM   12  C   UNL     1      39.979 -14.724  -3.647  1.00  0.00     0.152 A 
HETATM   13  C   UNL     1      38.283 -13.876  -1.847  1.00  0.00     0.015 A 
HETATM   14  N   UNL     1      41.219 -15.220  -3.610  1.00  0.00    -0.186 NA
HETATM   15  C   UNL     1      38.177 -13.697  -0.462  1.00  0.00     0.002 A 
HETATM   16  C   UNL     1      39.234 -14.035   0.388  1.00  0.00     0.011 A 
HETATM   17  H   UNL     1      42.403 -15.585  -1.978  1.00  0.00     0.189 HD
ENDBRANCH   7   8
ENDBRANCH   4   7
BRANCH   1  18
HETATM   18  C   UNL     1      43.237 -18.318   4.017  1.00  0.00     0.064 A 
HETATM   19  C   UNL     1      43.514 -18.693   5.355  1.00  0.00     0.097 A 
HETATM   20  C   UNL     1      44.276 -19.838   5.635  1.00  0.00     0.081 A 
HETATM   21  C   UNL     1      44.813 -20.588   4.598  1.00  0.00     0.119 A 
HETATM   22  C   UNL     1      44.603 -20.228   3.280  1.00  0.00     0.044 A 
HETATM   23  F   UNL     1      45.543 -21.675   4.880  1.00  0.00    -0.206 F 
HETATM   24  C   UNL     1      43.824 -19.104   2.999  1.00  0.00     0.035 A 
BRANCH  19  25
HETATM   25  O   UNL     1      42.946 -17.984   6.388  1.00  0.00    -0.354 OA
HETATM   26  C   UNL     1      43.545 -18.231   7.659  1.00  0.00     0.210 C 
ENDBRANCH  19  25
ENDBRANCH   1  18
TORSDOF 4
ENDMDL
MODEL 7
REMARK VINA RESULT:      -7.8      3.817      5.684
REMARK  4 active torsions:
REMARK  status: ('A' for Active; 'I' for Inactive)
REMARK    1  A    between atoms: O_2  and  C_3 
REMARK    2  A    between atoms: C_4  and  N_5 
REMARK    3  A    between atoms: N_8  and  C_9 
REMARK    4  A    between atoms: C_9  and  C_10 
ROOT
HETATM    1  N   UNL     1      42.667 -17.743   4.848  1.00  0.00    -0.375 N 
HETATM    2  C   UNL     1      41.228 -17.765   5.162  1.00  0.00     0.153 C 
HETATM    3  C   UNL     1      40.919 -16.797   6.333  1.00  0.00     0.292 C 
HETATM    4  N   UNL     1      41.377 -15.396   6.147  1.00  0.00     0.095 N 
HETATM    5  C   UNL     1      42.815 -15.437   5.766  1.00  0.00     0.292 C 
HETATM    6  C   UNL     1      43.179 -16.378   4.592  1.00  0.00     0.153 C 
ENDROOT
BRANCH   4   7
HETATM    7  C   UNL     1      40.558 -14.706   5.129  1.00  0.00     0.313 C 
BRANCH   7   8
HETATM    8  C   UNL     1      40.627 -13.196   5.222  1.00  0.00    -0.001 A 
HETATM    9  C   UNL     1      40.079 -12.445   6.277  1.00  0.00     0.070 A 
HETATM   10  C   UNL     1      40.112 -11.060   6.347  1.00  0.00     0.012 A 
HETATM   11  N   UNL     1      39.444 -12.847   7.426  1.00  0.00    -0.277 N 
HETATM   12  C   UNL     1      39.466 -10.750   7.566  1.00  0.00     0.152 A 
HETATM   13  C   UNL     1      40.717 -10.335   5.308  1.00  0.00     0.015 A 
HETATM   14  N   UNL     1      39.055 -11.837   8.226  1.00  0.00    -0.186 NA
HETATM   15  C   UNL     1      41.262 -11.042   4.229  1.00  0.00     0.002 A 
HETATM   16  C   UNL     1      41.211 -12.439   4.187  1.00  0.00     0.011 A 
HETATM   17  H   UNL     1      39.283 -13.808   7.715  1.00  0.00     0.189 HD
ENDBRANCH   7   8
ENDBRANCH   4   7
BRANCH   1  18
HETATM   18  C   UNL     1      43.213 -18.724   3.999  1.00  0.00     0.064 A 
HETATM   19  C   UNL     1      42.910 -18.903   2.626  1.00  0.00     0.097 A 
HETATM   20  C   UNL     1      43.547 -19.906   1.877  1.00  0.00     0.081 A 
HETATM   21  C   UNL     1      44.444 -20.768   2.490  1.00  0.00     0.119 A 
HETATM   22  C   UNL     1      44.731 -20.654   3.837  1.00  0.00     0.044 A 
HETATM   23  F   UNL     1      45.041 -21.723   1.764  1.00  0.00    -0.206 F 
HETATM   24  C   UNL     1      44.119 -19.642   4.578  1.00  0.00     0.035 A 
BRANCH  19  25
HETATM   25  O   UNL     1      42.059 -18.023   2.000  1.00  0.00    -0.354 OA
HETATM   26  C   UNL     1      42.678 -17.246   0.977  1.00  0.00     0.210 C 
ENDBRANCH  19  25
ENDBRANCH   1  18
TORSDOF 4
ENDMDL
MODEL 8
REMARK VINA RESULT:      -7.8      3.860      8.262
REMARK  4 active torsions:
REMARK  status: ('A' for Active; 'I' for Inactive)
REMARK    1  A    between atoms: O_2  and  C_3 
REMARK    2  A    between atoms: C_4  and  N_5 
REMARK    3  A    between atoms: N_8  and  C_9 
REMARK    4  A    between atoms: C_9  and  C_10 
ROOT
HETATM    1  N   UNL     1      40.641 -15.105   1.670  1.00  0.00    -0.375 N 
HETATM    2  C   UNL     1      42.100 -14.911   1.600  1.00  0.00     0.153 C 
HETATM    3  C   UNL     1      42.764 -15.346   2.932  1.00  0.00     0.292 C 
HETATM    4  N   UNL     1      42.456 -16.730   3.381  1.00  0.00     0.095 N 
HETATM    5  C   UNL     1      40.977 -16.891   3.368  1.00  0.00     0.292 C 
HETATM    6  C   UNL     1      40.262 -16.483   2.057  1.00  0.00     0.153 C 
ENDROOT
BRANCH   4   7
HETATM    7  C   UNL     1      43.126 -17.723   2.518  1.00  0.00     0.313 C 
BRANCH   7   8
HETATM    8  C   UNL     1      43.801 -18.836   3.293  1.00  0.00    -0.001 A 
HETATM    9  C   UNL     1      43.973 -20.144   2.807  1.00  0.00     0.070 A 
HETATM   10  C   UNL     1      44.562 -21.172   3.528  1.00  0.00     0.012 A 
HETATM   11  N   UNL     1      43.657 -20.695   1.589  1.00  0.00    -0.277 N 
HETATM   12  C   UNL     1      44.534 -22.282   2.652  1.00  0.00     0.152 A 
HETATM   13  C   UNL     1      45.014 -20.923   4.834  1.00  0.00     0.015 A 
HETATM   14  N   UNL     1      43.982 -21.996   1.470  1.00  0.00    -0.186 NA
HETATM   15  C   UNL     1      44.848 -19.638   5.364  1.00  0.00     0.002 A 
HETATM   16  C   UNL     1      44.250 -18.623   4.612  1.00  0.00     0.011 A 
HETATM   17  H   UNL     1      43.244 -20.205   0.801  1.00  0.00     0.189 HD
ENDBRANCH   7   8
ENDBRANCH   4   7
BRANCH   1  18
HETATM   18  C   UNL     1      39.812 -14.543   0.680  1.00  0.00     0.064 A 
HETATM   19  C   UNL     1      40.083 -14.500  -0.710  1.00  0.00     0.097 A 
HETATM   20  C   UNL     1      39.158 -13.935  -1.602  1.00  0.00     0.081 A 
HETATM   21  C   UNL     1      37.988 -13.363  -1.122  1.00  0.00     0.119 A 
HETATM   22  C   UNL     1      37.711 -13.345   0.231  1.00  0.00     0.044 A 
HETATM   23  F   UNL     1      37.117 -12.823  -1.984  1.00  0.00    -0.206 F 
HETATM   24  C   UNL     1      38.616 -13.930   1.118  1.00  0.00     0.035 A 
BRANCH  19  25
HETATM   25  O   UNL     1      41.216 -15.107  -1.198  1.00  0.00    -0.354 OA
HETATM   26  C   UNL     1      41.024 -15.778  -2.442  1.00  0.00     0.210 C 
ENDBRANCH  19  25
ENDBRANCH   1  18
TORSDOF 4
ENDMDL
MODEL 9
REMARK VINA RESULT:      -7.7      1.641      2.082
REMARK  4 active torsions:
REMARK  status: ('A' for Active; 'I' for Inactive)
REMARK    1  A    between atoms: O_2  and  C_3 
REMARK    2  A    between atoms: C_4  and  N_5 
REMARK    3  A    between atoms: N_8  and  C_9 
REMARK    4  A    between atoms: C_9  and  C_10 
ROOT
HETATM    1  N   UNL     1      43.491 -17.628   3.516  1.00  0.00    -0.375 N 
HETATM    2  C   UNL     1      42.277 -17.240   4.255  1.00  0.00     0.153 C 
HETATM    3  C   UNL     1      42.239 -15.703   4.455  1.00  0.00     0.292 C 
HETATM    4  N   UNL     1      42.361 -14.891   3.216  1.00  0.00     0.095 N 
HETATM    5  C   UNL     1      43.560 -15.370   2.477  1.00  0.00     0.292 C 
HETATM    6  C   UNL     1      43.645 -16.897   2.238  1.00  0.00     0.153 C 
ENDROOT
BRANCH   4   7
HETATM    7  C   UNL     1      41.135 -14.993   2.398  1.00  0.00     0.313 C 
BRANCH   7   8
HETATM    8  C   UNL     1      41.336 -14.572   0.957  1.00  0.00    -0.001 A 
HETATM    9  C   UNL     1      41.749 -13.288   0.560  1.00  0.00     0.070 A 
HETATM   10  C   UNL     1      41.901 -12.891  -0.760  1.00  0.00     0.012 A 
HETATM   11  N   UNL     1      42.103 -12.192   1.307  1.00  0.00    -0.277 N 
HETATM   12  C   UNL     1      42.338 -11.549  -0.680  1.00  0.00     0.152 A 
HETATM   13  C   UNL     1      41.621 -13.806  -1.788  1.00  0.00     0.015 A 
HETATM   14  N   UNL     1      42.461 -11.118   0.579  1.00  0.00    -0.186 NA
HETATM   15  C   UNL     1      41.192 -15.092  -1.438  1.00  0.00     0.002 A 
HETATM   16  C   UNL     1      41.047 -15.461  -0.098  1.00  0.00     0.011 A 
HETATM   17  H   UNL     1      42.143 -12.147   2.322  1.00  0.00     0.189 HD
ENDBRANCH   7   8
ENDBRANCH   4   7
BRANCH   1  18
HETATM   18  C   UNL     1      43.863 -18.985   3.444  1.00  0.00     0.064 A 
HETATM   19  C   UNL     1      44.555 -19.715   4.442  1.00  0.00     0.097 A 
HETATM   20  C   UNL     1      44.843 -21.077   4.261  1.00  0.00     0.081 A 
HETATM   21  C   UNL     1      44.498 -21.711   3.076  1.00  0.00     0.119 A 
HETATM   22  C   UNL     1      43.863 -21.019   2.061  1.00  0.00     0.044 A 
HETATM   23  F   UNL     1      44.784 -23.009   2.915  1.00  0.00    -0.206 F 
HETATM   24  C   UNL     1      43.552 -19.672   2.249  1.00  0.00     0.035 A 
BRANCH  19  25
HETATM   25  O   UNL     1      44.858 -19.108   5.638  1.00  0.00    -0.354 OA
HETATM   26  C   UNL     1      44.002 -19.488   6.714  1.00  0.00     0.210 C 
ENDBRANCH  19  25
ENDBRANCH   1  18
TORSDOF 4
ENDMDL
MODEL 10
REMARK VINA RESULT:      -7.7      2.623      3.470
REMARK  4 active torsions:
REMARK  status: ('A' for Active; 'I' for Inactive)
REMARK    1  A    between atoms: O_2  and  C_3 
REMARK    2  A    between atoms: C_4  and  N_5 
REMARK    3  A    between atoms: N_8  and  C_9 
REMARK    4  A    between atoms: C_9  and  C_10 
ROOT
HETATM    1  N   UNL     1      42.905 -17.568   3.414  1.00  0.00    -0.375 N 
HETATM    2  C   UNL     1      43.836 -16.922   2.473  1.00  0.00     0.153 C 
HETATM    3  C   UNL     1      43.383 -17.175   1.012  1.00  0.00     0.292 C 
HETATM    4  N   UNL     1      41.985 -16.780   0.695  1.00  0.00     0.095 N 
HETATM    5  C   UNL     1      41.098 -17.403   1.714  1.00  0.00     0.292 C 
HETATM    6  C   UNL     1      41.496 -17.172   3.193  1.00  0.00     0.153 C 
ENDROOT
BRANCH   4   7
HETATM    7  C   UNL     1      41.848 -15.310   0.670  1.00  0.00     0.313 C 
BRANCH   7   8
HETATM    8  C   UNL     1      40.654 -14.831  -0.130  1.00  0.00    -0.001 A 
HETATM    9  C   UNL     1      40.595 -14.826  -1.534  1.00  0.00     0.070 A 
HETATM   10  C   UNL     1      39.515 -14.357  -2.268  1.00  0.00     0.012 A 
HETATM   11  N   UNL     1      41.499 -15.269  -2.469  1.00  0.00    -0.277 N 
HETATM   12  C   UNL     1      39.888 -14.560  -3.617  1.00  0.00     0.152 A 
HETATM   13  C   UNL     1      38.400 -13.837  -1.591  1.00  0.00     0.015 A 
HETATM   14  N   UNL     1      41.096 -15.114  -3.744  1.00  0.00    -0.186 NA
HETATM   15  C   UNL     1      38.423 -13.807  -0.192  1.00  0.00     0.002 A 
HETATM   16  C   UNL     1      39.527 -14.287   0.519  1.00  0.00     0.011 A 
HETATM   17  H   UNL     1      42.392 -15.713  -2.273  1.00  0.00     0.189 HD
ENDBRANCH   7   8
ENDBRANCH   4   7
BRANCH   1  18
HETATM   18  C   UNL     1      43.256 -17.688   4.773  1.00  0.00     0.064 A 
HETATM   19  C   UNL     1      43.513 -16.619   5.667  1.00  0.00     0.097 A 
HETATM   20  C   UNL     1      43.826 -16.871   7.012  1.00  0.00     0.081 A 
HETATM   21  C   UNL     1      43.938 -18.176   7.468  1.00  0.00     0.119 A 
HETATM   22  C   UNL     1      43.739 -19.245   6.615  1.00  0.00     0.044 A 
HETATM   23  F   UNL     1      44.243 -18.402   8.753  1.00  0.00    -0.206 F 
HETATM   24  C   UNL     1      43.402 -18.998   5.283  1.00  0.00     0.035 A 
BRANCH  19  25
HETATM   25  O   UNL     1      43.356 -15.323   5.235  1.00  0.00    -0.354 OA
HETATM   26  C   UNL     1      43.965 -14.352   6.084  1.00  0.00     0.210 C 
ENDBRANCH  19  25
ENDBRANCH   1  18
TORSDOF 4
ENDMDL
